MODEL 1
REMARK VINA RESULT:     -10.1      0.000      0.000
REMARK  Name = 101808842_CandidaspongiolideB.pdbqt.pdb
REMARK  12 active torsions:
REMARK  status: ('A' for Active; 'I' for Inactive)
REMARK    1  A    between atoms: C_6  and  C_42
REMARK    2  A    between atoms: C_7  and  O_28
REMARK    3  A    between atoms: C_10  and  O_30
REMARK    4  A    between atoms: C_13  and  O_32
REMARK    5  A    between atoms: C_19  and  O_34
REMARK    6  A    between atoms: C_20  and  O_38
REMARK    7  A    between atoms: C_21  and  O_36
REMARK    8  A    between atoms: O_38  and  C_40
REMARK    9  A    between atoms: C_42  and  C_44
REMARK   10  A    between atoms: C_42  and  O_52
REMARK   11  A    between atoms: C_45  and  C_47
REMARK   12  A    between atoms: C_47  and  C_49
REMARK                            x       y       z     vdW  Elec       q    Type
REMARK                         _______ _______ _______ _____ _____    ______ ____
ROOT
ATOM      1  O   UNL     1      23.041   2.867 187.574  0.00  0.00    +0.000 OA
ATOM      2  O   UNL     1      25.930  -0.340 192.920  0.00  0.00    +0.000 OA
ATOM      3  O   UNL     1      25.545   3.080 190.436  0.00  0.00    +0.000 OA
ATOM      4  O   UNL     1      24.086   1.041 193.038  0.00  0.00    +0.000 OA
ATOM      5  O   UNL     1      21.532  -0.161 192.143  0.00  0.00    +0.000 OA
ATOM      6  C   UNL     1      26.719   1.070 190.688  0.00  0.00    +0.000 C 
ATOM      7  C   UNL     1      24.855   1.277 188.907  0.00  0.00    +0.000 C 
ATOM      8  C   UNL     1      25.680   1.921 190.042  0.00  0.00    +0.000 C 
ATOM      9  C   UNL     1      26.364   0.346 191.861  0.00  0.00    +0.000 C 
ATOM     10  C   UNL     1      23.619   0.553 189.477  0.00  0.00    +0.000 C 
ATOM     11  C   UNL     1      22.362   1.010 188.979  0.00  0.00    +0.000 C 
ATOM     12  C   UNL     1      24.165   2.306 188.065  0.00  0.00    +0.000 C 
ATOM     13  C   UNL     1      21.874   2.083 188.057  0.00  0.00    +0.000 C 
ATOM     14  C   UNL     1      20.893   3.024 188.772  0.00  0.00    +0.000 C 
ATOM     15  C   UNL     1      20.760   3.009 190.193  0.00  0.00    +0.000 C 
ATOM     16  C   UNL     1      19.898   3.965 188.100  0.00  0.00    +0.000 C 
ATOM     17  C   UNL     1      24.707   0.044 193.378  0.00  0.00    +0.000 C 
ATOM     18  C   UNL     1      20.672   2.920 191.484  0.00  0.00    +0.000 C 
ATOM     19  C   UNL     1      24.158  -0.971 194.307  0.00  0.00    +0.000 C 
ATOM     20  C   UNL     1      19.665   2.105 192.122  0.00  0.00    +0.000 C 
ATOM     21  C   UNL     1      22.742  -1.025 194.614  0.00  0.00    +0.000 C 
ATOM     22  C   UNL     1      19.880   1.170 193.225  0.00  0.00    +0.000 C 
ATOM     23  C   UNL     1      21.786   0.068 194.518  0.00  0.00    +0.000 C 
ATOM     24  C   UNL     1      21.115   0.317 193.204  0.00  0.00    +0.000 C 
ATOM     25  C   UNL     1      21.786   3.543 192.276  0.00  0.00    +0.000 C 
ATOM     26  C   UNL     1      18.693   0.720 194.075  0.00  0.00    +0.000 C 
ATOM     27  C   UNL     1      21.693   1.060 195.672  0.00  0.00    +0.000 C 
ENDROOT
BRANCH   7  28
ATOM     28  O   UNL     1      25.553   0.389 188.058  0.00  0.00    +0.000 OA
ATOM     29  H   UNL     1      26.150  -0.128 188.630  0.00  0.00    +0.000 HD
ENDBRANCH   7  28
BRANCH  10  30
ATOM     30  O   UNL     1      23.711  -0.469 190.385  0.00  0.00    +0.000 OA
ATOM     31  H   UNL     1      22.836  -0.878 190.550  0.00  0.00    +0.000 HD
ENDBRANCH  10  30
BRANCH  13  32
ATOM     32  O   UNL     1      21.258   1.451 186.939  0.00  0.00    +0.000 OA
ATOM     33  H   UNL     1      21.982   1.222 186.334  0.00  0.00    +0.000 HD
ENDBRANCH  13  32
BRANCH  19  34
ATOM     34  O   UNL     1      24.934  -1.998 194.812  0.00  0.00    +0.000 OA
ATOM     35  H   UNL     1      25.504  -1.720 195.558  0.00  0.00    +0.000 HD
ENDBRANCH  19  34
BRANCH  21  36
ATOM     36  O   UNL     1      22.361  -2.101 195.399  0.00  0.00    +0.000 OA
ATOM     37  C   UNL     1      21.015  -2.437 195.171  0.00  0.00    +0.000 C 
ENDBRANCH  21  36
BRANCH  20  38
ATOM     38  O   UNL     1      18.330   2.469 191.826  0.00  0.00    +0.000 OA
BRANCH  38  40
ATOM     39  O   UNL     1      16.570   1.386 190.749  0.00  0.00    +0.000 OA
ATOM     40  C   UNL     1      17.747   1.548 191.016  0.00  0.00    +0.000 C 
ATOM     41  C   UNL     1      18.674   0.550 190.427  0.00  0.00    +0.000 C 
ENDBRANCH  38  40
ENDBRANCH  20  38
BRANCH   6  42
ATOM     42  C   UNL     1      28.087   1.186 190.232  0.00  0.00    +0.000 C 
BRANCH  42  44
ATOM     43  O   UNL     1      30.414   1.953 190.858  0.00  0.00    +0.000 OA
ATOM     44  C   UNL     1      29.000   2.245 190.738  0.00  0.00    +0.000 C 
ATOM     45  C   UNL     1      30.001   2.650 189.756  0.00  0.00    +0.000 C 
ATOM     46  C   UNL     1      28.553   3.100 191.970  0.00  0.00    +0.000 C 
BRANCH  45  47
ATOM     47  C   UNL     1      30.494   3.985 189.604  0.00  0.00    +0.000 C 
ATOM     48  C   UNL     1      31.639   4.473 190.455  0.00  0.00    +0.000 C 
BRANCH  47  49
ATOM     49  C   UNL     1      30.256   4.704 188.405  0.00  0.00    +0.000 C 
ATOM     50  C   UNL     1      30.081   5.366 187.422  0.00  0.00    +0.000 C 
ATOM     51  C   UNL     1      29.888   6.312 186.233  0.00  0.00    +0.000 C 
ENDBRANCH  47  49
ENDBRANCH  45  47
ENDBRANCH  42  44
BRANCH  42  52
ATOM     52  O   UNL     1      28.493   0.224 189.317  0.00  0.00    +0.000 OA
ATOM     53  H   UNL     1      27.953   0.241 188.500  0.00  0.00    +0.000 HD
ENDBRANCH  42  52
ENDBRANCH   6  42
TORSDOF 12
ENDMDL
MODEL 2
REMARK VINA RESULT:      -9.9      2.873      7.341
REMARK  Name = 101808842_CandidaspongiolideB.pdbqt.pdb
REMARK  12 active torsions:
REMARK  status: ('A' for Active; 'I' for Inactive)
REMARK    1  A    between atoms: C_6  and  C_42
REMARK    2  A    between atoms: C_7  and  O_28
REMARK    3  A    between atoms: C_10  and  O_30
REMARK    4  A    between atoms: C_13  and  O_32
REMARK    5  A    between atoms: C_19  and  O_34
REMARK    6  A    between atoms: C_20  and  O_38
REMARK    7  A    between atoms: C_21  and  O_36
REMARK    8  A    between atoms: O_38  and  C_40
REMARK    9  A    between atoms: C_42  and  C_44
REMARK   10  A    between atoms: C_42  and  O_52
REMARK   11  A    between atoms: C_45  and  C_47
REMARK   12  A    between atoms: C_47  and  C_49
REMARK                            x       y       z     vdW  Elec       q    Type
REMARK                         _______ _______ _______ _____ _____    ______ ____
ROOT
ATOM      1  O   UNL     1      27.202   2.778 193.162  0.00  0.00    +0.000 OA
ATOM      2  O   UNL     1      21.022   0.633 191.061  0.00  0.00    +0.000 OA
ATOM      3  O   UNL     1      25.257   0.404 190.907  0.00  0.00    +0.000 OA
ATOM      4  O   UNL     1      22.246  -0.314 192.772  0.00  0.00    +0.000 OA
ATOM      5  O   UNL     1      22.206   1.160 195.339  0.00  0.00    +0.000 OA
ATOM      6  C   UNL     1      23.404   1.467 189.952  0.00  0.00    +0.000 C 
ATOM      7  C   UNL     1      24.913   2.733 191.627  0.00  0.00    +0.000 C 
ATOM      8  C   UNL     1      24.594   1.440 190.847  0.00  0.00    +0.000 C 
ATOM      9  C   UNL     1      22.157   1.018 190.474  0.00  0.00    +0.000 C 
ATOM     10  C   UNL     1      24.157   2.759 192.970  0.00  0.00    +0.000 C 
ATOM     11  C   UNL     1      24.981   2.867 194.131  0.00  0.00    +0.000 C 
ATOM     12  C   UNL     1      26.320   2.742 192.142  0.00  0.00    +0.000 C 
ATOM     13  C   UNL     1      26.445   2.908 194.434  0.00  0.00    +0.000 C 
ATOM     14  C   UNL     1      26.847   1.769 195.382  0.00  0.00    +0.000 C 
ATOM     15  C   UNL     1      25.964   0.678 195.639  0.00  0.00    +0.000 C 
ATOM     16  C   UNL     1      28.119   1.704 196.222  0.00  0.00    +0.000 C 
ATOM     17  C   UNL     1      21.187   0.046 192.278  0.00  0.00    +0.000 C 
ATOM     18  C   UNL     1      25.100  -0.267 195.846  0.00  0.00    +0.000 C 
ATOM     19  C   UNL     1      19.894  -0.029 192.997  0.00  0.00    +0.000 C 
ATOM     20  C   UNL     1      24.201  -0.238 196.977  0.00  0.00    +0.000 C 
ATOM     21  C   UNL     1      19.841  -0.220 194.434  0.00  0.00    +0.000 C 
ATOM     22  C   UNL     1      22.764  -0.505 196.947  0.00  0.00    +0.000 C 
ATOM     23  C   UNL     1      20.864  -0.828 195.272  0.00  0.00    +0.000 C 
ATOM     24  C   UNL     1      21.964   0.040 195.800  0.00  0.00    +0.000 C 
ATOM     25  C   UNL     1      24.942  -1.284 194.753  0.00  0.00    +0.000 C 
ATOM     26  C   UNL     1      22.037  -0.869 198.240  0.00  0.00    +0.000 C 
ATOM     27  C   UNL     1      20.918  -2.349 195.372  0.00  0.00    +0.000 C 
ENDROOT
BRANCH   7  28
ATOM     28  O   UNL     1      24.672   3.947 190.944  0.00  0.00    +0.000 OA
ATOM     29  H   UNL     1      24.094   3.728 190.190  0.00  0.00    +0.000 HD
ENDBRANCH   7  28
BRANCH  10  30
ATOM     30  O   UNL     1      22.790   2.699 193.053  0.00  0.00    +0.000 OA
ATOM     31  H   UNL     1      22.495   1.854 193.452  0.00  0.00    +0.000 HD
ENDBRANCH  10  30
BRANCH  13  32
ATOM     32  O   UNL     1      26.736   4.180 195.007  0.00  0.00    +0.000 OA
ATOM     33  H   UNL     1      27.636   4.400 194.716  0.00  0.00    +0.000 HD
ENDBRANCH  13  32
BRANCH  19  34
ATOM     34  O   UNL     1      18.689   0.222 192.368  0.00  0.00    +0.000 OA
ATOM     35  H   UNL     1      18.510   1.177 192.246  0.00  0.00    +0.000 HD
ENDBRANCH  19  34
BRANCH  21  36
ATOM     36  O   UNL     1      18.570  -0.146 194.980  0.00  0.00    +0.000 OA
ATOM     37  C   UNL     1      18.566   0.658 196.134  0.00  0.00    +0.000 C 
ENDBRANCH  21  36
BRANCH  20  38
ATOM     38  O   UNL     1      24.836  -0.227 198.241  0.00  0.00    +0.000 OA
BRANCH  38  40
ATOM     39  O   UNL     1      25.157  -2.526 198.443  0.00  0.00    +0.000 OA
ATOM     40  C   UNL     1      25.541  -1.371 198.436  0.00  0.00    +0.000 C 
ATOM     41  C   UNL     1      26.977  -1.179 198.756  0.00  0.00    +0.000 C 
ENDBRANCH  38  40
ENDBRANCH  20  38
BRANCH   6  42
ATOM     42  C   UNL     1      23.604   1.735 188.545  0.00  0.00    +0.000 C 
BRANCH  42  44
ATOM     43  O   UNL     1      22.650   2.605 186.371  0.00  0.00    +0.000 OA
ATOM     44  C   UNL     1      22.784   2.732 187.807  0.00  0.00    +0.000 C 
ATOM     45  C   UNL     1      21.625   2.139 187.148  0.00  0.00    +0.000 C 
ATOM     46  C   UNL     1      22.933   4.247 188.171  0.00  0.00    +0.000 C 
BRANCH  45  47
ATOM     47  C   UNL     1      20.354   2.782 187.008  0.00  0.00    +0.000 C 
ATOM     48  C   UNL     1      19.999   3.491 185.726  0.00  0.00    +0.000 C 
BRANCH  47  49
ATOM     49  C   UNL     1      19.266   2.405 187.835  0.00  0.00    +0.000 C 
ATOM     50  C   UNL     1      18.387   2.040 188.564  0.00  0.00    +0.000 C 
ATOM     51  C   UNL     1      17.337   1.480 189.528  0.00  0.00    +0.000 C 
ENDBRANCH  47  49
ENDBRANCH  45  47
ENDBRANCH  42  44
BRANCH  42  52
ATOM     52  O   UNL     1      24.633   1.022 187.944  0.00  0.00    +0.000 OA
ATOM     53  H   UNL     1      24.601   0.070 188.169  0.00  0.00    +0.000 HD
ENDBRANCH  42  52
ENDBRANCH   6  42
TORSDOF 12
ENDMDL
MODEL 3
REMARK VINA RESULT:      -9.9      2.374      8.501
REMARK  Name = 101808842_CandidaspongiolideB.pdbqt.pdb
REMARK  12 active torsions:
REMARK  status: ('A' for Active; 'I' for Inactive)
REMARK    1  A    between atoms: C_6  and  C_42
REMARK    2  A    between atoms: C_7  and  O_28
REMARK    3  A    between atoms: C_10  and  O_30
REMARK    4  A    between atoms: C_13  and  O_32
REMARK    5  A    between atoms: C_19  and  O_34
REMARK    6  A    between atoms: C_20  and  O_38
REMARK    7  A    between atoms: C_21  and  O_36
REMARK    8  A    between atoms: O_38  and  C_40
REMARK    9  A    between atoms: C_42  and  C_44
REMARK   10  A    between atoms: C_42  and  O_52
REMARK   11  A    between atoms: C_45  and  C_47
REMARK   12  A    between atoms: C_47  and  C_49
REMARK                            x       y       z     vdW  Elec       q    Type
REMARK                         _______ _______ _______ _____ _____    ______ ____
ROOT
ATOM      1  O   UNL     1      24.974  -0.810 193.796  0.00  0.00    +0.000 OA
ATOM      2  O   UNL     1      18.344   0.855 193.103  0.00  0.00    +0.000 OA
ATOM      3  O   UNL     1      22.057   1.247 195.123  0.00  0.00    +0.000 OA
ATOM      4  O   UNL     1      20.109   2.017 192.178  0.00  0.00    +0.000 OA
ATOM      5  O   UNL     1      21.309   0.802 189.759  0.00  0.00    +0.000 OA
ATOM      6  C   UNL     1      20.065   0.018 195.087  0.00  0.00    +0.000 C 
ATOM      7  C   UNL     1      22.250  -1.013 194.164  0.00  0.00    +0.000 C 
ATOM      8  C   UNL     1      21.520   0.183 194.812  0.00  0.00    +0.000 C 
ATOM      9  C   UNL     1      19.138   0.463 194.102  0.00  0.00    +0.000 C 
ATOM     10  C   UNL     1      22.159  -0.938 192.627  0.00  0.00    +0.000 C 
ATOM     11  C   UNL     1      23.411  -0.897 191.944  0.00  0.00    +0.000 C 
ATOM     12  C   UNL     1      23.736  -0.912 194.322  0.00  0.00    +0.000 C 
ATOM     13  C   UNL     1      24.859  -0.846 192.315  0.00  0.00    +0.000 C 
ATOM     14  C   UNL     1      25.540   0.397 191.723  0.00  0.00    +0.000 C 
ATOM     15  C   UNL     1      24.771   1.469 191.180  0.00  0.00    +0.000 C 
ATOM     16  C   UNL     1      27.040   0.598 191.536  0.00  0.00    +0.000 C 
ATOM     17  C   UNL     1      18.974   1.566 192.128  0.00  0.00    +0.000 C 
ATOM     18  C   UNL     1      24.010   2.392 190.680  0.00  0.00    +0.000 C 
ATOM     19  C   UNL     1      18.122   1.656 190.920  0.00  0.00    +0.000 C 
ATOM     20  C   UNL     1      23.698   2.437 189.270  0.00  0.00    +0.000 C 
ATOM     21  C   UNL     1      18.683   1.986 189.624  0.00  0.00    +0.000 C 
ATOM     22  C   UNL     1      22.374   2.639 188.682  0.00  0.00    +0.000 C 
ATOM     23  C   UNL     1      19.916   2.715 189.367  0.00  0.00    +0.000 C 
ATOM     24  C   UNL     1      21.202   1.951 189.318  0.00  0.00    +0.000 C 
ATOM     25  C   UNL     1      23.310   3.290 191.660  0.00  0.00    +0.000 C 
ATOM     26  C   UNL     1      22.256   3.098 187.230  0.00  0.00    +0.000 C 
ATOM     27  C   UNL     1      19.885   4.239 189.408  0.00  0.00    +0.000 C 
ENDROOT
BRANCH   7  28
ATOM     28  O   UNL     1      21.835  -2.297 194.585  0.00  0.00    +0.000 OA
ATOM     29  H   UNL     1      21.650  -2.227 195.539  0.00  0.00    +0.000 HD
ENDBRANCH   7  28
BRANCH  10  30
ATOM     30  O   UNL     1      20.964  -0.929 191.955  0.00  0.00    +0.000 OA
ATOM     31  H   UNL     1      20.322  -0.322 192.381  0.00  0.00    +0.000 HD
ENDBRANCH  10  30
BRANCH  13  32
ATOM     32  O   UNL     1      25.473  -2.042 191.841  0.00  0.00    +0.000 OA
ATOM     33  H   UNL     1      24.964  -2.307 191.058  0.00  0.00    +0.000 HD
ENDBRANCH  13  32
BRANCH  19  34
ATOM     34  O   UNL     1      16.788   1.294 190.935  0.00  0.00    +0.000 OA
ATOM     35  H   UNL     1      16.375   1.379 191.819  0.00  0.00    +0.000 HD
ENDBRANCH  19  34
BRANCH  21  36
ATOM     36  O   UNL     1      17.787   1.912 188.570  0.00  0.00    +0.000 OA
ATOM     37  C   UNL     1      18.354   2.432 187.393  0.00  0.00    +0.000 C 
ENDBRANCH  21  36
BRANCH  20  38
ATOM     38  O   UNL     1      24.819   2.578 188.417  0.00  0.00    +0.000 OA
BRANCH  38  40
ATOM     39  O   UNL     1      25.060   4.895 188.454  0.00  0.00    +0.000 OA
ATOM     40  C   UNL     1      25.451   3.758 188.643  0.00  0.00    +0.000 C 
ATOM     41  C   UNL     1      26.849   3.640 189.127  0.00  0.00    +0.000 C 
ENDBRANCH  38  40
ENDBRANCH  20  38
BRANCH   6  42
ATOM     42  C   UNL     1      19.654  -0.379 196.416  0.00  0.00    +0.000 C 
BRANCH  42  44
ATOM     43  O   UNL     1      20.287  -0.965 198.792  0.00  0.00    +0.000 OA
ATOM     44  C   UNL     1      20.520  -0.168 197.605  0.00  0.00    +0.000 C 
ATOM     45  C   UNL     1      21.300  -1.350 197.958  0.00  0.00    +0.000 C 
ATOM     46  C   UNL     1      20.864   1.296 198.037  0.00  0.00    +0.000 C 
BRANCH  45  47
ATOM     47  C   UNL     1      22.631  -1.316 198.485  0.00  0.00    +0.000 C 
ATOM     48  C   UNL     1      22.859  -1.059 199.953  0.00  0.00    +0.000 C 
BRANCH  47  49
ATOM     49  C   UNL     1      23.693  -1.947 197.789  0.00  0.00    +0.000 C 
ATOM     50  C   UNL     1      24.577  -2.536 197.235  0.00  0.00    +0.000 C 
ATOM     51  C   UNL     1      25.690  -3.381 196.609  0.00  0.00    +0.000 C 
ENDBRANCH  47  49
ENDBRANCH  45  47
ENDBRANCH  42  44
BRANCH  42  52
ATOM     52  O   UNL     1      18.386  -0.939 196.504  0.00  0.00    +0.000 OA
ATOM     53  H   UNL     1      18.264  -1.446 197.332  0.00  0.00    +0.000 HD
ENDBRANCH  42  52
ENDBRANCH   6  42
TORSDOF 12
ENDMDL
MODEL 4
REMARK VINA RESULT:      -9.8      2.685      8.826
REMARK  Name = 101808842_CandidaspongiolideB.pdbqt.pdb
REMARK  12 active torsions:
REMARK  status: ('A' for Active; 'I' for Inactive)
REMARK    1  A    between atoms: C_6  and  C_42
REMARK    2  A    between atoms: C_7  and  O_28
REMARK    3  A    between atoms: C_10  and  O_30
REMARK    4  A    between atoms: C_13  and  O_32
REMARK    5  A    between atoms: C_19  and  O_34
REMARK    6  A    between atoms: C_20  and  O_38
REMARK    7  A    between atoms: C_21  and  O_36
REMARK    8  A    between atoms: O_38  and  C_40
REMARK    9  A    between atoms: C_42  and  C_44
REMARK   10  A    between atoms: C_42  and  O_52
REMARK   11  A    between atoms: C_45  and  C_47
REMARK   12  A    between atoms: C_47  and  C_49
REMARK                            x       y       z     vdW  Elec       q    Type
REMARK                         _______ _______ _______ _____ _____    ______ ____
ROOT
ATOM      1  O   UNL     1      18.365   1.779 189.191  0.00  0.00    +0.000 OA
ATOM      2  O   UNL     1      22.542   1.278 194.624  0.00  0.00    +0.000 OA
ATOM      3  O   UNL     1      20.100  -0.539 191.666  0.00  0.00    +0.000 OA
ATOM      4  O   UNL     1      23.208   1.143 192.419  0.00  0.00    +0.000 OA
ATOM      5  O   UNL     1      23.398   3.725 190.983  0.00  0.00    +0.000 OA
ATOM      6  C   UNL     1      20.069   0.354 193.830  0.00  0.00    +0.000 C 
ATOM      7  C   UNL     1      19.074   1.692 191.853  0.00  0.00    +0.000 C 
ATOM      8  C   UNL     1      19.778   0.419 192.370  0.00  0.00    +0.000 C 
ATOM      9  C   UNL     1      21.346   0.794 194.282  0.00  0.00    +0.000 C 
ATOM     10  C   UNL     1      20.109   2.775 191.488  0.00  0.00    +0.000 C 
ATOM     11  C   UNL     1      20.064   3.229 190.136  0.00  0.00    +0.000 C 
ATOM     12  C   UNL     1      18.460   1.482 190.504  0.00  0.00    +0.000 C 
ATOM     13  C   UNL     1      19.299   2.896 188.894  0.00  0.00    +0.000 C 
ATOM     14  C   UNL     1      20.243   2.480 187.756  0.00  0.00    +0.000 C 
ATOM     15  C   UNL     1      21.611   2.167 188.011  0.00  0.00    +0.000 C 
ATOM     16  C   UNL     1      19.903   2.456 186.269  0.00  0.00    +0.000 C 
ATOM     17  C   UNL     1      23.379   1.504 193.574  0.00  0.00    +0.000 C 
ATOM     18  C   UNL     1      22.849   1.925 188.313  0.00  0.00    +0.000 C 
ATOM     19  C   UNL     1      24.522   2.348 193.996  0.00  0.00    +0.000 C 
ATOM     20  C   UNL     1      23.872   2.938 188.195  0.00  0.00    +0.000 C 
ATOM     21  C   UNL     1      25.324   3.069 193.027  0.00  0.00    +0.000 C 
ATOM     22  C   UNL     1      24.893   3.257 189.190  0.00  0.00    +0.000 C 
ATOM     23  C   UNL     1      25.493   2.744 191.618  0.00  0.00    +0.000 C 
ATOM     24  C   UNL     1      24.495   3.274 190.637  0.00  0.00    +0.000 C 
ATOM     25  C   UNL     1      23.132   0.608 188.978  0.00  0.00    +0.000 C 
ATOM     26  C   UNL     1      26.148   4.018 188.766  0.00  0.00    +0.000 C 
ATOM     27  C   UNL     1      26.519   1.684 191.232  0.00  0.00    +0.000 C 
ENDROOT
BRANCH   7  28
ATOM     28  O   UNL     1      18.104   2.258 192.711  0.00  0.00    +0.000 OA
ATOM     29  H   UNL     1      17.246   1.883 192.440  0.00  0.00    +0.000 HD
ENDBRANCH   7  28
BRANCH  10  30
ATOM     30  O   UNL     1      21.001   3.284 192.396  0.00  0.00    +0.000 OA
ATOM     31  H   UNL     1      21.282   4.190 192.148  0.00  0.00    +0.000 HD
ENDBRANCH  10  30
BRANCH  13  32
ATOM     32  O   UNL     1      18.534   4.043 188.533  0.00  0.00    +0.000 OA
ATOM     33  H   UNL     1      17.613   3.741 188.485  0.00  0.00    +0.000 HD
ENDBRANCH  13  32
BRANCH  19  34
ATOM     34  O   UNL     1      24.792   2.605 195.327  0.00  0.00    +0.000 OA
ATOM     35  H   UNL     1      25.740   2.778 195.501  0.00  0.00    +0.000 HD
ENDBRANCH  19  34
BRANCH  21  36
ATOM     36  O   UNL     1      26.277   3.911 193.577  0.00  0.00    +0.000 OA
ATOM     37  C   UNL     1      27.506   3.246 193.727  0.00  0.00    +0.000 C 
ENDBRANCH  21  36
BRANCH  20  38
ATOM     38  O   UNL     1      24.051   3.451 186.888  0.00  0.00    +0.000 OA
BRANCH  38  40
ATOM     39  O   UNL     1      23.075   5.468 187.530  0.00  0.00    +0.000 OA
ATOM     40  C   UNL     1      23.346   4.600 186.720  0.00  0.00    +0.000 C 
ATOM     41  C   UNL     1      22.764   4.790 185.369  0.00  0.00    +0.000 C 
ENDBRANCH  38  40
ENDBRANCH  20  38
BRANCH   6  42
ATOM     42  C   UNL     1      19.142  -0.349 194.688  0.00  0.00    +0.000 C 
BRANCH  42  44
ATOM     43  O   UNL     1      19.633   0.833 196.868  0.00  0.00    +0.000 OA
ATOM     44  C   UNL     1      19.310  -0.391 196.165  0.00  0.00    +0.000 C 
ATOM     45  C   UNL     1      18.328   0.424 196.872  0.00  0.00    +0.000 C 
ATOM     46  C   UNL     1      20.123  -1.569 196.797  0.00  0.00    +0.000 C 
BRANCH  45  47
ATOM     47  C   UNL     1      17.753   0.084 198.138  0.00  0.00    +0.000 C 
ATOM     48  C   UNL     1      18.226   0.769 199.395  0.00  0.00    +0.000 C 
BRANCH  47  49
ATOM     49  C   UNL     1      16.475  -0.526 198.203  0.00  0.00    +0.000 C 
ATOM     50  C   UNL     1      15.387  -1.029 198.191  0.00  0.00    +0.000 C 
ATOM     51  C   UNL     1      13.982  -1.626 198.062  0.00  0.00    +0.000 C 
ENDBRANCH  47  49
ENDBRANCH  45  47
ENDBRANCH  42  44
BRANCH  42  52
ATOM     52  O   UNL     1      18.072  -0.952 194.040  0.00  0.00    +0.000 OA
ATOM     53  H   UNL     1      17.528  -1.492 194.650  0.00  0.00    +0.000 HD
ENDBRANCH  42  52
ENDBRANCH   6  42
TORSDOF 12
ENDMDL
MODEL 5
REMARK VINA RESULT:      -9.7      2.471      8.924
REMARK  Name = 101808842_CandidaspongiolideB.pdbqt.pdb
REMARK  12 active torsions:
REMARK  status: ('A' for Active; 'I' for Inactive)
REMARK    1  A    between atoms: C_6  and  C_42
REMARK    2  A    between atoms: C_7  and  O_28
REMARK    3  A    between atoms: C_10  and  O_30
REMARK    4  A    between atoms: C_13  and  O_32
REMARK    5  A    between atoms: C_19  and  O_34
REMARK    6  A    between atoms: C_20  and  O_38
REMARK    7  A    between atoms: C_21  and  O_36
REMARK    8  A    between atoms: O_38  and  C_40
REMARK    9  A    between atoms: C_42  and  C_44
REMARK   10  A    between atoms: C_42  and  O_52
REMARK   11  A    between atoms: C_45  and  C_47
REMARK   12  A    between atoms: C_47  and  C_49
REMARK                            x       y       z     vdW  Elec       q    Type
REMARK                         _______ _______ _______ _____ _____    ______ ____
ROOT
ATOM      1  O   UNL     1      24.861  -0.810 194.255  0.00  0.00    +0.000 OA
ATOM      2  O   UNL     1      18.241   0.616 193.092  0.00  0.00    +0.000 OA
ATOM      3  O   UNL     1      21.735   0.995 195.471  0.00  0.00    +0.000 OA
ATOM      4  O   UNL     1      20.019   1.930 192.432  0.00  0.00    +0.000 OA
ATOM      5  O   UNL     1      21.489   0.983 190.043  0.00  0.00    +0.000 OA
ATOM      6  C   UNL     1      19.821  -0.314 195.151  0.00  0.00    +0.000 C 
ATOM      7  C   UNL     1      22.129  -1.163 194.352  0.00  0.00    +0.000 C 
ATOM      8  C   UNL     1      21.284  -0.061 195.026  0.00  0.00    +0.000 C 
ATOM      9  C   UNL     1      18.963   0.174 194.124  0.00  0.00    +0.000 C 
ATOM     10  C   UNL     1      22.170  -0.959 192.825  0.00  0.00    +0.000 C 
ATOM     11  C   UNL     1      23.474  -0.805 192.266  0.00  0.00    +0.000 C 
ATOM     12  C   UNL     1      23.588  -1.011 194.655  0.00  0.00    +0.000 C 
ATOM     13  C   UNL     1      24.880  -0.722 192.772  0.00  0.00    +0.000 C 
ATOM     14  C   UNL     1      25.545   0.596 192.349  0.00  0.00    +0.000 C 
ATOM     15  C   UNL     1      24.773   1.677 191.828  0.00  0.00    +0.000 C 
ATOM     16  C   UNL     1      27.043   0.878 192.319  0.00  0.00    +0.000 C 
ATOM     17  C   UNL     1      18.917   1.436 192.241  0.00  0.00    +0.000 C 
ATOM     18  C   UNL     1      24.012   2.605 191.337  0.00  0.00    +0.000 C 
ATOM     19  C   UNL     1      18.171   1.593 190.970  0.00  0.00    +0.000 C 
ATOM     20  C   UNL     1      23.824   2.758 189.913  0.00  0.00    +0.000 C 
ATOM     21  C   UNL     1      18.828   2.058 189.764  0.00  0.00    +0.000 C 
ATOM     22  C   UNL     1      22.549   2.952 189.224  0.00  0.00    +0.000 C 
ATOM     23  C   UNL     1      20.039   2.860 189.683  0.00  0.00    +0.000 C 
ATOM     24  C   UNL     1      21.362   2.161 189.690  0.00  0.00    +0.000 C 
ATOM     25  C   UNL     1      23.182   3.383 192.319  0.00  0.00    +0.000 C 
ATOM     26  C   UNL     1      22.536   3.529 187.810  0.00  0.00    +0.000 C 
ATOM     27  C   UNL     1      19.925   4.372 189.846  0.00  0.00    +0.000 C 
ENDROOT
BRANCH   7  28
ATOM     28  O   UNL     1      21.746  -2.496 194.626  0.00  0.00    +0.000 OA
ATOM     29  H   UNL     1      21.572  -2.541 195.584  0.00  0.00    +0.000 HD
ENDBRANCH   7  28
BRANCH  10  30
ATOM     30  O   UNL     1      21.041  -0.945 192.048  0.00  0.00    +0.000 OA
ATOM     31  H   UNL     1      21.126  -0.305 191.310  0.00  0.00    +0.000 HD
ENDBRANCH  10  30
BRANCH  13  32
ATOM     32  O   UNL     1      25.594  -1.844 192.260  0.00  0.00    +0.000 OA
ATOM     33  H   UNL     1      26.522  -1.701 192.507  0.00  0.00    +0.000 HD
ENDBRANCH  13  32
BRANCH  19  34
ATOM     34  O   UNL     1      16.862   1.172 190.832  0.00  0.00    +0.000 OA
ATOM     35  H   UNL     1      16.479   1.385 189.956  0.00  0.00    +0.000 HD
ENDBRANCH  19  34
BRANCH  21  36
ATOM     36  O   UNL     1      18.034   2.036 188.629  0.00  0.00    +0.000 OA
ATOM     37  C   UNL     1      18.754   2.477 187.505  0.00  0.00    +0.000 C 
ENDBRANCH  21  36
BRANCH  20  38
ATOM     38  O   UNL     1      25.007   3.021 189.182  0.00  0.00    +0.000 OA
BRANCH  38  40
ATOM     39  O   UNL     1      24.984   0.896 188.226  0.00  0.00    +0.000 OA
ATOM     40  C   UNL     1      25.541   1.870 188.699  0.00  0.00    +0.000 C 
ATOM     41  C   UNL     1      27.014   1.755 188.832  0.00  0.00    +0.000 C 
ENDBRANCH  38  40
ENDBRANCH  20  38
BRANCH   6  42
ATOM     42  C   UNL     1      19.315  -0.842 196.398  0.00  0.00    +0.000 C 
BRANCH  42  44
ATOM     43  O   UNL     1      18.461  -0.540 198.759  0.00  0.00    +0.000 OA
ATOM     44  C   UNL     1      18.791   0.041 197.474  0.00  0.00    +0.000 C 
ATOM     45  C   UNL     1      19.666   0.097 198.640  0.00  0.00    +0.000 C 
ATOM     46  C   UNL     1      17.710   1.112 197.109  0.00  0.00    +0.000 C 
BRANCH  45  47
ATOM     47  C   UNL     1      19.870   1.264 199.445  0.00  0.00    +0.000 C 
ATOM     48  C   UNL     1      18.883   1.622 200.526  0.00  0.00    +0.000 C 
BRANCH  47  49
ATOM     49  C   UNL     1      21.164   1.831 199.566  0.00  0.00    +0.000 C 
ATOM     50  C   UNL     1      22.230   2.372 199.657  0.00  0.00    +0.000 C 
ATOM     51  C   UNL     1      23.537   3.166 199.732  0.00  0.00    +0.000 C 
ENDBRANCH  47  49
ENDBRANCH  45  47
ENDBRANCH  42  44
BRANCH  42  52
ATOM     52  O   UNL     1      19.325  -2.226 196.506  0.00  0.00    +0.000 OA
ATOM     53  H   UNL     1      18.490  -2.627 196.190  0.00  0.00    +0.000 HD
ENDBRANCH  42  52
ENDBRANCH   6  42
TORSDOF 12
ENDMDL
MODEL 6
REMARK VINA RESULT:      -9.7      1.964      5.462
REMARK  Name = 101808842_CandidaspongiolideB.pdbqt.pdb
REMARK  12 active torsions:
REMARK  status: ('A' for Active; 'I' for Inactive)
REMARK    1  A    between atoms: C_6  and  C_42
REMARK    2  A    between atoms: C_7  and  O_28
REMARK    3  A    between atoms: C_10  and  O_30
REMARK    4  A    between atoms: C_13  and  O_32
REMARK    5  A    between atoms: C_19  and  O_34
REMARK    6  A    between atoms: C_20  and  O_38
REMARK    7  A    between atoms: C_21  and  O_36
REMARK    8  A    between atoms: O_38  and  C_40
REMARK    9  A    between atoms: C_42  and  C_44
REMARK   10  A    between atoms: C_42  and  O_52
REMARK   11  A    between atoms: C_45  and  C_47
REMARK   12  A    between atoms: C_47  and  C_49
REMARK                            x       y       z     vdW  Elec       q    Type
REMARK                         _______ _______ _______ _____ _____    ______ ____
ROOT
ATOM      1  O   UNL     1      25.566   0.276 194.781  0.00  0.00    +0.000 OA
ATOM      2  O   UNL     1      26.988   3.729 189.013  0.00  0.00    +0.000 OA
ATOM      3  O   UNL     1      27.357   0.253 191.420  0.00  0.00    +0.000 OA
ATOM      4  O   UNL     1      25.239   2.248 189.277  0.00  0.00    +0.000 OA
ATOM      5  O   UNL     1      22.899   3.289 190.764  0.00  0.00    +0.000 OA
ATOM      6  C   UNL     1      28.338   2.329 190.966  0.00  0.00    +0.000 C 
ATOM      7  C   UNL     1      26.943   1.988 193.117  0.00  0.00    +0.000 C 
ATOM      8  C   UNL     1      27.519   1.411 191.806  0.00  0.00    +0.000 C 
ATOM      9  C   UNL     1      27.687   3.052 189.926  0.00  0.00    +0.000 C 
ATOM     10  C   UNL     1      25.574   2.650 192.864  0.00  0.00    +0.000 C 
ATOM     11  C   UNL     1      24.490   2.114 193.622  0.00  0.00    +0.000 C 
ATOM     12  C   UNL     1      26.517   0.908 194.063  0.00  0.00    +0.000 C 
ATOM     13  C   UNL     1      24.281   1.000 194.598  0.00  0.00    +0.000 C 
ATOM     14  C   UNL     1      23.211   0.018 194.098  0.00  0.00    +0.000 C 
ATOM     15  C   UNL     1      22.757   0.049 192.746  0.00  0.00    +0.000 C 
ATOM     16  C   UNL     1      22.446  -0.989 194.951  0.00  0.00    +0.000 C 
ATOM     17  C   UNL     1      25.714   3.284 188.834  0.00  0.00    +0.000 C 
ATOM     18  C   UNL     1      22.372   0.154 191.512  0.00  0.00    +0.000 C 
ATOM     19  C   UNL     1      24.917   4.282 188.084  0.00  0.00    +0.000 C 
ATOM     20  C   UNL     1      21.206   0.922 191.143  0.00  0.00    +0.000 C 
ATOM     21  C   UNL     1      23.467   4.261 188.109  0.00  0.00    +0.000 C 
ATOM     22  C   UNL     1      21.115   1.885 190.048  0.00  0.00    +0.000 C 
ATOM     23  C   UNL     1      22.615   3.114 188.388  0.00  0.00    +0.000 C 
ATOM     24  C   UNL     1      22.276   2.806 189.812  0.00  0.00    +0.000 C 
ATOM     25  C   UNL     1      23.305  -0.392 190.469  0.00  0.00    +0.000 C 
ATOM     26  C   UNL     1      19.743   2.281 189.503  0.00  0.00    +0.000 C 
ATOM     27  C   UNL     1      22.312   2.137 187.257  0.00  0.00    +0.000 C 
ENDROOT
BRANCH   7  28
ATOM     28  O   UNL     1      27.770   2.900 193.811  0.00  0.00    +0.000 OA
ATOM     29  H   UNL     1      28.675   2.760 193.477  0.00  0.00    +0.000 HD
ENDBRANCH   7  28
BRANCH  10  30
ATOM     30  O   UNL     1      25.404   3.691 191.989  0.00  0.00    +0.000 OA
ATOM     31  H   UNL     1      24.828   3.434 191.238  0.00  0.00    +0.000 HD
ENDBRANCH  10  30
BRANCH  13  32
ATOM     32  O   UNL     1      23.905   1.578 195.845  0.00  0.00    +0.000 OA
ATOM     33  H   UNL     1      24.159   0.931 196.522  0.00  0.00    +0.000 HD
ENDBRANCH  13  32
BRANCH  19  34
ATOM     34  O   UNL     1      25.503   5.359 187.447  0.00  0.00    +0.000 OA
ATOM     35  H   UNL     1      26.429   5.515 187.725  0.00  0.00    +0.000 HD
ENDBRANCH  19  34
BRANCH  21  36
ATOM     36  O   UNL     1      22.862   5.326 187.462  0.00  0.00    +0.000 OA
ATOM     37  C   UNL     1      21.663   5.686 188.102  0.00  0.00    +0.000 C 
ENDBRANCH  21  36
BRANCH  20  38
ATOM     38  O   UNL     1      19.994   0.477 191.724  0.00  0.00    +0.000 OA
BRANCH  38  40
ATOM     39  O   UNL     1      20.226   2.191 193.286  0.00  0.00    +0.000 OA
ATOM     40  C   UNL     1      19.724   1.166 192.863  0.00  0.00    +0.000 C 
ATOM     41  C   UNL     1      18.718   0.539 193.755  0.00  0.00    +0.000 C 
ENDBRANCH  38  40
ENDBRANCH  20  38
BRANCH   6  42
ATOM     42  C   UNL     1      29.778   2.283 191.095  0.00  0.00    +0.000 C 
BRANCH  42  44
ATOM     43  O   UNL     1      32.055   3.372 190.946  0.00  0.00    +0.000 OA
ATOM     44  C   UNL     1      30.615   3.509 191.031  0.00  0.00    +0.000 C 
ATOM     45  C   UNL     1      31.371   3.617 189.787  0.00  0.00    +0.000 C 
ATOM     46  C   UNL     1      30.275   4.704 191.982  0.00  0.00    +0.000 C 
BRANCH  45  47
ATOM     47  C   UNL     1      31.649   4.848 189.111  0.00  0.00    +0.000 C 
ATOM     48  C   UNL     1      33.024   5.463 189.190  0.00  0.00    +0.000 C 
BRANCH  47  49
ATOM     49  C   UNL     1      30.838   5.270 188.028  0.00  0.00    +0.000 C 
ATOM     50  C   UNL     1      30.198   5.673 187.098  0.00  0.00    +0.000 C 
ATOM     51  C   UNL     1      29.460   6.283 185.903  0.00  0.00    +0.000 C 
ENDBRANCH  47  49
ENDBRANCH  45  47
ENDBRANCH  42  44
BRANCH  42  52
ATOM     52  O   UNL     1      30.315   1.021 191.315  0.00  0.00    +0.000 OA
ATOM     53  H   UNL     1      30.487   0.543 190.478  0.00  0.00    +0.000 HD
ENDBRANCH  42  52
ENDBRANCH   6  42
TORSDOF 12
ENDMDL
MODEL 7
REMARK VINA RESULT:      -9.6      1.904      3.229
REMARK  Name = 101808842_CandidaspongiolideB.pdbqt.pdb
REMARK  12 active torsions:
REMARK  status: ('A' for Active; 'I' for Inactive)
REMARK    1  A    between atoms: C_6  and  C_42
REMARK    2  A    between atoms: C_7  and  O_28
REMARK    3  A    between atoms: C_10  and  O_30
REMARK    4  A    between atoms: C_13  and  O_32
REMARK    5  A    between atoms: C_19  and  O_34
REMARK    6  A    between atoms: C_20  and  O_38
REMARK    7  A    between atoms: C_21  and  O_36
REMARK    8  A    between atoms: O_38  and  C_40
REMARK    9  A    between atoms: C_42  and  C_44
REMARK   10  A    between atoms: C_42  and  O_52
REMARK   11  A    between atoms: C_45  and  C_47
REMARK   12  A    between atoms: C_47  and  C_49
REMARK                            x       y       z     vdW  Elec       q    Type
REMARK                         _______ _______ _______ _____ _____    ______ ____
ROOT
ATOM      1  O   UNL     1      23.444   2.926 188.084  0.00  0.00    +0.000 OA
ATOM      2  O   UNL     1      25.931   0.210 193.885  0.00  0.00    +0.000 OA
ATOM      3  O   UNL     1      25.457   3.514 191.263  0.00  0.00    +0.000 OA
ATOM      4  O   UNL     1      23.921   1.328 193.696  0.00  0.00    +0.000 OA
ATOM      5  O   UNL     1      21.707  -0.222 192.488  0.00  0.00    +0.000 OA
ATOM      6  C   UNL     1      26.840   1.687 191.743  0.00  0.00    +0.000 C 
ATOM      7  C   UNL     1      25.242   1.615 189.711  0.00  0.00    +0.000 C 
ATOM      8  C   UNL     1      25.801   2.379 190.930  0.00  0.00    +0.000 C 
ATOM      9  C   UNL     1      26.418   0.935 192.876  0.00  0.00    +0.000 C 
ATOM     10  C   UNL     1      24.044   0.737 190.122  0.00  0.00    +0.000 C 
ATOM     11  C   UNL     1      22.823   1.012 189.437  0.00  0.00    +0.000 C 
ATOM     12  C   UNL     1      24.550   2.530 188.747  0.00  0.00    +0.000 C 
ATOM     13  C   UNL     1      22.335   1.997 188.422  0.00  0.00    +0.000 C 
ATOM     14  C   UNL     1      21.144   2.803 188.960  0.00  0.00    +0.000 C 
ATOM     15  C   UNL     1      20.810   2.788 190.347  0.00  0.00    +0.000 C 
ATOM     16  C   UNL     1      20.141   3.592 188.124  0.00  0.00    +0.000 C 
ATOM     17  C   UNL     1      24.614   0.430 194.152  0.00  0.00    +0.000 C 
ATOM     18  C   UNL     1      20.549   2.705 191.615  0.00  0.00    +0.000 C 
ATOM     19  C   UNL     1      24.077  -0.639 195.026  0.00  0.00    +0.000 C 
ATOM     20  C   UNL     1      19.578   1.767 192.129  0.00  0.00    +0.000 C 
ATOM     21  C   UNL     1      22.651  -0.882 195.131  0.00  0.00    +0.000 C 
ATOM     22  C   UNL     1      19.754   0.885 193.281  0.00  0.00    +0.000 C 
ATOM     23  C   UNL     1      21.582   0.069 194.866  0.00  0.00    +0.000 C 
ATOM     24  C   UNL     1      21.081   0.208 193.462  0.00  0.00    +0.000 C 
ATOM     25  C   UNL     1      21.443   3.484 192.537  0.00  0.00    +0.000 C 
ATOM     26  C   UNL     1      18.527   0.287 193.968  0.00  0.00    +0.000 C 
ATOM     27  C   UNL     1      21.192   1.054 195.963  0.00  0.00    +0.000 C 
ENDROOT
BRANCH   7  28
ATOM     28  O   UNL     1      26.168   0.820 188.997  0.00  0.00    +0.000 OA
ATOM     29  H   UNL     1      25.644   0.265 188.391  0.00  0.00    +0.000 HD
ENDBRANCH   7  28
BRANCH  10  30
ATOM     30  O   UNL     1      24.139  -0.252 191.067  0.00  0.00    +0.000 OA
ATOM     31  H   UNL     1      23.526  -0.991 190.870  0.00  0.00    +0.000 HD
ENDBRANCH  10  30
BRANCH  13  32
ATOM     32  O   UNL     1      21.977   1.273 187.248  0.00  0.00    +0.000 OA
ATOM     33  H   UNL     1      21.953   0.339 187.512  0.00  0.00    +0.000 HD
ENDBRANCH  13  32
BRANCH  19  34
ATOM     34  O   UNL     1      24.901  -1.545 195.668  0.00  0.00    +0.000 OA
ATOM     35  H   UNL     1      25.529  -1.121 196.290  0.00  0.00    +0.000 HD
ENDBRANCH  19  34
BRANCH  21  36
ATOM     36  O   UNL     1      22.308  -1.990 195.888  0.00  0.00    +0.000 OA
ATOM     37  C   UNL     1      21.033  -2.466 195.532  0.00  0.00    +0.000 C 
ENDBRANCH  21  36
BRANCH  20  38
ATOM     38  O   UNL     1      18.263   1.943 191.636  0.00  0.00    +0.000 OA
BRANCH  38  40
ATOM     39  O   UNL     1      18.404  -0.040 190.419  0.00  0.00    +0.000 OA
ATOM     40  C   UNL     1      18.023   1.102 190.596  0.00  0.00    +0.000 C 
ATOM     41  C   UNL     1      17.236   1.688 189.483  0.00  0.00    +0.000 C 
ENDBRANCH  38  40
ENDBRANCH  20  38
BRANCH   6  42
ATOM     42  C   UNL     1      28.231   1.983 191.482  0.00  0.00    +0.000 C 
BRANCH  42  44
ATOM     43  O   UNL     1      30.611   1.198 191.820  0.00  0.00    +0.000 OA
ATOM     44  C   UNL     1      29.260   0.914 191.382  0.00  0.00    +0.000 C 
ATOM     45  C   UNL     1      29.795   0.517 192.681  0.00  0.00    +0.000 C 
ATOM     46  C   UNL     1      29.320   0.046 190.082  0.00  0.00    +0.000 C 
BRANCH  45  47
ATOM     47  C   UNL     1      30.178  -0.819 193.025  0.00  0.00    +0.000 C 
ATOM     48  C   UNL     1      31.636  -1.198 193.089  0.00  0.00    +0.000 C 
BRANCH  47  49
ATOM     49  C   UNL     1      29.282  -1.660 193.733  0.00  0.00    +0.000 C 
ATOM     50  C   UNL     1      28.492  -2.382 194.272  0.00  0.00    +0.000 C 
ATOM     51  C   UNL     1      27.417  -3.302 194.857  0.00  0.00    +0.000 C 
ENDBRANCH  47  49
ENDBRANCH  45  47
ENDBRANCH  42  44
BRANCH  42  52
ATOM     52  O   UNL     1      28.530   3.327 191.301  0.00  0.00    +0.000 OA
ATOM     53  H   UNL     1      28.608   3.563 190.354  0.00  0.00    +0.000 HD
ENDBRANCH  42  52
ENDBRANCH   6  42
TORSDOF 12
ENDMDL
MODEL 8
REMARK VINA RESULT:      -9.4      2.039      2.574
REMARK  Name = 101808842_CandidaspongiolideB.pdbqt.pdb
REMARK  12 active torsions:
REMARK  status: ('A' for Active; 'I' for Inactive)
REMARK    1  A    between atoms: C_6  and  C_42
REMARK    2  A    between atoms: C_7  and  O_28
REMARK    3  A    between atoms: C_10  and  O_30
REMARK    4  A    between atoms: C_13  and  O_32
REMARK    5  A    between atoms: C_19  and  O_34
REMARK    6  A    between atoms: C_20  and  O_38
REMARK    7  A    between atoms: C_21  and  O_36
REMARK    8  A    between atoms: O_38  and  C_40
REMARK    9  A    between atoms: C_42  and  C_44
REMARK   10  A    between atoms: C_42  and  O_52
REMARK   11  A    between atoms: C_45  and  C_47
REMARK   12  A    between atoms: C_47  and  C_49
REMARK                            x       y       z     vdW  Elec       q    Type
REMARK                         _______ _______ _______ _____ _____    ______ ____
ROOT
ATOM      1  O   UNL     1      24.140   2.824 188.151  0.00  0.00    +0.000 OA
ATOM      2  O   UNL     1      25.884  -0.253 194.042  0.00  0.00    +0.000 OA
ATOM      3  O   UNL     1      25.952   3.135 191.486  0.00  0.00    +0.000 OA
ATOM      4  O   UNL     1      24.019   1.071 193.736  0.00  0.00    +0.000 OA
ATOM      5  O   UNL     1      21.758  -0.216 192.323  0.00  0.00    +0.000 OA
ATOM      6  C   UNL     1      27.101   1.166 192.016  0.00  0.00    +0.000 C 
ATOM      7  C   UNL     1      25.665   1.301 189.869  0.00  0.00    +0.000 C 
ATOM      8  C   UNL     1      26.203   1.978 191.147  0.00  0.00    +0.000 C 
ATOM      9  C   UNL     1      26.519   0.439 193.093  0.00  0.00    +0.000 C 
ATOM     10  C   UNL     1      24.355   0.543 190.166  0.00  0.00    +0.000 C 
ATOM     11  C   UNL     1      23.225   0.957 189.399  0.00  0.00    +0.000 C 
ATOM     12  C   UNL     1      25.145   2.302 188.883  0.00  0.00    +0.000 C 
ATOM     13  C   UNL     1      22.919   2.008 188.379  0.00  0.00    +0.000 C 
ATOM     14  C   UNL     1      21.778   2.922 188.850  0.00  0.00    +0.000 C 
ATOM     15  C   UNL     1      21.339   2.914 190.207  0.00  0.00    +0.000 C 
ATOM     16  C   UNL     1      20.928   3.828 187.964  0.00  0.00    +0.000 C 
ATOM     17  C   UNL     1      24.580   0.097 194.217  0.00  0.00    +0.000 C 
ATOM     18  C   UNL     1      20.975   2.832 191.449  0.00  0.00    +0.000 C 
ATOM     19  C   UNL     1      23.871  -0.928 195.018  0.00  0.00    +0.000 C 
ATOM     20  C   UNL     1      19.877   1.990 191.864  0.00  0.00    +0.000 C 
ATOM     21  C   UNL     1      22.425  -1.024 195.010  0.00  0.00    +0.000 C 
ATOM     22  C   UNL     1      19.873   1.071 193.000  0.00  0.00    +0.000 C 
ATOM     23  C   UNL     1      21.481   0.038 194.693  0.00  0.00    +0.000 C 
ATOM     24  C   UNL     1      21.106   0.257 193.260  0.00  0.00    +0.000 C 
ATOM     25  C   UNL     1      21.870   3.495 192.457  0.00  0.00    +0.000 C 
ATOM     26  C   UNL     1      18.542   0.590 193.577  0.00  0.00    +0.000 C 
ATOM     27  C   UNL     1      21.110   1.035 195.785  0.00  0.00    +0.000 C 
ENDROOT
BRANCH   7  28
ATOM     28  O   UNL     1      26.556   0.429 189.204  0.00  0.00    +0.000 OA
ATOM     29  H   UNL     1      26.558   0.698 188.268  0.00  0.00    +0.000 HD
ENDBRANCH   7  28
BRANCH  10  30
ATOM     30  O   UNL     1      24.277  -0.469 191.087  0.00  0.00    +0.000 OA
ATOM     31  H   UNL     1      23.876  -0.157 191.925  0.00  0.00    +0.000 HD
ENDBRANCH  10  30
BRANCH  13  32
ATOM     32  O   UNL     1      22.580   1.349 187.162  0.00  0.00    +0.000 OA
ATOM     33  H   UNL     1      21.836   0.763 187.379  0.00  0.00    +0.000 HD
ENDBRANCH  13  32
BRANCH  19  34
ATOM     34  O   UNL     1      24.547  -1.927 195.694  0.00  0.00    +0.000 OA
ATOM     35  H   UNL     1      25.176  -2.419 195.126  0.00  0.00    +0.000 HD
ENDBRANCH  19  34
BRANCH  21  36
ATOM     36  O   UNL     1      21.913  -2.106 195.708  0.00  0.00    +0.000 OA
ATOM     37  C   UNL     1      20.622  -2.430 195.254  0.00  0.00    +0.000 C 
ENDBRANCH  21  36
BRANCH  20  38
ATOM     38  O   UNL     1      18.628   2.311 191.279  0.00  0.00    +0.000 OA
BRANCH  38  40
ATOM     39  O   UNL     1      18.377   0.226 190.267  0.00  0.00    +0.000 OA
ATOM     40  C   UNL     1      18.327   1.443 190.279  0.00  0.00    +0.000 C 
ATOM     41  C   UNL     1      17.948   2.074 188.991  0.00  0.00    +0.000 C 
ENDBRANCH  38  40
ENDBRANCH  20  38
BRANCH   6  42
ATOM     42  C   UNL     1      28.531   1.321 191.867  0.00  0.00    +0.000 C 
BRANCH  42  44
ATOM     43  O   UNL     1      29.393  -0.910 192.688  0.00  0.00    +0.000 OA
ATOM     44  C   UNL     1      29.498   0.535 192.678  0.00  0.00    +0.000 C 
ATOM     45  C   UNL     1      30.333  -0.347 191.869  0.00  0.00    +0.000 C 
ATOM     46  C   UNL     1      29.846   1.028 194.121  0.00  0.00    +0.000 C 
BRANCH  45  47
ATOM     47  C   UNL     1      31.706  -0.644 192.148  0.00  0.00    +0.000 C 
ATOM     48  C   UNL     1      32.064  -1.775 193.078  0.00  0.00    +0.000 C 
BRANCH  47  49
ATOM     49  C   UNL     1      32.725  -0.222 191.257  0.00  0.00    +0.000 C 
ATOM     50  C   UNL     1      33.540   0.135 190.454  0.00  0.00    +0.000 C 
ATOM     51  C   UNL     1      34.497   0.570 189.341  0.00  0.00    +0.000 C 
ENDBRANCH  47  49
ENDBRANCH  45  47
ENDBRANCH  42  44
BRANCH  42  52
ATOM     52  O   UNL     1      28.933   2.229 190.896  0.00  0.00    +0.000 OA
ATOM     53  H   UNL     1      28.473   3.088 190.983  0.00  0.00    +0.000 HD
ENDBRANCH  42  52
ENDBRANCH   6  42
TORSDOF 12
ENDMDL
MODEL 9
REMARK VINA RESULT:      -9.2      2.230      5.658
REMARK  Name = 101808842_CandidaspongiolideB.pdbqt.pdb
REMARK  12 active torsions:
REMARK  status: ('A' for Active; 'I' for Inactive)
REMARK    1  A    between atoms: C_6  and  C_42
REMARK    2  A    between atoms: C_7  and  O_28
REMARK    3  A    between atoms: C_10  and  O_30
REMARK    4  A    between atoms: C_13  and  O_32
REMARK    5  A    between atoms: C_19  and  O_34
REMARK    6  A    between atoms: C_20  and  O_38
REMARK    7  A    between atoms: C_21  and  O_36
REMARK    8  A    between atoms: O_38  and  C_40
REMARK    9  A    between atoms: C_42  and  C_44
REMARK   10  A    between atoms: C_42  and  O_52
REMARK   11  A    between atoms: C_45  and  C_47
REMARK   12  A    between atoms: C_47  and  C_49
REMARK                            x       y       z     vdW  Elec       q    Type
REMARK                         _______ _______ _______ _____ _____    ______ ____
ROOT
ATOM      1  O   UNL     1      26.033   0.953 195.194  0.00  0.00    +0.000 OA
ATOM      2  O   UNL     1      25.714   3.909 188.999  0.00  0.00    +0.000 OA
ATOM      3  O   UNL     1      27.075   0.788 191.535  0.00  0.00    +0.000 OA
ATOM      4  O   UNL     1      24.292   2.258 189.759  0.00  0.00    +0.000 OA
ATOM      5  O   UNL     1      22.184   3.153 191.635  0.00  0.00    +0.000 OA
ATOM      6  C   UNL     1      27.628   2.909 190.713  0.00  0.00    +0.000 C 
ATOM      7  C   UNL     1      26.772   2.633 193.138  0.00  0.00    +0.000 C 
ATOM      8  C   UNL     1      27.143   1.993 191.782  0.00  0.00    +0.000 C 
ATOM      9  C   UNL     1      26.678   3.427 189.787  0.00  0.00    +0.000 C 
ATOM     10  C   UNL     1      25.299   3.087 193.140  0.00  0.00    +0.000 C 
ATOM     11  C   UNL     1      24.485   2.505 194.158  0.00  0.00    +0.000 C 
ATOM     12  C   UNL     1      26.713   1.618 194.237  0.00  0.00    +0.000 C 
ATOM     13  C   UNL     1      24.647   1.487 195.242  0.00  0.00    +0.000 C 
ATOM     14  C   UNL     1      23.652   0.330 195.069  0.00  0.00    +0.000 C 
ATOM     15  C   UNL     1      22.928   0.156 193.852  0.00  0.00    +0.000 C 
ATOM     16  C   UNL     1      23.235  -0.666 196.146  0.00  0.00    +0.000 C 
ATOM     17  C   UNL     1      24.509   3.290 189.141  0.00  0.00    +0.000 C 
ATOM     18  C   UNL     1      22.285   0.077 192.728  0.00  0.00    +0.000 C 
ATOM     19  C   UNL     1      23.437   4.093 188.507  0.00  0.00    +0.000 C 
ATOM     20  C   UNL     1      20.968   0.648 192.565  0.00  0.00    +0.000 C 
ATOM     21  C   UNL     1      22.043   3.894 188.852  0.00  0.00    +0.000 C 
ATOM     22  C   UNL     1      20.514   1.468 191.443  0.00  0.00    +0.000 C 
ATOM     23  C   UNL     1      21.443   2.687 189.401  0.00  0.00    +0.000 C 
ATOM     24  C   UNL     1      21.454   2.495 190.886  0.00  0.00    +0.000 C 
ATOM     25  C   UNL     1      23.052  -0.458 191.552  0.00  0.00    +0.000 C 
ATOM     26  C   UNL     1      19.017   1.628 191.184  0.00  0.00    +0.000 C 
ATOM     27  C   UNL     1      21.058   1.562 188.446  0.00  0.00    +0.000 C 
ENDROOT
BRANCH   7  28
ATOM     28  O   UNL     1      27.583   3.711 193.558  0.00  0.00    +0.000 OA
ATOM     29  H   UNL     1      28.101   3.987 192.779  0.00  0.00    +0.000 HD
ENDBRANCH   7  28
BRANCH  10  30
ATOM     30  O   UNL     1      24.802   3.997 192.244  0.00  0.00    +0.000 OA
ATOM     31  H   UNL     1      24.014   3.644 191.779  0.00  0.00    +0.000 HD
ENDBRANCH  10  30
BRANCH  13  32
ATOM     32  O   UNL     1      24.456   2.146 196.491  0.00  0.00    +0.000 OA
ATOM     33  H   UNL     1      24.306   3.080 196.275  0.00  0.00    +0.000 HD
ENDBRANCH  13  32
BRANCH  19  34
ATOM     34  O   UNL     1      23.715   5.160 187.673  0.00  0.00    +0.000 OA
ATOM     35  H   UNL     1      24.675   5.299 187.533  0.00  0.00    +0.000 HD
ENDBRANCH  19  34
BRANCH  21  36
ATOM     36  O   UNL     1      21.169   4.798 188.272  0.00  0.00    +0.000 OA
ATOM     37  C   UNL     1      19.902   4.733 188.879  0.00  0.00    +0.000 C 
ENDBRANCH  21  36
BRANCH  20  38
ATOM     38  O   UNL     1      19.981   0.122 193.431  0.00  0.00    +0.000 OA
BRANCH  38  40
ATOM     39  O   UNL     1      19.481  -1.862 192.316  0.00  0.00    +0.000 OA
ATOM     40  C   UNL     1      19.870  -1.223 193.276  0.00  0.00    +0.000 C 
ATOM     41  C   UNL     1      20.208  -2.025 194.477  0.00  0.00    +0.000 C 
ENDBRANCH  38  40
ENDBRANCH  20  38
BRANCH   6  42
ATOM     42  C   UNL     1      29.054   3.058 190.526  0.00  0.00    +0.000 C 
BRANCH  42  44
ATOM     43  O   UNL     1      29.724   4.028 188.289  0.00  0.00    +0.000 OA
ATOM     44  C   UNL     1      29.696   2.898 189.195  0.00  0.00    +0.000 C 
ATOM     45  C   UNL     1      30.855   3.767 189.014  0.00  0.00    +0.000 C 
ATOM     46  C   UNL     1      29.412   1.597 188.373  0.00  0.00    +0.000 C 
BRANCH  45  47
ATOM     47  C   UNL     1      32.032   3.407 188.283  0.00  0.00    +0.000 C 
ATOM     48  C   UNL     1      32.520   4.279 187.154  0.00  0.00    +0.000 C 
BRANCH  47  49
ATOM     49  C   UNL     1      32.988   2.529 188.853  0.00  0.00    +0.000 C 
ATOM     50  C   UNL     1      33.803   1.758 189.274  0.00  0.00    +0.000 C 
ATOM     51  C   UNL     1      34.836   0.713 189.705  0.00  0.00    +0.000 C 
ENDBRANCH  47  49
ENDBRANCH  45  47
ENDBRANCH  42  44
BRANCH  42  52
ATOM     52  O   UNL     1      29.772   3.391 191.667  0.00  0.00    +0.000 OA
ATOM     53  H   UNL     1      29.646   4.327 191.922  0.00  0.00    +0.000 HD
ENDBRANCH  42  52
ENDBRANCH   6  42
TORSDOF 12
ENDMDL
