MODEL 1
REMARK VINA RESULT:      -8.3      0.000      0.000
REMARK  Name = 101808841_CandidaspongiolideA.pdbqt.pdb
REMARK  13 active torsions:
REMARK  status: ('A' for Active; 'I' for Inactive)
REMARK    1  A    between atoms: C_6  and  C_39
REMARK    2  A    between atoms: C_9  and  O_27
REMARK    3  A    between atoms: C_9  and  C_51
REMARK    4  A    between atoms: C_10  and  O_29
REMARK    5  A    between atoms: C_14  and  O_31
REMARK    6  A    between atoms: C_15  and  O_33
REMARK    7  A    between atoms: C_20  and  O_35
REMARK    8  A    between atoms: O_35  and  C_37
REMARK    9  A    between atoms: C_39  and  C_41
REMARK   10  A    between atoms: C_39  and  O_49
REMARK   11  A    between atoms: C_42  and  C_44
REMARK   12  A    between atoms: C_44  and  C_46
REMARK   13  A    between atoms: C_51  and  O_52
REMARK                            x       y       z     vdW  Elec       q    Type
REMARK                         _______ _______ _______ _____ _____    ______ ____
ROOT
ATOM      1  O   UNL     1      24.970   2.277 192.201  0.00  0.00    +0.000 OA
ATOM      2  O   UNL     1      21.459   3.918 190.696  0.00  0.00    +0.000 OA
ATOM      3  O   UNL     1      26.325   3.443 190.744  0.00  0.00    +0.000 OA
ATOM      4  O   UNL     1      19.478  -1.805 193.307  0.00  0.00    +0.000 OA
ATOM      5  O   UNL     1      24.163   1.175 194.697  0.00  0.00    +0.000 OA
ATOM      6  C   UNL     1      22.919   2.098 190.375  0.00  0.00    +0.000 C 
ATOM      7  C   UNL     1      21.618   2.700 190.804  0.00  0.00    +0.000 C 
ATOM      8  C   UNL     1      24.007   2.172 191.289  0.00  0.00    +0.000 C 
ATOM      9  C   UNL     1      20.593   1.729 191.450  0.00  0.00    +0.000 C 
ATOM     10  C   UNL     1      21.016   1.370 192.865  0.00  0.00    +0.000 C 
ATOM     11  C   UNL     1      20.716   0.112 193.464  0.00  0.00    +0.000 C 
ATOM     12  C   UNL     1      26.049   3.019 191.857  0.00  0.00    +0.000 C 
ATOM     13  C   UNL     1      20.337  -1.207 193.946  0.00  0.00    +0.000 C 
ATOM     14  C   UNL     1      26.885   3.328 193.041  0.00  0.00    +0.000 C 
ATOM     15  C   UNL     1      26.673   2.783 194.366  0.00  0.00    +0.000 C 
ATOM     16  C   UNL     1      20.986  -1.774 195.172  0.00  0.00    +0.000 C 
ATOM     17  C   UNL     1      26.533   1.374 194.712  0.00  0.00    +0.000 C 
ATOM     18  C   UNL     1      25.274   0.059 196.502  0.00  0.00    +0.000 C 
ATOM     19  C   UNL     1      25.223   0.912 195.267  0.00  0.00    +0.000 C 
ATOM     20  C   UNL     1      24.088  -0.712 196.882  0.00  0.00    +0.000 C 
ATOM     21  C   UNL     1      21.897  -1.025 195.958  0.00  0.00    +0.000 C 
ATOM     22  C   UNL     1      22.715  -0.315 196.669  0.00  0.00    +0.000 C 
ATOM     23  C   UNL     1      20.718  -3.176 195.677  0.00  0.00    +0.000 C 
ATOM     24  C   UNL     1      27.351   0.342 193.934  0.00  0.00    +0.000 C 
ATOM     25  C   UNL     1      26.501   0.069 197.406  0.00  0.00    +0.000 C 
ATOM     26  C   UNL     1      22.197   1.030 197.113  0.00  0.00    +0.000 C 
ENDROOT
BRANCH   9  27
ATOM     27  O   UNL     1      20.537   0.528 190.679  0.00  0.00    +0.000 OA
ATOM     28  H   UNL     1      19.827  -0.022 191.058  0.00  0.00    +0.000 HD
ENDBRANCH   9  27
BRANCH  10  29
ATOM     29  O   UNL     1      21.694   2.319 193.604  0.00  0.00    +0.000 OA
ATOM     30  H   UNL     1      21.124   3.031 193.952  0.00  0.00    +0.000 HD
ENDBRANCH  10  29
BRANCH  14  31
ATOM     31  O   UNL     1      27.916   4.241 192.906  0.00  0.00    +0.000 OA
ATOM     32  H   UNL     1      28.056   4.468 191.963  0.00  0.00    +0.000 HD
ENDBRANCH  14  31
BRANCH  15  33
ATOM     33  O   UNL     1      27.125   3.599 195.390  0.00  0.00    +0.000 OA
ATOM     34  C   UNL     1      28.235   3.017 196.022  0.00  0.00    +0.000 C 
ENDBRANCH  15  33
BRANCH  20  35
ATOM     35  O   UNL     1      24.230  -1.754 197.837  0.00  0.00    +0.000 OA
BRANCH  35  37
ATOM     36  O   UNL     1      25.011  -3.285 196.259  0.00  0.00    +0.000 OA
ATOM     37  C   UNL     1      24.916  -2.836 197.385  0.00  0.00    +0.000 C 
ATOM     38  C   UNL     1      25.611  -3.612 198.441  0.00  0.00    +0.000 C 
ENDBRANCH  35  37
ENDBRANCH  20  35
BRANCH   6  39
ATOM     39  C   UNL     1      23.076   1.559 189.040  0.00  0.00    +0.000 C 
BRANCH  39  41
ATOM     40  O   UNL     1      22.868   1.797 186.509  0.00  0.00    +0.000 OA
ATOM     41  C   UNL     1      22.846   2.397 187.828  0.00  0.00    +0.000 C 
ATOM     42  C   UNL     1      21.649   2.043 187.070  0.00  0.00    +0.000 C 
ATOM     43  C   UNL     1      23.563   3.788 187.751  0.00  0.00    +0.000 C 
BRANCH  42  44
ATOM     44  C   UNL     1      20.800   3.035 186.474  0.00  0.00    +0.000 C 
ATOM     45  C   UNL     1      19.947   3.922 187.345  0.00  0.00    +0.000 C 
BRANCH  44  46
ATOM     46  C   UNL     1      21.150   3.560 185.201  0.00  0.00    +0.000 C 
ATOM     47  C   UNL     1      21.436   3.907 184.090  0.00  0.00    +0.000 C 
ATOM     48  C   UNL     1      21.816   4.211 182.633  0.00  0.00    +0.000 C 
ENDBRANCH  44  46
ENDBRANCH  42  44
ENDBRANCH  39  41
BRANCH  39  49
ATOM     49  O   UNL     1      23.770   0.360 188.970  0.00  0.00    +0.000 OA
ATOM     50  H   UNL     1      24.674   0.428 189.336  0.00  0.00    +0.000 HD
ENDBRANCH  39  49
ENDBRANCH   6  39
BRANCH   9  51
ATOM     51  C   UNL     1      19.243   2.340 191.491  0.00  0.00    +0.000 C 
BRANCH  51  52
ATOM     52  O   UNL     1      18.020   2.869 191.543  0.00  0.00    +0.000 OA
ATOM     53  H   UNL     1      17.694   2.890 192.462  0.00  0.00    +0.000 HD
ENDBRANCH  51  52
ENDBRANCH   9  51
TORSDOF 13
ENDMDL
MODEL 2
REMARK VINA RESULT:      -8.0      1.998      5.654
REMARK  Name = 101808841_CandidaspongiolideA.pdbqt.pdb
REMARK  13 active torsions:
REMARK  status: ('A' for Active; 'I' for Inactive)
REMARK    1  A    between atoms: C_6  and  C_39
REMARK    2  A    between atoms: C_9  and  O_27
REMARK    3  A    between atoms: C_9  and  C_51
REMARK    4  A    between atoms: C_10  and  O_29
REMARK    5  A    between atoms: C_14  and  O_31
REMARK    6  A    between atoms: C_15  and  O_33
REMARK    7  A    between atoms: C_20  and  O_35
REMARK    8  A    between atoms: O_35  and  C_37
REMARK    9  A    between atoms: C_39  and  C_41
REMARK   10  A    between atoms: C_39  and  O_49
REMARK   11  A    between atoms: C_42  and  C_44
REMARK   12  A    between atoms: C_44  and  C_46
REMARK   13  A    between atoms: C_51  and  O_52
REMARK                            x       y       z     vdW  Elec       q    Type
REMARK                         _______ _______ _______ _____ _____    ______ ____
ROOT
ATOM      1  O   UNL     1      22.896   0.941 191.767  0.00  0.00    +0.000 OA
ATOM      2  O   UNL     1      25.362   0.920 188.420  0.00  0.00    +0.000 OA
ATOM      3  O   UNL     1      20.987   1.389 190.553  0.00  0.00    +0.000 OA
ATOM      4  O   UNL     1      29.479   2.433 193.346  0.00  0.00    +0.000 OA
ATOM      5  O   UNL     1      24.482  -0.328 193.759  0.00  0.00    +0.000 OA
ATOM      6  C   UNL     1      24.497   2.380 190.053  0.00  0.00    +0.000 C 
ATOM      7  C   UNL     1      25.609   1.613 189.409  0.00  0.00    +0.000 C 
ATOM      8  C   UNL     1      23.643   1.672 190.944  0.00  0.00    +0.000 C 
ATOM      9  C   UNL     1      26.989   1.684 190.117  0.00  0.00    +0.000 C 
ATOM     10  C   UNL     1      26.987   0.834 191.377  0.00  0.00    +0.000 C 
ATOM     11  C   UNL     1      27.771   1.152 192.524  0.00  0.00    +0.000 C 
ATOM     12  C   UNL     1      21.596   0.783 191.424  0.00  0.00    +0.000 C 
ATOM     13  C   UNL     1      28.624   1.597 193.615  0.00  0.00    +0.000 C 
ATOM     14  C   UNL     1      20.959  -0.293 192.218  0.00  0.00    +0.000 C 
ATOM     15  C   UNL     1      21.587  -0.983 193.327  0.00  0.00    +0.000 C 
ATOM     16  C   UNL     1      28.437   1.034 194.992  0.00  0.00    +0.000 C 
ATOM     17  C   UNL     1      22.218  -0.366 194.487  0.00  0.00    +0.000 C 
ATOM     18  C   UNL     1      24.149  -0.973 196.042  0.00  0.00    +0.000 C 
ATOM     19  C   UNL     1      23.690  -0.559 194.674  0.00  0.00    +0.000 C 
ATOM     20  C   UNL     1      25.565  -0.830 196.389  0.00  0.00    +0.000 C 
ATOM     21  C   UNL     1      27.516  -0.010 195.261  0.00  0.00    +0.000 C 
ATOM     22  C   UNL     1      26.680  -0.974 195.481  0.00  0.00    +0.000 C 
ATOM     23  C   UNL     1      29.217   1.517 196.196  0.00  0.00    +0.000 C 
ATOM     24  C   UNL     1      21.618   0.924 195.051  0.00  0.00    +0.000 C 
ATOM     25  C   UNL     1      23.185  -1.628 197.024  0.00  0.00    +0.000 C 
ATOM     26  C   UNL     1      26.838  -2.189 194.602  0.00  0.00    +0.000 C 
ENDROOT
BRANCH   9  27
ATOM     27  O   UNL     1      27.255   3.037 190.489  0.00  0.00    +0.000 OA
ATOM     28  H   UNL     1      27.846   3.010 191.263  0.00  0.00    +0.000 HD
ENDBRANCH   9  27
BRANCH  10  29
ATOM     29  O   UNL     1      26.213  -0.309 191.392  0.00  0.00    +0.000 OA
ATOM     30  H   UNL     1      25.458  -0.284 190.773  0.00  0.00    +0.000 HD
ENDBRANCH  10  29
BRANCH  14  31
ATOM     31  O   UNL     1      19.693  -0.722 191.862  0.00  0.00    +0.000 OA
ATOM     32  H   UNL     1      19.685  -1.692 191.717  0.00  0.00    +0.000 HD
ENDBRANCH  14  31
BRANCH  15  33
ATOM     33  O   UNL     1      21.121  -2.271 193.525  0.00  0.00    +0.000 OA
ATOM     34  C   UNL     1      20.548  -2.390 194.801  0.00  0.00    +0.000 C 
ENDBRANCH  15  33
BRANCH  20  35
ATOM     35  O   UNL     1      25.943  -0.904 197.757  0.00  0.00    +0.000 OA
BRANCH  35  37
ATOM     36  O   UNL     1      26.141   1.390 198.136  0.00  0.00    +0.000 OA
ATOM     37  C   UNL     1      25.802   0.262 198.439  0.00  0.00    +0.000 C 
ATOM     38  C   UNL     1      25.184   0.121 199.781  0.00  0.00    +0.000 C 
ENDBRANCH  35  37
ENDBRANCH  20  35
BRANCH   6  39
ATOM     39  C   UNL     1      24.249   3.761 189.691  0.00  0.00    +0.000 C 
BRANCH  39  41
ATOM     40  O   UNL     1      23.554   3.120 187.322  0.00  0.00    +0.000 OA
ATOM     41  C   UNL     1      23.814   4.142 188.316  0.00  0.00    +0.000 C 
ATOM     42  C   UNL     1      22.480   3.672 187.955  0.00  0.00    +0.000 C 
ATOM     43  C   UNL     1      24.551   5.336 187.618  0.00  0.00    +0.000 C 
BRANCH  42  44
ATOM     44  C   UNL     1      21.565   4.475 187.195  0.00  0.00    +0.000 C 
ATOM     45  C   UNL     1      20.937   5.697 187.815  0.00  0.00    +0.000 C 
BRANCH  44  46
ATOM     46  C   UNL     1      21.673   4.480 185.778  0.00  0.00    +0.000 C 
ATOM     47  C   UNL     1      21.855   4.529 184.594  0.00  0.00    +0.000 C 
ATOM     48  C   UNL     1      22.200   4.682 183.105  0.00  0.00    +0.000 C 
ENDBRANCH  44  46
ENDBRANCH  42  44
ENDBRANCH  39  41
BRANCH  39  49
ATOM     49  O   UNL     1      24.107   4.631 190.762  0.00  0.00    +0.000 OA
ATOM     50  H   UNL     1      23.336   5.222 190.665  0.00  0.00    +0.000 HD
ENDBRANCH  39  49
ENDBRANCH   6  39
BRANCH   9  51
ATOM     51  C   UNL     1      28.067   1.210 189.217  0.00  0.00    +0.000 C 
BRANCH  51  52
ATOM     52  O   UNL     1      29.017   0.774 188.390  0.00  0.00    +0.000 OA
ATOM     53  H   UNL     1      29.492   0.017 188.780  0.00  0.00    +0.000 HD
ENDBRANCH  51  52
ENDBRANCH   9  51
TORSDOF 13
ENDMDL
MODEL 3
REMARK VINA RESULT:      -7.8      2.218      9.492
REMARK  Name = 101808841_CandidaspongiolideA.pdbqt.pdb
REMARK  13 active torsions:
REMARK  status: ('A' for Active; 'I' for Inactive)
REMARK    1  A    between atoms: C_6  and  C_39
REMARK    2  A    between atoms: C_9  and  O_27
REMARK    3  A    between atoms: C_9  and  C_51
REMARK    4  A    between atoms: C_10  and  O_29
REMARK    5  A    between atoms: C_14  and  O_31
REMARK    6  A    between atoms: C_15  and  O_33
REMARK    7  A    between atoms: C_20  and  O_35
REMARK    8  A    between atoms: O_35  and  C_37
REMARK    9  A    between atoms: C_39  and  C_41
REMARK   10  A    between atoms: C_39  and  O_49
REMARK   11  A    between atoms: C_42  and  C_44
REMARK   12  A    between atoms: C_44  and  C_46
REMARK   13  A    between atoms: C_51  and  O_52
REMARK                            x       y       z     vdW  Elec       q    Type
REMARK                         _______ _______ _______ _____ _____    ______ ____
ROOT
ATOM      1  O   UNL     1      23.430  -0.774 195.015  0.00  0.00    +0.000 OA
ATOM      2  O   UNL     1      27.249   0.776 195.559  0.00  0.00    +0.000 OA
ATOM      3  O   UNL     1      23.406  -1.851 197.054  0.00  0.00    +0.000 OA
ATOM      4  O   UNL     1      26.591   0.595 188.999  0.00  0.00    +0.000 OA
ATOM      5  O   UNL     1      22.386   0.788 192.878  0.00  0.00    +0.000 OA
ATOM      6  C   UNL     1      26.142  -1.118 194.703  0.00  0.00    +0.000 C 
ATOM      7  C   UNL     1      26.941   0.138 194.550  0.00  0.00    +0.000 C 
ATOM      8  C   UNL     1      24.736  -0.984 194.871  0.00  0.00    +0.000 C 
ATOM      9  C   UNL     1      27.235   0.590 193.094  0.00  0.00    +0.000 C 
ATOM     10  C   UNL     1      25.988   1.177 192.455  0.00  0.00    +0.000 C 
ATOM     11  C   UNL     1      25.722   1.088 191.057  0.00  0.00    +0.000 C 
ATOM     12  C   UNL     1      22.882  -1.161 196.191  0.00  0.00    +0.000 C 
ATOM     13  C   UNL     1      25.585   0.924 189.618  0.00  0.00    +0.000 C 
ATOM     14  C   UNL     1      21.525  -0.592 196.362  0.00  0.00    +0.000 C 
ATOM     15  C   UNL     1      20.807   0.150 195.347  0.00  0.00    +0.000 C 
ATOM     16  C   UNL     1      24.260   1.159 188.958  0.00  0.00    +0.000 C 
ATOM     17  C   UNL     1      20.561  -0.273 193.973  0.00  0.00    +0.000 C 
ATOM     18  C   UNL     1      20.288   0.911 191.729  0.00  0.00    +0.000 C 
ATOM     19  C   UNL     1      21.183   0.522 192.870  0.00  0.00    +0.000 C 
ATOM     20  C   UNL     1      20.893   1.362 190.473  0.00  0.00    +0.000 C 
ATOM     21  C   UNL     1      23.136   1.643 189.674  0.00  0.00    +0.000 C 
ATOM     22  C   UNL     1      22.128   2.102 190.345  0.00  0.00    +0.000 C 
ATOM     23  C   UNL     1      24.015   0.914 187.484  0.00  0.00    +0.000 C 
ATOM     24  C   UNL     1      20.315  -1.757 193.696  0.00  0.00    +0.000 C 
ATOM     25  C   UNL     1      18.774   0.937 191.899  0.00  0.00    +0.000 C 
ATOM     26  C   UNL     1      22.382   3.367 191.125  0.00  0.00    +0.000 C 
ENDROOT
BRANCH   9  27
ATOM     27  O   UNL     1      27.643  -0.543 192.326  0.00  0.00    +0.000 OA
ATOM     28  H   UNL     1      27.287  -1.333 192.772  0.00  0.00    +0.000 HD
ENDBRANCH   9  27
BRANCH  10  29
ATOM     29  O   UNL     1      25.093   1.848 193.264  0.00  0.00    +0.000 OA
ATOM     30  H   UNL     1      25.391   1.945 194.188  0.00  0.00    +0.000 HD
ENDBRANCH  10  29
BRANCH  14  31
ATOM     31  O   UNL     1      20.900  -0.722 197.590  0.00  0.00    +0.000 OA
ATOM     32  H   UNL     1      21.281  -1.472 198.094  0.00  0.00    +0.000 HD
ENDBRANCH  14  31
BRANCH  15  33
ATOM     33  O   UNL     1      19.896   1.062 195.853  0.00  0.00    +0.000 OA
ATOM     34  C   UNL     1      18.585   0.623 195.619  0.00  0.00    +0.000 C 
ENDBRANCH  15  33
BRANCH  20  35
ATOM     35  O   UNL     1      20.084   1.413 189.306  0.00  0.00    +0.000 OA
BRANCH  35  37
ATOM     36  O   UNL     1      19.325   3.604 189.564  0.00  0.00    +0.000 OA
ATOM     37  C   UNL     1      19.751   2.669 188.913  0.00  0.00    +0.000 C 
ATOM     38  C   UNL     1      19.880   2.915 187.456  0.00  0.00    +0.000 C 
ENDBRANCH  35  37
ENDBRANCH  20  35
BRANCH   6  39
ATOM     39  C   UNL     1      26.803  -2.405 194.781  0.00  0.00    +0.000 C 
BRANCH  39  41
ATOM     40  O   UNL     1      28.265  -3.528 196.544  0.00  0.00    +0.000 OA
ATOM     41  C   UNL     1      26.953  -3.128 196.076  0.00  0.00    +0.000 C 
ATOM     42  C   UNL     1      27.717  -2.403 197.087  0.00  0.00    +0.000 C 
ATOM     43  C   UNL     1      25.941  -4.283 196.393  0.00  0.00    +0.000 C 
BRANCH  42  44
ATOM     44  C   UNL     1      27.352  -2.410 198.474  0.00  0.00    +0.000 C 
ATOM     45  C   UNL     1      28.276  -3.023 199.496  0.00  0.00    +0.000 C 
BRANCH  44  46
ATOM     46  C   UNL     1      26.467  -1.407 198.955  0.00  0.00    +0.000 C 
ATOM     47  C   UNL     1      25.766  -0.496 199.295  0.00  0.00    +0.000 C 
ATOM     48  C   UNL     1      24.959   0.759 199.656  0.00  0.00    +0.000 C 
ENDBRANCH  44  46
ENDBRANCH  42  44
ENDBRANCH  39  41
BRANCH  39  49
ATOM     49  O   UNL     1      26.967  -3.054 193.566  0.00  0.00    +0.000 OA
ATOM     50  H   UNL     1      26.244  -2.862 192.938  0.00  0.00    +0.000 HD
ENDBRANCH  39  49
ENDBRANCH   6  39
BRANCH   9  51
ATOM     51  C   UNL     1      28.314   1.606 193.066  0.00  0.00    +0.000 C 
BRANCH  51  52
ATOM     52  O   UNL     1      29.303   2.499 193.047  0.00  0.00    +0.000 OA
ATOM     53  H   UNL     1      29.873   2.365 192.266  0.00  0.00    +0.000 HD
ENDBRANCH  51  52
ENDBRANCH   9  51
TORSDOF 13
ENDMDL
MODEL 4
REMARK VINA RESULT:      -7.4      3.103      7.285
REMARK  Name = 101808841_CandidaspongiolideA.pdbqt.pdb
REMARK  13 active torsions:
REMARK  status: ('A' for Active; 'I' for Inactive)
REMARK    1  A    between atoms: C_6  and  C_39
REMARK    2  A    between atoms: C_9  and  O_27
REMARK    3  A    between atoms: C_9  and  C_51
REMARK    4  A    between atoms: C_10  and  O_29
REMARK    5  A    between atoms: C_14  and  O_31
REMARK    6  A    between atoms: C_15  and  O_33
REMARK    7  A    between atoms: C_20  and  O_35
REMARK    8  A    between atoms: O_35  and  C_37
REMARK    9  A    between atoms: C_39  and  C_41
REMARK   10  A    between atoms: C_39  and  O_49
REMARK   11  A    between atoms: C_42  and  C_44
REMARK   12  A    between atoms: C_44  and  C_46
REMARK   13  A    between atoms: C_51  and  O_52
REMARK                            x       y       z     vdW  Elec       q    Type
REMARK                         _______ _______ _______ _____ _____    ______ ____
ROOT
ATOM      1  O   UNL     1      25.010   2.172 190.485  0.00  0.00    +0.000 OA
ATOM      2  O   UNL     1      28.309  -0.232 191.269  0.00  0.00    +0.000 OA
ATOM      3  O   UNL     1      25.882   2.997 188.516  0.00  0.00    +0.000 OA
ATOM      4  O   UNL     1      25.721   0.812 197.245  0.00  0.00    +0.000 OA
ATOM      5  O   UNL     1      23.008   1.125 192.215  0.00  0.00    +0.000 OA
ATOM      6  C   UNL     1      27.491   1.942 191.654  0.00  0.00    +0.000 C 
ATOM      7  C   UNL     1      27.870   0.565 192.100  0.00  0.00    +0.000 C 
ATOM      8  C   UNL     1      26.217   2.104 191.041  0.00  0.00    +0.000 C 
ATOM      9  C   UNL     1      27.580   0.222 193.587  0.00  0.00    +0.000 C 
ATOM     10  C   UNL     1      26.092  -0.000 193.803  0.00  0.00    +0.000 C 
ATOM     11  C   UNL     1      25.438   0.299 195.034  0.00  0.00    +0.000 C 
ATOM     12  C   UNL     1      24.965   2.539 189.183  0.00  0.00    +0.000 C 
ATOM     13  C   UNL     1      24.907   0.646 196.342  0.00  0.00    +0.000 C 
ATOM     14  C   UNL     1      23.631   2.268 188.596  0.00  0.00    +0.000 C 
ATOM     15  C   UNL     1      22.476   1.819 189.346  0.00  0.00    +0.000 C 
ATOM     16  C   UNL     1      23.428   0.784 196.541  0.00  0.00    +0.000 C 
ATOM     17  C   UNL     1      21.929   2.435 190.548  0.00  0.00    +0.000 C 
ATOM     18  C   UNL     1      20.695   1.595 192.619  0.00  0.00    +0.000 C 
ATOM     19  C   UNL     1      21.965   1.649 191.821  0.00  0.00    +0.000 C 
ATOM     20  C   UNL     1      20.753   1.163 194.017  0.00  0.00    +0.000 C 
ATOM     21  C   UNL     1      22.498   0.483 195.515  0.00  0.00    +0.000 C 
ATOM     22  C   UNL     1      21.667   0.188 194.566  0.00  0.00    +0.000 C 
ATOM     23  C   UNL     1      22.807   1.238 197.845  0.00  0.00    +0.000 C 
ATOM     24  C   UNL     1      21.979   3.958 190.681  0.00  0.00    +0.000 C 
ATOM     25  C   UNL     1      19.349   1.886 191.965  0.00  0.00    +0.000 C 
ATOM     26  C   UNL     1      21.832  -1.181 193.955  0.00  0.00    +0.000 C 
ENDROOT
BRANCH   9  27
ATOM     27  O   UNL     1      27.995   1.315 194.408  0.00  0.00    +0.000 OA
ATOM     28  H   UNL     1      28.467   0.936 195.171  0.00  0.00    +0.000 HD
ENDBRANCH   9  27
BRANCH  10  29
ATOM     29  O   UNL     1      25.356  -0.543 192.769  0.00  0.00    +0.000 OA
ATOM     30  H   UNL     1      25.761  -0.422 191.889  0.00  0.00    +0.000 HD
ENDBRANCH  10  29
BRANCH  14  31
ATOM     31  O   UNL     1      23.468   2.396 187.228  0.00  0.00    +0.000 OA
ATOM     32  H   UNL     1      23.977   1.706 186.753  0.00  0.00    +0.000 HD
ENDBRANCH  14  31
BRANCH  15  33
ATOM     33  O   UNL     1      21.573   1.081 188.600  0.00  0.00    +0.000 OA
ATOM     34  C   UNL     1      20.388   1.808 188.409  0.00  0.00    +0.000 C 
ENDBRANCH  15  33
BRANCH  20  35
ATOM     35  O   UNL     1      19.636   1.421 194.857  0.00  0.00    +0.000 OA
BRANCH  35  37
ATOM     36  O   UNL     1      18.393  -0.503 194.415  0.00  0.00    +0.000 OA
ATOM     37  C   UNL     1      18.895   0.322 195.153  0.00  0.00    +0.000 C 
ATOM     38  C   UNL     1      18.616   0.136 196.599  0.00  0.00    +0.000 C 
ENDBRANCH  35  37
ENDBRANCH  20  35
BRANCH   6  39
ATOM     39  C   UNL     1      28.437   3.034 191.753  0.00  0.00    +0.000 C 
BRANCH  39  41
ATOM     40  O   UNL     1      29.659   2.515 189.575  0.00  0.00    +0.000 OA
ATOM     41  C   UNL     1      29.665   3.083 190.909  0.00  0.00    +0.000 C 
ATOM     42  C   UNL     1      29.525   3.869 189.686  0.00  0.00    +0.000 C 
ATOM     43  C   UNL     1      31.035   2.738 191.587  0.00  0.00    +0.000 C 
BRANCH  42  44
ATOM     44  C   UNL     1      30.577   4.711 189.194  0.00  0.00    +0.000 C 
ATOM     45  C   UNL     1      31.031   5.902 190.000  0.00  0.00    +0.000 C 
BRANCH  44  46
ATOM     46  C   UNL     1      31.533   4.160 188.299  0.00  0.00    +0.000 C 
ATOM     47  C   UNL     1      32.267   3.696 187.472  0.00  0.00    +0.000 C 
ATOM     48  C   UNL     1      33.089   3.082 186.330  0.00  0.00    +0.000 C 
ENDBRANCH  44  46
ENDBRANCH  42  44
ENDBRANCH  39  41
BRANCH  39  49
ATOM     49  O   UNL     1      27.962   4.163 192.406  0.00  0.00    +0.000 OA
ATOM     50  H   UNL     1      27.115   4.001 192.865  0.00  0.00    +0.000 HD
ENDBRANCH  39  49
ENDBRANCH   6  39
BRANCH   9  51
ATOM     51  C   UNL     1      28.315  -0.997 193.999  0.00  0.00    +0.000 C 
BRANCH  51  52
ATOM     52  O   UNL     1      28.952  -2.107 194.370  0.00  0.00    +0.000 OA
ATOM     53  H   UNL     1      29.571  -2.397 193.674  0.00  0.00    +0.000 HD
ENDBRANCH  51  52
ENDBRANCH   9  51
TORSDOF 13
ENDMDL
MODEL 5
REMARK VINA RESULT:      -7.0     34.112     36.869
REMARK  Name = 101808841_CandidaspongiolideA.pdbqt.pdb
REMARK  13 active torsions:
REMARK  status: ('A' for Active; 'I' for Inactive)
REMARK    1  A    between atoms: C_6  and  C_39
REMARK    2  A    between atoms: C_9  and  O_27
REMARK    3  A    between atoms: C_9  and  C_51
REMARK    4  A    between atoms: C_10  and  O_29
REMARK    5  A    between atoms: C_14  and  O_31
REMARK    6  A    between atoms: C_15  and  O_33
REMARK    7  A    between atoms: C_20  and  O_35
REMARK    8  A    between atoms: O_35  and  C_37
REMARK    9  A    between atoms: C_39  and  C_41
REMARK   10  A    between atoms: C_39  and  O_49
REMARK   11  A    between atoms: C_42  and  C_44
REMARK   12  A    between atoms: C_44  and  C_46
REMARK   13  A    between atoms: C_51  and  O_52
REMARK                            x       y       z     vdW  Elec       q    Type
REMARK                         _______ _______ _______ _____ _____    ______ ____
ROOT
ATOM      1  O   UNL     1      39.496 -23.574 174.045  0.00  0.00    +0.000 OA
ATOM      2  O   UNL     1      39.571 -27.703 173.567  0.00  0.00    +0.000 OA
ATOM      3  O   UNL     1      39.709 -23.678 176.339  0.00  0.00    +0.000 OA
ATOM      4  O   UNL     1      36.322 -25.603 168.226  0.00  0.00    +0.000 OA
ATOM      5  O   UNL     1      40.002 -22.600 171.420  0.00  0.00    +0.000 OA
ATOM      6  C   UNL     1      38.070 -25.925 173.928  0.00  0.00    +0.000 C 
ATOM      7  C   UNL     1      38.675 -27.006 173.089  0.00  0.00    +0.000 C 
ATOM      8  C   UNL     1      38.778 -24.694 174.018  0.00  0.00    +0.000 C 
ATOM      9  C   UNL     1      38.174 -27.096 171.621  0.00  0.00    +0.000 C 
ATOM     10  C   UNL     1      38.762 -25.971 170.787  0.00  0.00    +0.000 C 
ATOM     11  C   UNL     1      38.076 -25.392 169.679  0.00  0.00    +0.000 C 
ATOM     12  C   UNL     1      39.997 -23.207 175.248  0.00  0.00    +0.000 C 
ATOM     13  C   UNL     1      37.265 -24.901 168.576  0.00  0.00    +0.000 C 
ATOM     14  C   UNL     1      41.027 -22.152 175.099  0.00  0.00    +0.000 C 
ATOM     15  C   UNL     1      41.349 -21.483 173.856  0.00  0.00    +0.000 C 
ATOM     16  C   UNL     1      37.598 -23.595 167.921  0.00  0.00    +0.000 C 
ATOM     17  C   UNL     1      40.409 -20.828 172.954  0.00  0.00    +0.000 C 
ATOM     18  C   UNL     1      40.283 -20.435 170.435  0.00  0.00    +0.000 C 
ATOM     19  C   UNL     1      40.234 -21.401 171.583  0.00  0.00    +0.000 C 
ATOM     20  C   UNL     1      39.769 -20.857 169.130  0.00  0.00    +0.000 C 
ATOM     21  C   UNL     1      38.753 -22.850 168.268  0.00  0.00    +0.000 C 
ATOM     22  C   UNL     1      39.824 -22.196 168.589  0.00  0.00    +0.000 C 
ATOM     23  C   UNL     1      36.745 -22.972 166.837  0.00  0.00    +0.000 C 
ATOM     24  C   UNL     1      39.205 -20.098 173.552  0.00  0.00    +0.000 C 
ATOM     25  C   UNL     1      40.947 -19.072 170.590  0.00  0.00    +0.000 C 
ATOM     26  C   UNL     1      41.111 -22.979 168.531  0.00  0.00    +0.000 C 
ENDROOT
BRANCH   9  27
ATOM     27  O   UNL     1      36.751 -26.971 171.605  0.00  0.00    +0.000 OA
ATOM     28  H   UNL     1      36.384 -27.856 171.782  0.00  0.00    +0.000 HD
ENDBRANCH   9  27
BRANCH  10  29
ATOM     29  O   UNL     1      40.026 -25.515 171.103  0.00  0.00    +0.000 OA
ATOM     30  H   UNL     1      40.523 -25.167 170.339  0.00  0.00    +0.000 HD
ENDBRANCH  10  29
BRANCH  14  31
ATOM     31  O   UNL     1      41.783 -21.801 176.204  0.00  0.00    +0.000 OA
ATOM     32  H   UNL     1      41.307 -22.019 177.033  0.00  0.00    +0.000 HD
ENDBRANCH  14  31
BRANCH  15  33
ATOM     33  O   UNL     1      42.652 -21.018 173.788  0.00  0.00    +0.000 OA
ATOM     34  C   UNL     1      43.383 -21.754 172.843  0.00  0.00    +0.000 C 
ENDBRANCH  15  33
BRANCH  20  35
ATOM     35  O   UNL     1      39.511 -19.865 168.146  0.00  0.00    +0.000 OA
BRANCH  35  37
ATOM     36  O   UNL     1      40.380 -20.604 166.111  0.00  0.00    +0.000 OA
ATOM     37  C   UNL     1      40.368 -19.886 167.093  0.00  0.00    +0.000 C 
ATOM     38  C   UNL     1      41.487 -18.917 167.188  0.00  0.00    +0.000 C 
ENDBRANCH  35  37
ENDBRANCH  20  35
BRANCH   6  39
ATOM     39  C   UNL     1      36.867 -26.175 174.696  0.00  0.00    +0.000 C 
BRANCH  39  41
ATOM     40  O   UNL     1      36.232 -25.405 177.043  0.00  0.00    +0.000 OA
ATOM     41  C   UNL     1      36.908 -26.349 176.176  0.00  0.00    +0.000 C 
ATOM     42  C   UNL     1      35.605 -26.590 176.789  0.00  0.00    +0.000 C 
ATOM     43  C   UNL     1      38.280 -26.730 176.832  0.00  0.00    +0.000 C 
BRANCH  42  44
ATOM     44  C   UNL     1      35.427 -27.524 177.865  0.00  0.00    +0.000 C 
ATOM     45  C   UNL     1      35.637 -27.082 179.291  0.00  0.00    +0.000 C 
BRANCH  44  46
ATOM     46  C   UNL     1      34.554 -28.628 177.676  0.00  0.00    +0.000 C 
ATOM     47  C   UNL     1      33.785 -29.546 177.614  0.00  0.00    +0.000 C 
ATOM     48  C   UNL     1      32.786 -30.711 177.678  0.00  0.00    +0.000 C 
ENDBRANCH  44  46
ENDBRANCH  42  44
ENDBRANCH  39  41
BRANCH  39  49
ATOM     49  O   UNL     1      35.681 -25.899 174.031  0.00  0.00    +0.000 OA
ATOM     50  H   UNL     1      35.192 -25.155 174.432  0.00  0.00    +0.000 HD
ENDBRANCH  39  49
ENDBRANCH   6  39
BRANCH   9  51
ATOM     51  C   UNL     1      38.551 -28.394 171.015  0.00  0.00    +0.000 C 
BRANCH  51  52
ATOM     52  O   UNL     1      38.864 -29.571 170.472  0.00  0.00    +0.000 OA
ATOM     53  H   UNL     1      38.595 -30.303 171.058  0.00  0.00    +0.000 HD
ENDBRANCH  51  52
ENDBRANCH   9  51
TORSDOF 13
ENDMDL
MODEL 6
REMARK VINA RESULT:      -7.0     22.062     25.258
REMARK  Name = 101808841_CandidaspongiolideA.pdbqt.pdb
REMARK  13 active torsions:
REMARK  status: ('A' for Active; 'I' for Inactive)
REMARK    1  A    between atoms: C_6  and  C_39
REMARK    2  A    between atoms: C_9  and  O_27
REMARK    3  A    between atoms: C_9  and  C_51
REMARK    4  A    between atoms: C_10  and  O_29
REMARK    5  A    between atoms: C_14  and  O_31
REMARK    6  A    between atoms: C_15  and  O_33
REMARK    7  A    between atoms: C_20  and  O_35
REMARK    8  A    between atoms: O_35  and  C_37
REMARK    9  A    between atoms: C_39  and  C_41
REMARK   10  A    between atoms: C_39  and  O_49
REMARK   11  A    between atoms: C_42  and  C_44
REMARK   12  A    between atoms: C_44  and  C_46
REMARK   13  A    between atoms: C_51  and  O_52
REMARK                            x       y       z     vdW  Elec       q    Type
REMARK                         _______ _______ _______ _____ _____    ______ ____
ROOT
ATOM      1  O   UNL     1      48.280   2.452 182.498  0.00  0.00    +0.000 OA
ATOM      2  O   UNL     1      46.667   6.250 181.987  0.00  0.00    +0.000 OA
ATOM      3  O   UNL     1      49.935   2.771 180.924  0.00  0.00    +0.000 OA
ATOM      4  O   UNL     1      41.591   2.729 184.297  0.00  0.00    +0.000 OA
ATOM      5  O   UNL     1      47.160   1.589 184.967  0.00  0.00    +0.000 OA
ATOM      6  C   UNL     1      46.492   4.054 181.152  0.00  0.00    +0.000 C 
ATOM      7  C   UNL     1      45.976   5.232 181.918  0.00  0.00    +0.000 C 
ATOM      8  C   UNL     1      47.422   3.202 181.810  0.00  0.00    +0.000 C 
ATOM      9  C   UNL     1      44.625   5.029 182.657  0.00  0.00    +0.000 C 
ATOM     10  C   UNL     1      44.817   4.171 183.896  0.00  0.00    +0.000 C 
ATOM     11  C   UNL     1      43.803   3.304 184.399  0.00  0.00    +0.000 C 
ATOM     12  C   UNL     1      49.543   2.382 182.015  0.00  0.00    +0.000 C 
ATOM     13  C   UNL     1      42.680   2.471 184.798  0.00  0.00    +0.000 C 
ATOM     14  C   UNL     1      50.467   1.802 183.016  0.00  0.00    +0.000 C 
ATOM     15  C   UNL     1      50.059   1.234 184.285  0.00  0.00    +0.000 C 
ATOM     16  C   UNL     1      42.883   1.357 185.781  0.00  0.00    +0.000 C 
ATOM     17  C   UNL     1      49.040   0.212 184.490  0.00  0.00    +0.000 C 
ATOM     18  C   UNL     1      47.384  -0.354 186.349  0.00  0.00    +0.000 C 
ATOM     19  C   UNL     1      47.813   0.587 185.260  0.00  0.00    +0.000 C 
ATOM     20  C   UNL     1      46.026  -0.246 186.887  0.00  0.00    +0.000 C 
ATOM     21  C   UNL     1      44.124   1.142 186.431  0.00  0.00    +0.000 C 
ATOM     22  C   UNL     1      45.263   0.974 187.024  0.00  0.00    +0.000 C 
ATOM     23  C   UNL     1      41.787   0.387 186.170  0.00  0.00    +0.000 C 
ATOM     24  C   UNL     1      48.882  -0.889 183.441  0.00  0.00    +0.000 C 
ATOM     25  C   UNL     1      48.371  -1.341 186.961  0.00  0.00    +0.000 C 
ATOM     26  C   UNL     1      45.823   2.189 187.720  0.00  0.00    +0.000 C 
ENDROOT
BRANCH   9  27
ATOM     27  O   UNL     1      43.711   4.362 181.785  0.00  0.00    +0.000 OA
ATOM     28  H   UNL     1      42.835   4.767 181.925  0.00  0.00    +0.000 HD
ENDBRANCH   9  27
BRANCH  10  29
ATOM     29  O   UNL     1      46.016   4.261 184.573  0.00  0.00    +0.000 OA
ATOM     30  H   UNL     1      45.978   4.818 185.374  0.00  0.00    +0.000 HD
ENDBRANCH  10  29
BRANCH  14  31
ATOM     31  O   UNL     1      51.827   1.840 182.766  0.00  0.00    +0.000 OA
ATOM     32  H   UNL     1      52.008   1.695 181.813  0.00  0.00    +0.000 HD
ENDBRANCH  14  31
BRANCH  15  33
ATOM     33  O   UNL     1      51.028   1.306 185.272  0.00  0.00    +0.000 OA
ATOM     34  C   UNL     1      50.867   2.478 186.027  0.00  0.00    +0.000 C 
ENDBRANCH  15  33
BRANCH  20  35
ATOM     35  O   UNL     1      45.513  -1.319 187.663  0.00  0.00    +0.000 OA
BRANCH  35  37
ATOM     36  O   UNL     1      46.314  -0.762 189.783  0.00  0.00    +0.000 OA
ATOM     37  C   UNL     1      45.438  -1.059 188.994  0.00  0.00    +0.000 C 
ATOM     38  C   UNL     1      44.082  -1.213 189.577  0.00  0.00    +0.000 C 
ENDBRANCH  35  37
ENDBRANCH  20  35
BRANCH   6  39
ATOM     39  C   UNL     1      46.132   3.866 179.762  0.00  0.00    +0.000 C 
BRANCH  39  41
ATOM     40  O   UNL     1      45.888   2.267 177.790  0.00  0.00    +0.000 OA
ATOM     41  C   UNL     1      45.809   2.517 179.216  0.00  0.00    +0.000 C 
ATOM     42  C   UNL     1      46.931   1.847 178.563  0.00  0.00    +0.000 C 
ATOM     43  C   UNL     1      44.545   1.780 179.779  0.00  0.00    +0.000 C 
BRANCH  42  44
ATOM     44  C   UNL     1      47.167   0.438 178.702  0.00  0.00    +0.000 C 
ATOM     45  C   UNL     1      46.491  -0.537 177.772  0.00  0.00    +0.000 C 
BRANCH  44  46
ATOM     46  C   UNL     1      48.388   0.003 179.284  0.00  0.00    +0.000 C 
ATOM     47  C   UNL     1      49.412  -0.449 179.715  0.00  0.00    +0.000 C 
ATOM     48  C   UNL     1      50.688  -1.151 180.199  0.00  0.00    +0.000 C 
ENDBRANCH  44  46
ENDBRANCH  42  44
ENDBRANCH  39  41
BRANCH  39  49
ATOM     49  O   UNL     1      45.778   5.024 179.086  0.00  0.00    +0.000 OA
ATOM     50  H   UNL     1      45.099   4.867 178.402  0.00  0.00    +0.000 HD
ENDBRANCH  39  49
ENDBRANCH   6  39
BRANCH   9  51
ATOM     51  C   UNL     1      44.045   6.332 183.059  0.00  0.00    +0.000 C 
BRANCH  51  52
ATOM     52  O   UNL     1      43.542   7.507 183.439  0.00  0.00    +0.000 OA
ATOM     53  H   UNL     1      44.256   8.123 183.686  0.00  0.00    +0.000 HD
ENDBRANCH  51  52
ENDBRANCH   9  51
TORSDOF 13
ENDMDL
MODEL 7
REMARK VINA RESULT:      -6.9      2.955      8.311
REMARK  Name = 101808841_CandidaspongiolideA.pdbqt.pdb
REMARK  13 active torsions:
REMARK  status: ('A' for Active; 'I' for Inactive)
REMARK    1  A    between atoms: C_6  and  C_39
REMARK    2  A    between atoms: C_9  and  O_27
REMARK    3  A    between atoms: C_9  and  C_51
REMARK    4  A    between atoms: C_10  and  O_29
REMARK    5  A    between atoms: C_14  and  O_31
REMARK    6  A    between atoms: C_15  and  O_33
REMARK    7  A    between atoms: C_20  and  O_35
REMARK    8  A    between atoms: O_35  and  C_37
REMARK    9  A    between atoms: C_39  and  C_41
REMARK   10  A    between atoms: C_39  and  O_49
REMARK   11  A    between atoms: C_42  and  C_44
REMARK   12  A    between atoms: C_44  and  C_46
REMARK   13  A    between atoms: C_51  and  O_52
REMARK                            x       y       z     vdW  Elec       q    Type
REMARK                         _______ _______ _______ _____ _____    ______ ____
ROOT
ATOM      1  O   UNL     1      26.477   0.890 191.590  0.00  0.00    +0.000 OA
ATOM      2  O   UNL     1      27.895  -2.443 193.631  0.00  0.00    +0.000 OA
ATOM      3  O   UNL     1      28.470   1.260 190.490  0.00  0.00    +0.000 OA
ATOM      4  O   UNL     1      23.011  -0.253 197.484  0.00  0.00    +0.000 OA
ATOM      5  O   UNL     1      23.654   0.681 191.874  0.00  0.00    +0.000 OA
ATOM      6  C   UNL     1      27.732  -0.102 193.829  0.00  0.00    +0.000 C 
ATOM      7  C   UNL     1      27.359  -1.499 194.214  0.00  0.00    +0.000 C 
ATOM      8  C   UNL     1      27.108   0.448 192.675  0.00  0.00    +0.000 C 
ATOM      9  C   UNL     1      26.232  -1.640 195.273  0.00  0.00    +0.000 C 
ATOM     10  C   UNL     1      24.878  -1.333 194.657  0.00  0.00    +0.000 C 
ATOM     11  C   UNL     1      23.803  -0.761 195.399  0.00  0.00    +0.000 C 
ATOM     12  C   UNL     1      27.250   1.178 190.517  0.00  0.00    +0.000 C 
ATOM     13  C   UNL     1      22.800  -0.183 196.278  0.00  0.00    +0.000 C 
ATOM     14  C   UNL     1      26.428   1.343 189.295  0.00  0.00    +0.000 C 
ATOM     15  C   UNL     1      24.980   1.355 189.269  0.00  0.00    +0.000 C 
ATOM     16  C   UNL     1      21.575   0.459 195.700  0.00  0.00    +0.000 C 
ATOM     17  C   UNL     1      24.105   2.185 190.087  0.00  0.00    +0.000 C 
ATOM     18  C   UNL     1      21.769   1.930 191.083  0.00  0.00    +0.000 C 
ATOM     19  C   UNL     1      23.208   1.505 191.073  0.00  0.00    +0.000 C 
ATOM     20  C   UNL     1      20.934   1.582 192.236  0.00  0.00    +0.000 C 
ATOM     21  C   UNL     1      21.295   0.435 194.310  0.00  0.00    +0.000 C 
ATOM     22  C   UNL     1      21.053   0.387 193.039  0.00  0.00    +0.000 C 
ATOM     23  C   UNL     1      20.536   1.168 196.543  0.00  0.00    +0.000 C 
ATOM     24  C   UNL     1      24.553   3.606 190.433  0.00  0.00    +0.000 C 
ATOM     25  C   UNL     1      21.151   2.623 189.875  0.00  0.00    +0.000 C 
ATOM     26  C   UNL     1      21.077  -0.989 192.421  0.00  0.00    +0.000 C 
ENDROOT
BRANCH   9  27
ATOM     27  O   UNL     1      26.466  -0.708 196.331  0.00  0.00    +0.000 OA
ATOM     28  H   UNL     1      26.997   0.019 195.959  0.00  0.00    +0.000 HD
ENDBRANCH   9  27
BRANCH  10  29
ATOM     29  O   UNL     1      24.679  -1.650 193.328  0.00  0.00    +0.000 OA
ATOM     30  H   UNL     1      24.311  -2.542 193.185  0.00  0.00    +0.000 HD
ENDBRANCH  10  29
BRANCH  14  31
ATOM     31  O   UNL     1      27.068   1.443 188.072  0.00  0.00    +0.000 OA
ATOM     32  H   UNL     1      27.958   1.031 188.113  0.00  0.00    +0.000 HD
ENDBRANCH  14  31
BRANCH  15  33
ATOM     33  O   UNL     1      24.434   0.926 188.071  0.00  0.00    +0.000 OA
ATOM     34  C   UNL     1      23.684   1.955 187.481  0.00  0.00    +0.000 C 
ENDBRANCH  15  33
BRANCH  20  35
ATOM     35  O   UNL     1      19.691   2.249 192.403  0.00  0.00    +0.000 OA
BRANCH  35  37
ATOM     36  O   UNL     1      18.045   0.812 193.221  0.00  0.00    +0.000 OA
ATOM     37  C   UNL     1      18.607   1.434 192.340  0.00  0.00    +0.000 C 
ATOM     38  C   UNL     1      18.062   1.236 190.974  0.00  0.00    +0.000 C 
ENDBRANCH  35  37
ENDBRANCH  20  35
BRANCH   6  39
ATOM     39  C   UNL     1      28.768   0.609 194.551  0.00  0.00    +0.000 C 
BRANCH  39  41
ATOM     40  O   UNL     1      31.308   0.466 194.727  0.00  0.00    +0.000 OA
ATOM     41  C   UNL     1      30.124   0.817 193.968  0.00  0.00    +0.000 C 
ATOM     42  C   UNL     1      30.888  -0.411 193.769  0.00  0.00    +0.000 C 
ATOM     43  C   UNL     1      30.399   2.164 193.215  0.00  0.00    +0.000 C 
BRANCH  42  44
ATOM     44  C   UNL     1      31.712  -0.620 192.613  0.00  0.00    +0.000 C 
ATOM     45  C   UNL     1      31.082  -0.753 191.250  0.00  0.00    +0.000 C 
BRANCH  44  46
ATOM     46  C   UNL     1      33.056  -0.159 192.637  0.00  0.00    +0.000 C 
ATOM     47  C   UNL     1      34.213   0.152 192.594  0.00  0.00    +0.000 C 
ATOM     48  C   UNL     1      35.720   0.423 192.474  0.00  0.00    +0.000 C 
ENDBRANCH  44  46
ENDBRANCH  42  44
ENDBRANCH  39  41
BRANCH  39  49
ATOM     49  O   UNL     1      28.320   1.358 195.630  0.00  0.00    +0.000 OA
ATOM     50  H   UNL     1      27.394   1.651 195.524  0.00  0.00    +0.000 HD
ENDBRANCH  39  49
ENDBRANCH   6  39
BRANCH   9  51
ATOM     51  C   UNL     1      26.207  -3.011 195.835  0.00  0.00    +0.000 C 
BRANCH  51  52
ATOM     52  O   UNL     1      26.165  -4.236 196.359  0.00  0.00    +0.000 OA
ATOM     53  H   UNL     1      26.885  -4.788 196.000  0.00  0.00    +0.000 HD
ENDBRANCH  51  52
ENDBRANCH   9  51
TORSDOF 13
ENDMDL
MODEL 8
REMARK VINA RESULT:      -6.8      2.330      9.103
REMARK  Name = 101808841_CandidaspongiolideA.pdbqt.pdb
REMARK  13 active torsions:
REMARK  status: ('A' for Active; 'I' for Inactive)
REMARK    1  A    between atoms: C_6  and  C_39
REMARK    2  A    between atoms: C_9  and  O_27
REMARK    3  A    between atoms: C_9  and  C_51
REMARK    4  A    between atoms: C_10  and  O_29
REMARK    5  A    between atoms: C_14  and  O_31
REMARK    6  A    between atoms: C_15  and  O_33
REMARK    7  A    between atoms: C_20  and  O_35
REMARK    8  A    between atoms: O_35  and  C_37
REMARK    9  A    between atoms: C_39  and  C_41
REMARK   10  A    between atoms: C_39  and  O_49
REMARK   11  A    between atoms: C_42  and  C_44
REMARK   12  A    between atoms: C_44  and  C_46
REMARK   13  A    between atoms: C_51  and  O_52
REMARK                            x       y       z     vdW  Elec       q    Type
REMARK                         _______ _______ _______ _____ _____    ______ ____
ROOT
ATOM      1  O   UNL     1      23.430   0.421 196.664  0.00  0.00    +0.000 OA
ATOM      2  O   UNL     1      25.896   3.166 198.578  0.00  0.00    +0.000 OA
ATOM      3  O   UNL     1      22.620  -0.463 198.635  0.00  0.00    +0.000 OA
ATOM      4  O   UNL     1      28.796   2.330 192.715  0.00  0.00    +0.000 OA
ATOM      5  O   UNL     1      23.296   1.405 193.998  0.00  0.00    +0.000 OA
ATOM      6  C   UNL     1      25.898   0.960 197.754  0.00  0.00    +0.000 C 
ATOM      7  C   UNL     1      26.322   2.395 197.717  0.00  0.00    +0.000 C 
ATOM      8  C   UNL     1      24.626   0.639 197.204  0.00  0.00    +0.000 C 
ATOM      9  C   UNL     1      27.206   2.818 196.511  0.00  0.00    +0.000 C 
ATOM     10  C   UNL     1      26.370   2.919 195.246  0.00  0.00    +0.000 C 
ATOM     11  C   UNL     1      26.898   2.652 193.949  0.00  0.00    +0.000 C 
ATOM     12  C   UNL     1      22.468  -0.043 197.497  0.00  0.00    +0.000 C 
ATOM     13  C   UNL     1      27.571   2.355 192.695  0.00  0.00    +0.000 C 
ATOM     14  C   UNL     1      21.127   0.062 196.876  0.00  0.00    +0.000 C 
ATOM     15  C   UNL     1      20.881   0.458 195.504  0.00  0.00    +0.000 C 
ATOM     16  C   UNL     1      26.769   2.098 191.455  0.00  0.00    +0.000 C 
ATOM     17  C   UNL     1      21.495  -0.116 194.312  0.00  0.00    +0.000 C 
ATOM     18  C   UNL     1      22.141   0.757 192.003  0.00  0.00    +0.000 C 
ATOM     19  C   UNL     1      22.380   0.761 193.485  0.00  0.00    +0.000 C 
ATOM     20  C   UNL     1      23.176   1.294 191.115  0.00  0.00    +0.000 C 
ATOM     21  C   UNL     1      25.359   2.237 191.426  0.00  0.00    +0.000 C 
ATOM     22  C   UNL     1      24.072   2.386 191.420  0.00  0.00    +0.000 C 
ATOM     23  C   UNL     1      27.392   1.686 190.137  0.00  0.00    +0.000 C 
ATOM     24  C   UNL     1      21.802  -1.615 194.294  0.00  0.00    +0.000 C 
ATOM     25  C   UNL     1      20.806   0.298 191.428  0.00  0.00    +0.000 C 
ATOM     26  C   UNL     1      23.565   3.715 191.920  0.00  0.00    +0.000 C 
ENDROOT
BRANCH   9  27
ATOM     27  O   UNL     1      28.216   1.830 196.304  0.00  0.00    +0.000 OA
ATOM     28  H   UNL     1      27.849   1.169 195.689  0.00  0.00    +0.000 HD
ENDBRANCH   9  27
BRANCH  10  29
ATOM     29  O   UNL     1      25.053   3.315 195.364  0.00  0.00    +0.000 OA
ATOM     30  H   UNL     1      24.409   2.628 195.108  0.00  0.00    +0.000 HD
ENDBRANCH  10  29
BRANCH  14  31
ATOM     31  O   UNL     1      20.011  -0.180 197.657  0.00  0.00    +0.000 OA
ATOM     32  H   UNL     1      19.202  -0.215 197.104  0.00  0.00    +0.000 HD
ENDBRANCH  14  31
BRANCH  15  33
ATOM     33  O   UNL     1      19.648   1.054 195.302  0.00  0.00    +0.000 OA
ATOM     34  C   UNL     1      18.824   0.221 194.530  0.00  0.00    +0.000 C 
ENDBRANCH  15  33
BRANCH  20  35
ATOM     35  O   UNL     1      23.104   0.997 189.727  0.00  0.00    +0.000 OA
BRANCH  35  37
ATOM     36  O   UNL     1      21.685   2.706 189.016  0.00  0.00    +0.000 OA
ATOM     37  C   UNL     1      22.698   2.038 188.955  0.00  0.00    +0.000 C 
ATOM     38  C   UNL     1      23.614   2.370 187.836  0.00  0.00    +0.000 C 
ENDBRANCH  35  37
ENDBRANCH  20  35
BRANCH   6  39
ATOM     39  C   UNL     1      26.716  -0.031 198.422  0.00  0.00    +0.000 C 
BRANCH  39  41
ATOM     40  O   UNL     1      27.299  -2.509 198.264  0.00  0.00    +0.000 OA
ATOM     41  C   UNL     1      27.309  -1.182 197.682  0.00  0.00    +0.000 C 
ATOM     42  C   UNL     1      26.351  -2.225 197.324  0.00  0.00    +0.000 C 
ATOM     43  C   UNL     1      28.687  -0.964 196.969  0.00  0.00    +0.000 C 
BRANCH  42  44
ATOM     44  C   UNL     1      26.399  -2.908 196.063  0.00  0.00    +0.000 C 
ATOM     45  C   UNL     1      26.275  -4.410 196.012  0.00  0.00    +0.000 C 
BRANCH  44  46
ATOM     46  C   UNL     1      26.008  -2.209 194.890  0.00  0.00    +0.000 C 
ATOM     47  C   UNL     1      25.689  -1.707 193.849  0.00  0.00    +0.000 C 
ATOM     48  C   UNL     1      25.326  -1.187 192.450  0.00  0.00    +0.000 C 
ENDBRANCH  44  46
ENDBRANCH  42  44
ENDBRANCH  39  41
BRANCH  39  49
ATOM     49  O   UNL     1      27.183   0.342 199.674  0.00  0.00    +0.000 OA
ATOM     50  H   UNL     1      26.902  -0.276 200.377  0.00  0.00    +0.000 HD
ENDBRANCH  39  49
ENDBRANCH   6  39
BRANCH   9  51
ATOM     51  C   UNL     1      27.854   4.125 196.767  0.00  0.00    +0.000 C 
BRANCH  51  52
ATOM     52  O   UNL     1      28.454   5.290 197.015  0.00  0.00    +0.000 OA
ATOM     53  H   UNL     1      28.349   5.899 196.261  0.00  0.00    +0.000 HD
ENDBRANCH  51  52
ENDBRANCH   9  51
TORSDOF 13
ENDMDL
MODEL 9
REMARK VINA RESULT:      -6.8      2.433      7.904
REMARK  Name = 101808841_CandidaspongiolideA.pdbqt.pdb
REMARK  13 active torsions:
REMARK  status: ('A' for Active; 'I' for Inactive)
REMARK    1  A    between atoms: C_6  and  C_39
REMARK    2  A    between atoms: C_9  and  O_27
REMARK    3  A    between atoms: C_9  and  C_51
REMARK    4  A    between atoms: C_10  and  O_29
REMARK    5  A    between atoms: C_14  and  O_31
REMARK    6  A    between atoms: C_15  and  O_33
REMARK    7  A    between atoms: C_20  and  O_35
REMARK    8  A    between atoms: O_35  and  C_37
REMARK    9  A    between atoms: C_39  and  C_41
REMARK   10  A    between atoms: C_39  and  O_49
REMARK   11  A    between atoms: C_42  and  C_44
REMARK   12  A    between atoms: C_44  and  C_46
REMARK   13  A    between atoms: C_51  and  O_52
REMARK                            x       y       z     vdW  Elec       q    Type
REMARK                         _______ _______ _______ _____ _____    ______ ____
ROOT
ATOM      1  O   UNL     1      26.440   1.841 191.773  0.00  0.00    +0.000 OA
ATOM      2  O   UNL     1      28.225  -0.225 194.909  0.00  0.00    +0.000 OA
ATOM      3  O   UNL     1      28.442   2.633 190.948  0.00  0.00    +0.000 OA
ATOM      4  O   UNL     1      22.110   0.906 197.105  0.00  0.00    +0.000 OA
ATOM      5  O   UNL     1      23.829   0.718 191.649  0.00  0.00    +0.000 OA
ATOM      6  C   UNL     1      27.331   1.888 194.377  0.00  0.00    +0.000 C 
ATOM      7  C   UNL     1      27.305   0.574 195.093  0.00  0.00    +0.000 C 
ATOM      8  C   UNL     1      26.882   1.907 193.027  0.00  0.00    +0.000 C 
ATOM      9  C   UNL     1      26.043   0.287 195.951  0.00  0.00    +0.000 C 
ATOM     10  C   UNL     1      24.858  -0.052 195.062  0.00  0.00    +0.000 C 
ATOM     11  C   UNL     1      23.512   0.254 195.420  0.00  0.00    +0.000 C 
ATOM     12  C   UNL     1      27.335   2.133 190.801  0.00  0.00    +0.000 C 
ATOM     13  C   UNL     1      22.196   0.623 195.915  0.00  0.00    +0.000 C 
ATOM     14  C   UNL     1      26.835   1.718 189.470  0.00  0.00    +0.000 C 
ATOM     15  C   UNL     1      25.504   1.211 189.210  0.00  0.00    +0.000 C 
ATOM     16  C   UNL     1      21.021   0.643 194.984  0.00  0.00    +0.000 C 
ATOM     17  C   UNL     1      24.246   1.840 189.594  0.00  0.00    +0.000 C 
ATOM     18  C   UNL     1      21.919   1.007 190.233  0.00  0.00    +0.000 C 
ATOM     19  C   UNL     1      23.374   1.128 190.580  0.00  0.00    +0.000 C 
ATOM     20  C   UNL     1      20.964   0.656 191.287  0.00  0.00    +0.000 C 
ATOM     21  C   UNL     1      21.118   0.209 193.638  0.00  0.00    +0.000 C 
ATOM     22  C   UNL     1      21.227  -0.207 192.416  0.00  0.00    +0.000 C 
ATOM     23  C   UNL     1      19.642   1.110 195.401  0.00  0.00    +0.000 C 
ATOM     24  C   UNL     1      24.151   3.367 189.572  0.00  0.00    +0.000 C 
ATOM     25  C   UNL     1      21.447   1.146 188.790  0.00  0.00    +0.000 C 
ATOM     26  C   UNL     1      21.813  -1.586 192.245  0.00  0.00    +0.000 C 
ENDROOT
BRANCH   9  27
ATOM     27  O   UNL     1      25.717   1.453 196.709  0.00  0.00    +0.000 OA
ATOM     28  H   UNL     1      25.624   1.174 197.638  0.00  0.00    +0.000 HD
ENDBRANCH   9  27
BRANCH  10  29
ATOM     29  O   UNL     1      25.101  -0.709 193.873  0.00  0.00    +0.000 OA
ATOM     30  H   UNL     1      24.378  -0.629 193.222  0.00  0.00    +0.000 HD
ENDBRANCH  10  29
BRANCH  14  31
ATOM     31  O   UNL     1      27.702   1.759 188.392  0.00  0.00    +0.000 OA
ATOM     32  H   UNL     1      27.684   2.643 187.968  0.00  0.00    +0.000 HD
ENDBRANCH  14  31
BRANCH  15  33
ATOM     33  O   UNL     1      25.427   0.359 188.121  0.00  0.00    +0.000 OA
ATOM     34  C   UNL     1      24.419   0.781 187.242  0.00  0.00    +0.000 C 
ENDBRANCH  15  33
BRANCH  20  35
ATOM     35  O   UNL     1      19.579   0.860 191.048  0.00  0.00    +0.000 OA
BRANCH  35  37
ATOM     36  O   UNL     1      17.979   2.135 192.171  0.00  0.00    +0.000 OA
ATOM     37  C   UNL     1      19.065   1.964 191.651  0.00  0.00    +0.000 C 
ATOM     38  C   UNL     1      19.952   3.153 191.621  0.00  0.00    +0.000 C 
ENDBRANCH  35  37
ENDBRANCH  20  35
BRANCH   6  39
ATOM     39  C   UNL     1      27.893   3.062 195.013  0.00  0.00    +0.000 C 
BRANCH  39  41
ATOM     40  O   UNL     1      30.281   2.191 194.806  0.00  0.00    +0.000 OA
ATOM     41  C   UNL     1      29.366   3.279 195.086  0.00  0.00    +0.000 C 
ATOM     42  C   UNL     1      30.065   3.105 193.816  0.00  0.00    +0.000 C 
ATOM     43  C   UNL     1      29.927   4.097 196.300  0.00  0.00    +0.000 C 
BRANCH  42  44
ATOM     44  C   UNL     1      31.146   3.959 193.414  0.00  0.00    +0.000 C 
ATOM     45  C   UNL     1      32.546   3.689 193.904  0.00  0.00    +0.000 C 
BRANCH  44  46
ATOM     46  C   UNL     1      31.040   4.664 192.185  0.00  0.00    +0.000 C 
ATOM     47  C   UNL     1      31.050   5.286 191.160  0.00  0.00    +0.000 C 
ATOM     48  C   UNL     1      31.190   6.138 189.890  0.00  0.00    +0.000 C 
ENDBRANCH  44  46
ENDBRANCH  42  44
ENDBRANCH  39  41
BRANCH  39  49
ATOM     49  O   UNL     1      26.996   4.098 195.226  0.00  0.00    +0.000 OA
ATOM     50  H   UNL     1      26.070   3.791 195.260  0.00  0.00    +0.000 HD
ENDBRANCH  39  49
ENDBRANCH   6  39
BRANCH   9  51
ATOM     51  C   UNL     1      26.285  -0.841 196.882  0.00  0.00    +0.000 C 
BRANCH  51  52
ATOM     52  O   UNL     1      26.500  -1.873 197.698  0.00  0.00    +0.000 OA
ATOM     53  H   UNL     1      26.169  -1.677 198.594  0.00  0.00    +0.000 HD
ENDBRANCH  51  52
ENDBRANCH   9  51
TORSDOF 13
ENDMDL
