MODEL 1
REMARK VINA RESULT:      -6.9      0.000      0.000
REMARK  Name = 102471178_CandidaspongiolideCore.pdbqt.pdb
REMARK  13 active torsions:
REMARK  status: ('A' for Active; 'I' for Inactive)
REMARK    1  A    between atoms: C_6  and  C_39
REMARK    2  A    between atoms: C_8  and  O_27
REMARK    3  A    between atoms: C_8  and  C_51
REMARK    4  A    between atoms: C_10  and  O_29
REMARK    5  A    between atoms: C_15  and  O_31
REMARK    6  A    between atoms: C_16  and  O_33
REMARK    7  A    between atoms: C_21  and  O_35
REMARK    8  A    between atoms: O_35  and  C_37
REMARK    9  A    between atoms: C_39  and  C_41
REMARK   10  A    between atoms: C_39  and  O_49
REMARK   11  A    between atoms: C_42  and  C_44
REMARK   12  A    between atoms: C_44  and  C_46
REMARK   13  A    between atoms: C_51  and  O_52
REMARK                            x       y       z     vdW  Elec       q    Type
REMARK                         _______ _______ _______ _____ _____    ______ ____
ROOT
ATOM      1  O   UNL     1      38.021 -23.337 172.218  0.00  0.00    +0.000 OA
ATOM      2  O   UNL     1      37.657 -25.357 173.250  0.00  0.00    +0.000 OA
ATOM      3  O   UNL     1      38.091 -28.779 176.792  0.00  0.00    +0.000 OA
ATOM      4  O   UNL     1      35.917 -22.763 171.633  0.00  0.00    +0.000 OA
ATOM      5  O   UNL     1      34.820 -26.104 171.489  0.00  0.00    +0.000 OA
ATOM      6  C   UNL     1      39.438 -23.917 173.959  0.00  0.00    +0.000 C 
ATOM      7  C   UNL     1      40.308 -24.891 174.523  0.00  0.00    +0.000 C 
ATOM      8  C   UNL     1      41.328 -25.793 175.063  0.00  0.00    +0.000 C 
ATOM      9  C   UNL     1      38.269 -24.304 173.126  0.00  0.00    +0.000 C 
ATOM     10  C   UNL     1      40.860 -26.502 176.315  0.00  0.00    +0.000 C 
ATOM     11  C   UNL     1      39.558 -27.043 176.493  0.00  0.00    +0.000 C 
ATOM     12  C   UNL     1      38.215 -27.577 176.584  0.00  0.00    +0.000 C 
ATOM     13  C   UNL     1      36.893 -23.493 171.501  0.00  0.00    +0.000 C 
ATOM     14  C   UNL     1      37.031 -26.687 176.383  0.00  0.00    +0.000 C 
ATOM     15  C   UNL     1      36.991 -24.385 170.319  0.00  0.00    +0.000 C 
ATOM     16  C   UNL     1      37.584 -25.707 170.333  0.00  0.00    +0.000 C 
ATOM     17  C   UNL     1      36.885 -26.946 170.645  0.00  0.00    +0.000 C 
ATOM     18  C   UNL     1      35.847 -27.217 175.815  0.00  0.00    +0.000 C 
ATOM     19  C   UNL     1      35.794 -27.836 172.787  0.00  0.00    +0.000 C 
ATOM     20  C   UNL     1      37.124 -25.171 176.488  0.00  0.00    +0.000 C 
ATOM     21  C   UNL     1      34.710 -27.753 173.760  0.00  0.00    +0.000 C 
ATOM     22  C   UNL     1      35.744 -26.910 171.610  0.00  0.00    +0.000 C 
ATOM     23  C   UNL     1      34.826 -27.744 175.211  0.00  0.00    +0.000 C 
ATOM     24  C   UNL     1      37.078 -28.199 169.796  0.00  0.00    +0.000 C 
ATOM     25  C   UNL     1      37.049 -28.621 173.143  0.00  0.00    +0.000 C 
ATOM     26  C   UNL     1      33.746 -28.298 176.104  0.00  0.00    +0.000 C 
ENDROOT
BRANCH   8  27
ATOM     27  O   UNL     1      42.441 -24.962 175.400  0.00  0.00    +0.000 OA
ATOM     28  H   UNL     1      43.223 -25.528 175.238  0.00  0.00    +0.000 HD
ENDBRANCH   8  27
BRANCH  10  29
ATOM     29  O   UNL     1      41.792 -26.672 177.327  0.00  0.00    +0.000 OA
ATOM     30  H   UNL     1      42.654 -26.273 177.105  0.00  0.00    +0.000 HD
ENDBRANCH  10  29
BRANCH  15  31
ATOM     31  O   UNL     1      36.082 -24.195 169.290  0.00  0.00    +0.000 OA
ATOM     32  H   UNL     1      36.166 -24.909 168.623  0.00  0.00    +0.000 HD
ENDBRANCH  15  31
BRANCH  16  33
ATOM     33  O   UNL     1      38.711 -25.855 169.544  0.00  0.00    +0.000 OA
ATOM     34  C   UNL     1      39.855 -25.844 170.361  0.00  0.00    +0.000 C 
ENDBRANCH  16  33
BRANCH  21  35
ATOM     35  O   UNL     1      33.411 -27.865 173.201  0.00  0.00    +0.000 OA
BRANCH  35  37
ATOM     36  O   UNL     1      33.287 -30.200 173.138  0.00  0.00    +0.000 OA
ATOM     37  C   UNL     1      33.172 -29.089 172.654  0.00  0.00    +0.000 C 
ATOM     38  C   UNL     1      32.657 -29.052 171.260  0.00  0.00    +0.000 C 
ENDBRANCH  35  37
ENDBRANCH  21  35
BRANCH   6  39
ATOM     39  C   UNL     1      39.681 -22.533 174.297  0.00  0.00    +0.000 C 
BRANCH  39  41
ATOM     40  O   UNL     1      42.007 -22.543 173.253  0.00  0.00    +0.000 OA
ATOM     41  C   UNL     1      41.047 -21.956 174.161  0.00  0.00    +0.000 C 
ATOM     42  C   UNL     1      41.304 -21.457 172.813  0.00  0.00    +0.000 C 
ATOM     43  C   UNL     1      41.791 -21.443 175.446  0.00  0.00    +0.000 C 
BRANCH  42  44
ATOM     44  C   UNL     1      42.046 -20.269 172.516  0.00  0.00    +0.000 C 
ATOM     45  C   UNL     1      41.363 -18.921 172.542  0.00  0.00    +0.000 C 
BRANCH  44  46
ATOM     46  C   UNL     1      43.457 -20.249 172.649  0.00  0.00    +0.000 C 
ATOM     47  C   UNL     1      44.647 -20.192 172.790  0.00  0.00    +0.000 C 
ATOM     48  C   UNL     1      46.159 -20.068 173.019  0.00  0.00    +0.000 C 
ENDBRANCH  44  46
ENDBRANCH  42  44
ENDBRANCH  39  41
BRANCH  39  49
ATOM     49  O   UNL     1      38.611 -21.815 174.807  0.00  0.00    +0.000 OA
ATOM     50  H   UNL     1      38.497 -21.893 175.774  0.00  0.00    +0.000 HD
ENDBRANCH  39  49
ENDBRANCH   6  39
BRANCH   8  51
ATOM     51  C   UNL     1      41.786 -26.770 174.062  0.00  0.00    +0.000 C 
BRANCH  51  52
ATOM     52  O   UNL     1      42.210 -27.622 173.127  0.00  0.00    +0.000 OA
ATOM     53  H   UNL     1      42.159 -27.219 172.237  0.00  0.00    +0.000 HD
ENDBRANCH  51  52
ENDBRANCH   8  51
TORSDOF 13
ENDMDL
MODEL 2
REMARK VINA RESULT:      -6.8      1.548      2.223
REMARK  Name = 102471178_CandidaspongiolideCore.pdbqt.pdb
REMARK  13 active torsions:
REMARK  status: ('A' for Active; 'I' for Inactive)
REMARK    1  A    between atoms: C_6  and  C_39
REMARK    2  A    between atoms: C_8  and  O_27
REMARK    3  A    between atoms: C_8  and  C_51
REMARK    4  A    between atoms: C_10  and  O_29
REMARK    5  A    between atoms: C_15  and  O_31
REMARK    6  A    between atoms: C_16  and  O_33
REMARK    7  A    between atoms: C_21  and  O_35
REMARK    8  A    between atoms: O_35  and  C_37
REMARK    9  A    between atoms: C_39  and  C_41
REMARK   10  A    between atoms: C_39  and  O_49
REMARK   11  A    between atoms: C_42  and  C_44
REMARK   12  A    between atoms: C_44  and  C_46
REMARK   13  A    between atoms: C_51  and  O_52
REMARK                            x       y       z     vdW  Elec       q    Type
REMARK                         _______ _______ _______ _____ _____    ______ ____
ROOT
ATOM      1  O   UNL     1      37.469 -23.879 171.271  0.00  0.00    +0.000 OA
ATOM      2  O   UNL     1      37.639 -25.304 173.065  0.00  0.00    +0.000 OA
ATOM      3  O   UNL     1      39.744 -27.345 177.045  0.00  0.00    +0.000 OA
ATOM      4  O   UNL     1      35.370 -23.090 171.541  0.00  0.00    +0.000 OA
ATOM      5  O   UNL     1      34.287 -25.960 173.267  0.00  0.00    +0.000 OA
ATOM      6  C   UNL     1      39.562 -24.135 172.234  0.00  0.00    +0.000 C 
ATOM      7  C   UNL     1      40.578 -25.029 172.673  0.00  0.00    +0.000 C 
ATOM      8  C   UNL     1      41.714 -25.897 172.995  0.00  0.00    +0.000 C 
ATOM      9  C   UNL     1      38.124 -24.514 172.264  0.00  0.00    +0.000 C 
ATOM     10  C   UNL     1      41.931 -26.024 174.487  0.00  0.00    +0.000 C 
ATOM     11  C   UNL     1      40.890 -26.175 175.441  0.00  0.00    +0.000 C 
ATOM     12  C   UNL     1      39.769 -26.341 176.343  0.00  0.00    +0.000 C 
ATOM     13  C   UNL     1      36.130 -24.016 171.281  0.00  0.00    +0.000 C 
ATOM     14  C   UNL     1      38.664 -25.334 176.370  0.00  0.00    +0.000 C 
ATOM     15  C   UNL     1      35.598 -25.252 170.655  0.00  0.00    +0.000 C 
ATOM     16  C   UNL     1      36.090 -26.588 170.923  0.00  0.00    +0.000 C 
ATOM     17  C   UNL     1      35.622 -27.467 171.987  0.00  0.00    +0.000 C 
ATOM     18  C   UNL     1      37.346 -25.752 176.674  0.00  0.00    +0.000 C 
ATOM     19  C   UNL     1      35.751 -27.325 174.543  0.00  0.00    +0.000 C 
ATOM     20  C   UNL     1      38.827 -23.931 175.804  0.00  0.00    +0.000 C 
ATOM     21  C   UNL     1      35.312 -26.685 175.779  0.00  0.00    +0.000 C 
ATOM     22  C   UNL     1      35.129 -26.860 173.261  0.00  0.00    +0.000 C 
ATOM     23  C   UNL     1      36.149 -26.214 176.873  0.00  0.00    +0.000 C 
ATOM     24  C   UNL     1      35.333 -28.942 171.726  0.00  0.00    +0.000 C 
ATOM     25  C   UNL     1      36.998 -28.198 174.564  0.00  0.00    +0.000 C 
ATOM     26  C   UNL     1      35.661 -26.187 178.299  0.00  0.00    +0.000 C 
ENDROOT
BRANCH   8  27
ATOM     27  O   UNL     1      42.859 -25.265 172.419  0.00  0.00    +0.000 OA
ATOM     28  H   UNL     1      42.594 -24.328 172.321  0.00  0.00    +0.000 HD
ENDBRANCH   8  27
BRANCH  10  29
ATOM     29  O   UNL     1      43.244 -26.043 174.931  0.00  0.00    +0.000 OA
ATOM     30  H   UNL     1      43.722 -25.224 174.703  0.00  0.00    +0.000 HD
ENDBRANCH  10  29
BRANCH  15  31
ATOM     31  O   UNL     1      34.296 -25.225 170.179  0.00  0.00    +0.000 OA
ATOM     32  H   UNL     1      34.154 -24.435 169.614  0.00  0.00    +0.000 HD
ENDBRANCH  15  31
BRANCH  16  33
ATOM     33  O   UNL     1      36.657 -27.235 169.840  0.00  0.00    +0.000 OA
ATOM     34  C   UNL     1      38.058 -27.202 169.960  0.00  0.00    +0.000 C 
ENDBRANCH  16  33
BRANCH  21  35
ATOM     35  O   UNL     1      33.908 -26.692 175.975  0.00  0.00    +0.000 OA
BRANCH  35  37
ATOM     36  O   UNL     1      32.685 -28.467 175.067  0.00  0.00    +0.000 OA
ATOM     37  C   UNL     1      33.371 -27.942 175.925  0.00  0.00    +0.000 C 
ATOM     38  C   UNL     1      33.709 -28.806 177.086  0.00  0.00    +0.000 C 
ENDBRANCH  35  37
ENDBRANCH  21  35
BRANCH   6  39
ATOM     39  C   UNL     1      39.969 -22.807 171.838  0.00  0.00    +0.000 C 
BRANCH  39  41
ATOM     40  O   UNL     1      42.492 -22.493 172.036  0.00  0.00    +0.000 OA
ATOM     41  C   UNL     1      41.153 -22.165 172.474  0.00  0.00    +0.000 C 
ATOM     42  C   UNL     1      41.920 -21.361 171.526  0.00  0.00    +0.000 C 
ATOM     43  C   UNL     1      41.154 -21.933 174.027  0.00  0.00    +0.000 C 
BRANCH  42  44
ATOM     44  C   UNL     1      42.542 -20.111 171.841  0.00  0.00    +0.000 C 
ATOM     45  C   UNL     1      41.695 -18.889 172.113  0.00  0.00    +0.000 C 
BRANCH  44  46
ATOM     46  C   UNL     1      43.864 -20.072 172.352  0.00  0.00    +0.000 C 
ATOM     47  C   UNL     1      44.997 -20.022 172.741  0.00  0.00    +0.000 C 
ATOM     48  C   UNL     1      46.464 -19.920 173.179  0.00  0.00    +0.000 C 
ENDBRANCH  44  46
ENDBRANCH  42  44
ENDBRANCH  39  41
BRANCH  39  49
ATOM     49  O   UNL     1      39.173 -22.158 170.909  0.00  0.00    +0.000 OA
ATOM     50  H   UNL     1      39.659 -21.565 170.304  0.00  0.00    +0.000 HD
ENDBRANCH  39  49
ENDBRANCH   6  39
BRANCH   8  51
ATOM     51  C   UNL     1      41.581 -27.229 172.381  0.00  0.00    +0.000 C 
BRANCH  51  52
ATOM     52  O   UNL     1      41.418 -28.434 171.835  0.00  0.00    +0.000 OA
ATOM     53  H   UNL     1      40.587 -28.848 172.142  0.00  0.00    +0.000 HD
ENDBRANCH  51  52
ENDBRANCH   8  51
TORSDOF 13
ENDMDL
MODEL 3
REMARK VINA RESULT:      -6.4     25.013     28.989
REMARK  Name = 102471178_CandidaspongiolideCore.pdbqt.pdb
REMARK  13 active torsions:
REMARK  status: ('A' for Active; 'I' for Inactive)
REMARK    1  A    between atoms: C_6  and  C_39
REMARK    2  A    between atoms: C_8  and  O_27
REMARK    3  A    between atoms: C_8  and  C_51
REMARK    4  A    between atoms: C_10  and  O_29
REMARK    5  A    between atoms: C_15  and  O_31
REMARK    6  A    between atoms: C_16  and  O_33
REMARK    7  A    between atoms: C_21  and  O_35
REMARK    8  A    between atoms: O_35  and  C_37
REMARK    9  A    between atoms: C_39  and  C_41
REMARK   10  A    between atoms: C_39  and  O_49
REMARK   11  A    between atoms: C_42  and  C_44
REMARK   12  A    between atoms: C_44  and  C_46
REMARK   13  A    between atoms: C_51  and  O_52
REMARK                            x       y       z     vdW  Elec       q    Type
REMARK                         _______ _______ _______ _____ _____    ______ ____
ROOT
ATOM      1  O   UNL     1      12.271 -16.993 183.665  0.00  0.00    +0.000 OA
ATOM      2  O   UNL     1      12.762 -17.812 181.576  0.00  0.00    +0.000 OA
ATOM      3  O   UNL     1      13.602 -17.600 176.709  0.00  0.00    +0.000 OA
ATOM      4  O   UNL     1      13.858 -18.004 184.913  0.00  0.00    +0.000 OA
ATOM      5  O   UNL     1      14.161 -20.725 182.701  0.00  0.00    +0.000 OA
ATOM      6  C   UNL     1      11.845 -15.613 181.852  0.00  0.00    +0.000 C 
ATOM      7  C   UNL     1      11.228 -15.463 180.578  0.00  0.00    +0.000 C 
ATOM      8  C   UNL     1      10.483 -15.209 179.342  0.00  0.00    +0.000 C 
ATOM      9  C   UNL     1      12.355 -16.928 182.320  0.00  0.00    +0.000 C 
ATOM     10  C   UNL     1      11.392 -15.120 178.136  0.00  0.00    +0.000 C 
ATOM     11  C   UNL     1      12.496 -15.981 177.895  0.00  0.00    +0.000 C 
ATOM     12  C   UNL     1      13.593 -16.910 177.723  0.00  0.00    +0.000 C 
ATOM     13  C   UNL     1      12.842 -18.072 184.230  0.00  0.00    +0.000 C 
ATOM     14  C   UNL     1      14.645 -17.045 178.776  0.00  0.00    +0.000 C 
ATOM     15  C   UNL     1      12.017 -19.306 184.258  0.00  0.00    +0.000 C 
ATOM     16  C   UNL     1      11.301 -19.842 183.119  0.00  0.00    +0.000 C 
ATOM     17  C   UNL     1      11.845 -20.770 182.136  0.00  0.00    +0.000 C 
ATOM     18  C   UNL     1      15.276 -18.296 178.977  0.00  0.00    +0.000 C 
ATOM     19  C   UNL     1      13.698 -20.555 180.379  0.00  0.00    +0.000 C 
ATOM     20  C   UNL     1      14.870 -15.982 179.842  0.00  0.00    +0.000 C 
ATOM     21  C   UNL     1      15.121 -20.434 180.077  0.00  0.00    +0.000 C 
ATOM     22  C   UNL     1      13.303 -20.712 181.816  0.00  0.00    +0.000 C 
ATOM     23  C   UNL     1      15.752 -19.488 179.168  0.00  0.00    +0.000 C 
ATOM     24  C   UNL     1      11.046 -21.983 181.665  0.00  0.00    +0.000 C 
ATOM     25  C   UNL     1      12.682 -20.225 179.295  0.00  0.00    +0.000 C 
ATOM     26  C   UNL     1      17.025 -19.816 178.431  0.00  0.00    +0.000 C 
ENDROOT
BRANCH   8  27
ATOM     27  O   UNL     1       9.846 -13.943 179.528  0.00  0.00    +0.000 OA
ATOM     28  H   UNL     1       8.900 -14.164 179.647  0.00  0.00    +0.000 HD
ENDBRANCH   8  27
BRANCH  10  29
ATOM     29  O   UNL     1      11.081 -14.160 177.185  0.00  0.00    +0.000 OA
ATOM     30  H   UNL     1      11.291 -13.258 177.489  0.00  0.00    +0.000 HD
ENDBRANCH  10  29
BRANCH  15  31
ATOM     31  O   UNL     1      12.304 -20.251 185.230  0.00  0.00    +0.000 OA
ATOM     32  H   UNL     1      12.430 -19.819 186.102  0.00  0.00    +0.000 HD
ENDBRANCH  15  31
BRANCH  16  33
ATOM     33  O   UNL     1       9.924 -19.872 183.249  0.00  0.00    +0.000 OA
ATOM     34  C   UNL     1       9.364 -18.818 182.505  0.00  0.00    +0.000 C 
ENDBRANCH  16  33
BRANCH  21  35
ATOM     35  O   UNL     1      15.923 -21.472 180.615  0.00  0.00    +0.000 OA
BRANCH  35  37
ATOM     36  O   UNL     1      15.596 -23.052 178.921  0.00  0.00    +0.000 OA
ATOM     37  C   UNL     1      15.638 -22.693 180.084  0.00  0.00    +0.000 C 
ATOM     38  C   UNL     1      15.372 -23.756 181.088  0.00  0.00    +0.000 C 
ENDBRANCH  35  37
ENDBRANCH  21  35
BRANCH   6  39
ATOM     39  C   UNL     1      12.039 -14.419 182.642  0.00  0.00    +0.000 C 
BRANCH  39  41
ATOM     40  O   UNL     1      11.316 -12.050 183.246  0.00  0.00    +0.000 OA
ATOM     41  C   UNL     1      11.067 -13.295 182.553  0.00  0.00    +0.000 C 
ATOM     42  C   UNL     1      11.646 -12.112 181.922  0.00  0.00    +0.000 C 
ATOM     43  C   UNL     1       9.528 -13.610 182.585  0.00  0.00    +0.000 C 
BRANCH  42  44
ATOM     44  C   UNL     1      10.943 -11.245 181.026  0.00  0.00    +0.000 C 
ATOM     45  C   UNL     1       9.957 -10.235 181.565  0.00  0.00    +0.000 C 
BRANCH  44  46
ATOM     46  C   UNL     1      11.456 -10.978 179.731  0.00  0.00    +0.000 C 
ATOM     47  C   UNL     1      11.909 -10.797 178.636  0.00  0.00    +0.000 C 
ATOM     48  C   UNL     1      12.505 -10.636 177.231  0.00  0.00    +0.000 C 
ENDBRANCH  44  46
ENDBRANCH  42  44
ENDBRANCH  39  41
BRANCH  39  49
ATOM     49  O   UNL     1      13.189 -14.357 183.412  0.00  0.00    +0.000 OA
ATOM     50  H   UNL     1      13.645 -13.494 183.389  0.00  0.00    +0.000 HD
ENDBRANCH  39  49
ENDBRANCH   6  39
BRANCH   8  51
ATOM     51  C   UNL     1       9.429 -16.212 179.117  0.00  0.00    +0.000 C 
BRANCH  51  52
ATOM     52  O   UNL     1       8.444 -17.089 178.919  0.00  0.00    +0.000 OA
ATOM     53  H   UNL     1       7.582 -16.633 178.835  0.00  0.00    +0.000 HD
ENDBRANCH  51  52
ENDBRANCH   8  51
TORSDOF 13
ENDMDL
MODEL 4
REMARK VINA RESULT:      -6.4      1.883      2.248
REMARK  Name = 102471178_CandidaspongiolideCore.pdbqt.pdb
REMARK  13 active torsions:
REMARK  status: ('A' for Active; 'I' for Inactive)
REMARK    1  A    between atoms: C_6  and  C_39
REMARK    2  A    between atoms: C_8  and  O_27
REMARK    3  A    between atoms: C_8  and  C_51
REMARK    4  A    between atoms: C_10  and  O_29
REMARK    5  A    between atoms: C_15  and  O_31
REMARK    6  A    between atoms: C_16  and  O_33
REMARK    7  A    between atoms: C_21  and  O_35
REMARK    8  A    between atoms: O_35  and  C_37
REMARK    9  A    between atoms: C_39  and  C_41
REMARK   10  A    between atoms: C_39  and  O_49
REMARK   11  A    between atoms: C_42  and  C_44
REMARK   12  A    between atoms: C_44  and  C_46
REMARK   13  A    between atoms: C_51  and  O_52
REMARK                            x       y       z     vdW  Elec       q    Type
REMARK                         _______ _______ _______ _____ _____    ______ ____
ROOT
ATOM      1  O   UNL     1      38.131 -23.100 171.659  0.00  0.00    +0.000 OA
ATOM      2  O   UNL     1      38.029 -24.826 173.171  0.00  0.00    +0.000 OA
ATOM      3  O   UNL     1      39.497 -27.588 176.999  0.00  0.00    +0.000 OA
ATOM      4  O   UNL     1      36.009 -22.332 171.734  0.00  0.00    +0.000 OA
ATOM      5  O   UNL     1      34.693 -25.443 172.722  0.00  0.00    +0.000 OA
ATOM      6  C   UNL     1      40.047 -23.565 172.877  0.00  0.00    +0.000 C 
ATOM      7  C   UNL     1      40.990 -24.542 173.303  0.00  0.00    +0.000 C 
ATOM      8  C   UNL     1      42.068 -25.476 173.637  0.00  0.00    +0.000 C 
ATOM      9  C   UNL     1      38.627 -23.915 172.612  0.00  0.00    +0.000 C 
ATOM     10  C   UNL     1      42.049 -25.872 175.097  0.00  0.00    +0.000 C 
ATOM     11  C   UNL     1      40.871 -26.172 175.833  0.00  0.00    +0.000 C 
ATOM     12  C   UNL     1      39.623 -26.475 176.502  0.00  0.00    +0.000 C 
ATOM     13  C   UNL     1      36.808 -23.211 171.434  0.00  0.00    +0.000 C 
ATOM     14  C   UNL     1      38.519 -25.468 176.536  0.00  0.00    +0.000 C 
ATOM     15  C   UNL     1      36.394 -24.304 170.519  0.00  0.00    +0.000 C 
ATOM     16  C   UNL     1      36.850 -25.675 170.617  0.00  0.00    +0.000 C 
ATOM     17  C   UNL     1      36.228 -26.721 171.418  0.00  0.00    +0.000 C 
ATOM     18  C   UNL     1      37.173 -25.908 176.549  0.00  0.00    +0.000 C 
ATOM     19  C   UNL     1      35.950 -27.042 173.946  0.00  0.00    +0.000 C 
ATOM     20  C   UNL     1      38.756 -23.989 176.265  0.00  0.00    +0.000 C 
ATOM     21  C   UNL     1      35.315 -26.626 175.192  0.00  0.00    +0.000 C 
ATOM     22  C   UNL     1      35.534 -26.344 172.687  0.00  0.00    +0.000 C 
ATOM     23  C   UNL     1      35.964 -26.375 176.471  0.00  0.00    +0.000 C 
ATOM     24  C   UNL     1      35.998 -28.120 170.853  0.00  0.00    +0.000 C 
ATOM     25  C   UNL     1      37.186 -27.929 174.005  0.00  0.00    +0.000 C 
ATOM     26  C   UNL     1      35.256 -26.594 177.783  0.00  0.00    +0.000 C 
ENDROOT
BRANCH   8  27
ATOM     27  O   UNL     1      43.285 -24.773 173.372  0.00  0.00    +0.000 OA
ATOM     28  H   UNL     1      43.106 -23.859 173.673  0.00  0.00    +0.000 HD
ENDBRANCH   8  27
BRANCH  10  29
ATOM     29  O   UNL     1      43.275 -25.996 175.731  0.00  0.00    +0.000 OA
ATOM     30  H   UNL     1      43.395 -26.876 176.133  0.00  0.00    +0.000 HD
ENDBRANCH  10  29
BRANCH  15  31
ATOM     31  O   UNL     1      35.183 -24.166 169.858  0.00  0.00    +0.000 OA
ATOM     32  H   UNL     1      35.068 -24.887 169.202  0.00  0.00    +0.000 HD
ENDBRANCH  15  31
BRANCH  16  33
ATOM     33  O   UNL     1      37.587 -26.129 169.538  0.00  0.00    +0.000 OA
ATOM     34  C   UNL     1      38.497 -25.131 169.144  0.00  0.00    +0.000 C 
ENDBRANCH  16  33
BRANCH  21  35
ATOM     35  O   UNL     1      33.898 -26.640 175.161  0.00  0.00    +0.000 OA
BRANCH  35  37
ATOM     36  O   UNL     1      33.275 -28.662 176.159  0.00  0.00    +0.000 OA
ATOM     37  C   UNL     1      33.378 -27.898 175.217  0.00  0.00    +0.000 C 
ATOM     38  C   UNL     1      32.819 -28.393 173.932  0.00  0.00    +0.000 C 
ENDBRANCH  35  37
ENDBRANCH  21  35
BRANCH   6  39
ATOM     39  C   UNL     1      40.500 -22.195 172.796  0.00  0.00    +0.000 C 
BRANCH  39  41
ATOM     40  O   UNL     1      41.555 -22.377 170.482  0.00  0.00    +0.000 OA
ATOM     41  C   UNL     1      41.549 -21.809 171.812  0.00  0.00    +0.000 C 
ATOM     42  C   UNL     1      40.988 -21.144 170.639  0.00  0.00    +0.000 C 
ATOM     43  C   UNL     1      43.028 -21.622 172.306  0.00  0.00    +0.000 C 
BRANCH  42  44
ATOM     44  C   UNL     1      41.604 -20.044 169.959  0.00  0.00    +0.000 C 
ATOM     45  C   UNL     1      41.684 -18.689 170.624  0.00  0.00    +0.000 C 
BRANCH  44  46
ATOM     46  C   UNL     1      42.529 -20.274 168.910  0.00  0.00    +0.000 C 
ATOM     47  C   UNL     1      43.275 -20.483 167.994  0.00  0.00    +0.000 C 
ATOM     48  C   UNL     1      44.172 -20.758 166.781  0.00  0.00    +0.000 C 
ENDBRANCH  44  46
ENDBRANCH  42  44
ENDBRANCH  39  41
BRANCH  39  49
ATOM     49  O   UNL     1      39.964 -21.303 173.710  0.00  0.00    +0.000 OA
ATOM     50  H   UNL     1      38.991 -21.227 173.678  0.00  0.00    +0.000 HD
ENDBRANCH  39  49
ENDBRANCH   6  39
BRANCH   8  51
ATOM     51  C   UNL     1      42.047 -26.673 172.781  0.00  0.00    +0.000 C 
BRANCH  51  52
ATOM     52  O   UNL     1      41.985 -27.762 172.014  0.00  0.00    +0.000 OA
ATOM     53  H   UNL     1      41.198 -28.300 172.233  0.00  0.00    +0.000 HD
ENDBRANCH  51  52
ENDBRANCH   8  51
TORSDOF 13
ENDMDL
MODEL 5
REMARK VINA RESULT:      -6.2      2.974      7.266
REMARK  Name = 102471178_CandidaspongiolideCore.pdbqt.pdb
REMARK  13 active torsions:
REMARK  status: ('A' for Active; 'I' for Inactive)
REMARK    1  A    between atoms: C_6  and  C_39
REMARK    2  A    between atoms: C_8  and  O_27
REMARK    3  A    between atoms: C_8  and  C_51
REMARK    4  A    between atoms: C_10  and  O_29
REMARK    5  A    between atoms: C_15  and  O_31
REMARK    6  A    between atoms: C_16  and  O_33
REMARK    7  A    between atoms: C_21  and  O_35
REMARK    8  A    between atoms: O_35  and  C_37
REMARK    9  A    between atoms: C_39  and  C_41
REMARK   10  A    between atoms: C_39  and  O_49
REMARK   11  A    between atoms: C_42  and  C_44
REMARK   12  A    between atoms: C_44  and  C_46
REMARK   13  A    between atoms: C_51  and  O_52
REMARK                            x       y       z     vdW  Elec       q    Type
REMARK                         _______ _______ _______ _____ _____    ______ ____
ROOT
ATOM      1  O   UNL     1      43.308 -23.795 172.989  0.00  0.00    +0.000 OA
ATOM      2  O   UNL     1      41.266 -23.251 172.091  0.00  0.00    +0.000 OA
ATOM      3  O   UNL     1      38.136 -21.099 168.927  0.00  0.00    +0.000 OA
ATOM      4  O   UNL     1      43.085 -26.025 173.258  0.00  0.00    +0.000 OA
ATOM      5  O   UNL     1      39.581 -25.853 173.540  0.00  0.00    +0.000 OA
ATOM      6  C   UNL     1      43.238 -22.025 171.493  0.00  0.00    +0.000 C 
ATOM      7  C   UNL     1      42.636 -20.791 171.124  0.00  0.00    +0.000 C 
ATOM      8  C   UNL     1      42.157 -19.446 170.793  0.00  0.00    +0.000 C 
ATOM      9  C   UNL     1      42.474 -23.085 172.203  0.00  0.00    +0.000 C 
ATOM     10  C   UNL     1      41.286 -19.439 169.555  0.00  0.00    +0.000 C 
ATOM     11  C   UNL     1      40.298 -20.417 169.261  0.00  0.00    +0.000 C 
ATOM     12  C   UNL     1      39.305 -21.448 169.048  0.00  0.00    +0.000 C 
ATOM     13  C   UNL     1      42.771 -24.883 173.571  0.00  0.00    +0.000 C 
ATOM     14  C   UNL     1      39.701 -22.889 169.025  0.00  0.00    +0.000 C 
ATOM     15  C   UNL     1      42.015 -24.643 174.826  0.00  0.00    +0.000 C 
ATOM     16  C   UNL     1      41.006 -23.618 174.995  0.00  0.00    +0.000 C 
ATOM     17  C   UNL     1      39.586 -23.770 174.702  0.00  0.00    +0.000 C 
ATOM     18  C   UNL     1      38.790 -23.872 169.483  0.00  0.00    +0.000 C 
ATOM     19  C   UNL     1      38.290 -24.141 172.522  0.00  0.00    +0.000 C 
ATOM     20  C   UNL     1      41.140 -23.335 168.808  0.00  0.00    +0.000 C 
ATOM     21  C   UNL     1      37.937 -25.027 171.418  0.00  0.00    +0.000 C 
ATOM     22  C   UNL     1      39.169 -24.693 173.603  0.00  0.00    +0.000 C 
ATOM     23  C   UNL     1      37.944 -24.711 169.997  0.00  0.00    +0.000 C 
ATOM     24  C   UNL     1      38.520 -23.265 175.670  0.00  0.00    +0.000 C 
ATOM     25  C   UNL     1      38.012 -22.650 172.391  0.00  0.00    +0.000 C 
ATOM     26  C   UNL     1      37.002 -25.376 169.026  0.00  0.00    +0.000 C 
ENDROOT
BRANCH   8  27
ATOM     27  O   UNL     1      43.329 -18.671 170.529  0.00  0.00    +0.000 OA
ATOM     28  H   UNL     1      43.187 -18.316 169.629  0.00  0.00    +0.000 HD
ENDBRANCH   8  27
BRANCH  10  29
ATOM     29  O   UNL     1      41.440 -18.371 168.685  0.00  0.00    +0.000 OA
ATOM     30  H   UNL     1      40.646 -18.223 168.138  0.00  0.00    +0.000 HD
ENDBRANCH  10  29
BRANCH  15  31
ATOM     31  O   UNL     1      41.889 -25.700 175.714  0.00  0.00    +0.000 OA
ATOM     32  H   UNL     1      42.767 -26.093 175.906  0.00  0.00    +0.000 HD
ENDBRANCH  15  31
BRANCH  16  33
ATOM     33  O   UNL     1      41.307 -22.643 175.928  0.00  0.00    +0.000 OA
ATOM     34  C   UNL     1      41.643 -21.450 175.262  0.00  0.00    +0.000 C 
ENDBRANCH  16  33
BRANCH  21  35
ATOM     35  O   UNL     1      37.372 -26.265 171.818  0.00  0.00    +0.000 OA
BRANCH  35  37
ATOM     36  O   UNL     1      35.213 -25.457 172.212  0.00  0.00    +0.000 OA
ATOM     37  C   UNL     1      36.196 -26.120 172.489  0.00  0.00    +0.000 C 
ATOM     38  C   UNL     1      36.090 -26.927 173.732  0.00  0.00    +0.000 C 
ENDBRANCH  35  37
ENDBRANCH  21  35
BRANCH   6  39
ATOM     39  C   UNL     1      44.603 -22.252 171.074  0.00  0.00    +0.000 C 
BRANCH  39  41
ATOM     40  O   UNL     1      46.121 -23.874 169.824  0.00  0.00    +0.000 OA
ATOM     41  C   UNL     1      44.892 -23.116 169.896  0.00  0.00    +0.000 C 
ATOM     42  C   UNL     1      45.002 -24.526 170.261  0.00  0.00    +0.000 C 
ATOM     43  C   UNL     1      44.508 -22.606 168.462  0.00  0.00    +0.000 C 
BRANCH  42  44
ATOM     44  C   UNL     1      44.518 -25.610 169.461  0.00  0.00    +0.000 C 
ATOM     45  C   UNL     1      45.489 -26.517 168.742  0.00  0.00    +0.000 C 
BRANCH  44  46
ATOM     46  C   UNL     1      43.222 -26.142 169.679  0.00  0.00    +0.000 C 
ATOM     47  C   UNL     1      42.140 -26.607 169.907  0.00  0.00    +0.000 C 
ATOM     48  C   UNL     1      40.776 -27.209 170.268  0.00  0.00    +0.000 C 
ENDBRANCH  44  46
ENDBRANCH  42  44
ENDBRANCH  39  41
BRANCH  39  49
ATOM     49  O   UNL     1      45.600 -21.689 171.854  0.00  0.00    +0.000 OA
ATOM     50  H   UNL     1      46.148 -22.336 172.338  0.00  0.00    +0.000 HD
ENDBRANCH  39  49
ENDBRANCH   6  39
BRANCH   8  51
ATOM     51  C   UNL     1      41.449 -18.818 171.921  0.00  0.00    +0.000 C 
BRANCH  51  52
ATOM     52  O   UNL     1      40.840 -18.219 172.945  0.00  0.00    +0.000 OA
ATOM     53  H   UNL     1      40.940 -18.743 173.765  0.00  0.00    +0.000 HD
ENDBRANCH  51  52
ENDBRANCH   8  51
TORSDOF 13
ENDMDL
MODEL 6
REMARK VINA RESULT:      -6.1      2.892      8.085
REMARK  Name = 102471178_CandidaspongiolideCore.pdbqt.pdb
REMARK  13 active torsions:
REMARK  status: ('A' for Active; 'I' for Inactive)
REMARK    1  A    between atoms: C_6  and  C_39
REMARK    2  A    between atoms: C_8  and  O_27
REMARK    3  A    between atoms: C_8  and  C_51
REMARK    4  A    between atoms: C_10  and  O_29
REMARK    5  A    between atoms: C_15  and  O_31
REMARK    6  A    between atoms: C_16  and  O_33
REMARK    7  A    between atoms: C_21  and  O_35
REMARK    8  A    between atoms: O_35  and  C_37
REMARK    9  A    between atoms: C_39  and  C_41
REMARK   10  A    between atoms: C_39  and  O_49
REMARK   11  A    between atoms: C_42  and  C_44
REMARK   12  A    between atoms: C_44  and  C_46
REMARK   13  A    between atoms: C_51  and  O_52
REMARK                            x       y       z     vdW  Elec       q    Type
REMARK                         _______ _______ _______ _____ _____    ______ ____
ROOT
ATOM      1  O   UNL     1      38.415 -25.479 171.647  0.00  0.00    +0.000 OA
ATOM      2  O   UNL     1      40.027 -23.871 171.346  0.00  0.00    +0.000 OA
ATOM      3  O   UNL     1      43.805 -20.948 172.620  0.00  0.00    +0.000 OA
ATOM      4  O   UNL     1      38.701 -26.735 169.793  0.00  0.00    +0.000 OA
ATOM      5  O   UNL     1      40.024 -24.058 167.929  0.00  0.00    +0.000 OA
ATOM      6  C   UNL     1      39.416 -24.604 173.546  0.00  0.00    +0.000 C 
ATOM      7  C   UNL     1      39.781 -23.443 174.282  0.00  0.00    +0.000 C 
ATOM      8  C   UNL     1      40.037 -22.288 175.147  0.00  0.00    +0.000 C 
ATOM      9  C   UNL     1      39.347 -24.597 172.061  0.00  0.00    +0.000 C 
ATOM     10  C   UNL     1      41.509 -21.949 175.228  0.00  0.00    +0.000 C 
ATOM     11  C   UNL     1      42.399 -21.961 174.121  0.00  0.00    +0.000 C 
ATOM     12  C   UNL     1      43.232 -21.985 172.936  0.00  0.00    +0.000 C 
ATOM     13  C   UNL     1      38.359 -25.682 170.318  0.00  0.00    +0.000 C 
ATOM     14  C   UNL     1      43.340 -23.227 172.112  0.00  0.00    +0.000 C 
ATOM     15  C   UNL     1      37.568 -24.694 169.542  0.00  0.00    +0.000 C 
ATOM     16  C   UNL     1      37.690 -23.257 169.675  0.00  0.00    +0.000 C 
ATOM     17  C   UNL     1      38.621 -22.413 168.937  0.00  0.00    +0.000 C 
ATOM     18  C   UNL     1      43.542 -23.122 170.714  0.00  0.00    +0.000 C 
ATOM     19  C   UNL     1      41.178 -22.240 168.928  0.00  0.00    +0.000 C 
ATOM     20  C   UNL     1      42.956 -24.598 172.650  0.00  0.00    +0.000 C 
ATOM     21  C   UNL     1      42.466 -22.831 168.578  0.00  0.00    +0.000 C 
ATOM     22  C   UNL     1      39.940 -22.982 168.524  0.00  0.00    +0.000 C 
ATOM     23  C   UNL     1      43.640 -22.956 169.431  0.00  0.00    +0.000 C 
ATOM     24  C   UNL     1      38.172 -21.095 168.314  0.00  0.00    +0.000 C 
ATOM     25  C   UNL     1      41.139 -21.085 169.919  0.00  0.00    +0.000 C 
ATOM     26  C   UNL     1      45.039 -22.950 168.871  0.00  0.00    +0.000 C 
ENDROOT
BRANCH   8  27
ATOM     27  O   UNL     1      39.585 -22.672 176.448  0.00  0.00    +0.000 OA
ATOM     28  H   UNL     1      39.683 -21.860 176.987  0.00  0.00    +0.000 HD
ENDBRANCH   8  27
BRANCH  10  29
ATOM     29  O   UNL     1      41.996 -21.554 176.464  0.00  0.00    +0.000 OA
ATOM     30  H   UNL     1      41.864 -20.601 176.625  0.00  0.00    +0.000 HD
ENDBRANCH  10  29
BRANCH  15  31
ATOM     31  O   UNL     1      37.051 -25.098 168.321  0.00  0.00    +0.000 OA
ATOM     32  H   UNL     1      37.750 -25.520 167.776  0.00  0.00    +0.000 HD
ENDBRANCH  15  31
BRANCH  16  33
ATOM     33  O   UNL     1      36.558 -22.610 170.136  0.00  0.00    +0.000 OA
ATOM     34  C   UNL     1      36.721 -22.304 171.500  0.00  0.00    +0.000 C 
ENDBRANCH  16  33
BRANCH  21  35
ATOM     35  O   UNL     1      42.608 -23.155 167.205  0.00  0.00    +0.000 OA
BRANCH  35  37
ATOM     36  O   UNL     1      43.203 -21.014 166.476  0.00  0.00    +0.000 OA
ATOM     37  C   UNL     1      42.585 -22.060 166.396  0.00  0.00    +0.000 C 
ATOM     38  C   UNL     1      41.693 -22.184 165.214  0.00  0.00    +0.000 C 
ENDBRANCH  35  37
ENDBRANCH  21  35
BRANCH   6  39
ATOM     39  C   UNL     1      39.200 -25.824 174.291  0.00  0.00    +0.000 C 
BRANCH  39  41
ATOM     40  O   UNL     1      37.652 -24.625 175.924  0.00  0.00    +0.000 OA
ATOM     41  C   UNL     1      38.405 -25.802 175.551  0.00  0.00    +0.000 C 
ATOM     42  C   UNL     1      36.977 -25.635 175.298  0.00  0.00    +0.000 C 
ATOM     43  C   UNL     1      38.998 -26.474 176.840  0.00  0.00    +0.000 C 
BRANCH  42  44
ATOM     44  C   UNL     1      35.941 -26.291 176.037  0.00  0.00    +0.000 C 
ATOM     45  C   UNL     1      35.592 -25.827 177.432  0.00  0.00    +0.000 C 
BRANCH  44  46
ATOM     46  C   UNL     1      34.940 -27.037 175.366  0.00  0.00    +0.000 C 
ATOM     47  C   UNL     1      34.077 -27.685 174.842  0.00  0.00    +0.000 C 
ATOM     48  C   UNL     1      32.944 -28.524 174.236  0.00  0.00    +0.000 C 
ENDBRANCH  44  46
ENDBRANCH  42  44
ENDBRANCH  39  41
BRANCH  39  49
ATOM     49  O   UNL     1      39.818 -26.968 173.814  0.00  0.00    +0.000 OA
ATOM     50  H   UNL     1      39.333 -27.795 173.997  0.00  0.00    +0.000 HD
ENDBRANCH  39  49
ENDBRANCH   6  39
BRANCH   8  51
ATOM     51  C   UNL     1      39.261 -21.107 174.734  0.00  0.00    +0.000 C 
BRANCH  51  52
ATOM     52  O   UNL     1      38.596 -20.018 174.346  0.00  0.00    +0.000 OA
ATOM     53  H   UNL     1      37.642 -20.209 174.241  0.00  0.00    +0.000 HD
ENDBRANCH  51  52
ENDBRANCH   8  51
TORSDOF 13
ENDMDL
MODEL 7
REMARK VINA RESULT:      -6.1     30.705     34.067
REMARK  Name = 102471178_CandidaspongiolideCore.pdbqt.pdb
REMARK  13 active torsions:
REMARK  status: ('A' for Active; 'I' for Inactive)
REMARK    1  A    between atoms: C_6  and  C_39
REMARK    2  A    between atoms: C_8  and  O_27
REMARK    3  A    between atoms: C_8  and  C_51
REMARK    4  A    between atoms: C_10  and  O_29
REMARK    5  A    between atoms: C_15  and  O_31
REMARK    6  A    between atoms: C_16  and  O_33
REMARK    7  A    between atoms: C_21  and  O_35
REMARK    8  A    between atoms: O_35  and  C_37
REMARK    9  A    between atoms: C_39  and  C_41
REMARK   10  A    between atoms: C_39  and  O_49
REMARK   11  A    between atoms: C_42  and  C_44
REMARK   12  A    between atoms: C_44  and  C_46
REMARK   13  A    between atoms: C_51  and  O_52
REMARK                            x       y       z     vdW  Elec       q    Type
REMARK                         _______ _______ _______ _____ _____    ______ ____
ROOT
ATOM      1  O   UNL     1      30.350  -0.915 193.386  0.00  0.00    +0.000 OA
ATOM      2  O   UNL     1      28.578   0.407 192.763  0.00  0.00    +0.000 OA
ATOM      3  O   UNL     1      26.031   3.504 189.871  0.00  0.00    +0.000 OA
ATOM      4  O   UNL     1      29.285  -2.804 194.013  0.00  0.00    +0.000 OA
ATOM      5  O   UNL     1      26.313  -1.107 194.835  0.00  0.00    +0.000 OA
ATOM      6  C   UNL     1      30.706   0.611 191.678  0.00  0.00    +0.000 C 
ATOM      7  C   UNL     1      30.607   1.960 191.235  0.00  0.00    +0.000 C 
ATOM      8  C   UNL     1      30.669   3.355 190.791  0.00  0.00    +0.000 C 
ATOM      9  C   UNL     1      29.740   0.037 192.650  0.00  0.00    +0.000 C 
ATOM     10  C   UNL     1      29.641   3.663 189.725  0.00  0.00    +0.000 C 
ATOM     11  C   UNL     1      28.299   3.196 189.744  0.00  0.00    +0.000 C 
ATOM     12  C   UNL     1      26.947   2.689 189.850  0.00  0.00    +0.000 C 
ATOM     13  C   UNL     1      29.546  -1.622 194.201  0.00  0.00    +0.000 C 
ATOM     14  C   UNL     1      26.697   1.220 189.975  0.00  0.00    +0.000 C 
ATOM     15  C   UNL     1      29.241  -0.999 195.513  0.00  0.00    +0.000 C 
ATOM     16  C   UNL     1      28.807   0.371 195.693  0.00  0.00    +0.000 C 
ATOM     17  C   UNL     1      27.426   0.835 195.661  0.00  0.00    +0.000 C 
ATOM     18  C   UNL     1      25.579   0.763 190.715  0.00  0.00    +0.000 C 
ATOM     19  C   UNL     1      25.665   0.929 193.801  0.00  0.00    +0.000 C 
ATOM     20  C   UNL     1      27.740   0.180 189.593  0.00  0.00    +0.000 C 
ATOM     21  C   UNL     1      24.753   0.217 192.912  0.00  0.00    +0.000 C 
ATOM     22  C   UNL     1      26.443   0.119 194.793  0.00  0.00    +0.000 C 
ATOM     23  C   UNL     1      24.590   0.410 191.477  0.00  0.00    +0.000 C 
ATOM     24  C   UNL     1      26.895   1.813 196.705  0.00  0.00    +0.000 C 
ATOM     25  C   UNL     1      26.009   2.381 193.499  0.00  0.00    +0.000 C 
ATOM     26  C   UNL     1      23.277   0.161 190.782  0.00  0.00    +0.000 C 
ENDROOT
BRANCH   8  27
ATOM     27  O   UNL     1      31.973   3.524 190.229  0.00  0.00    +0.000 OA
ATOM     28  H   UNL     1      32.154   4.481 190.322  0.00  0.00    +0.000 HD
ENDBRANCH   8  27
BRANCH  10  29
ATOM     29  O   UNL     1      30.036   4.500 188.694  0.00  0.00    +0.000 OA
ATOM     30  H   UNL     1      30.999   4.654 188.693  0.00  0.00    +0.000 HD
ENDBRANCH  10  29
BRANCH  15  31
ATOM     31  O   UNL     1      28.878  -1.838 196.556  0.00  0.00    +0.000 OA
ATOM     32  H   UNL     1      29.478  -2.613 196.597  0.00  0.00    +0.000 HD
ENDBRANCH  15  31
BRANCH  16  33
ATOM     33  O   UNL     1      29.675   1.175 196.410  0.00  0.00    +0.000 OA
ATOM     34  C   UNL     1      30.306   2.076 195.534  0.00  0.00    +0.000 C 
ENDBRANCH  16  33
BRANCH  21  35
ATOM     35  O   UNL     1      23.824  -0.623 193.576  0.00  0.00    +0.000 OA
BRANCH  35  37
ATOM     36  O   UNL     1      23.090   0.009 195.706  0.00  0.00    +0.000 OA
ATOM     37  C   UNL     1      23.063   0.043 194.488  0.00  0.00    +0.000 C 
ATOM     38  C   UNL     1      22.074   0.981 193.899  0.00  0.00    +0.000 C 
ENDBRANCH  35  37
ENDBRANCH  21  35
BRANCH   6  39
ATOM     39  C   UNL     1      31.732  -0.212 191.079  0.00  0.00    +0.000 C 
BRANCH  39  41
ATOM     40  O   UNL     1      33.648   0.833 192.399  0.00  0.00    +0.000 OA
ATOM     41  C   UNL     1      33.167   0.166 191.209  0.00  0.00    +0.000 C 
ATOM     42  C   UNL     1      33.821  -0.520 192.319  0.00  0.00    +0.000 C 
ATOM     43  C   UNL     1      33.925   0.729 189.954  0.00  0.00    +0.000 C 
BRANCH  42  44
ATOM     44  C   UNL     1      35.165  -1.012 192.290  0.00  0.00    +0.000 C 
ATOM     45  C   UNL     1      36.302  -0.145 192.780  0.00  0.00    +0.000 C 
BRANCH  44  46
ATOM     46  C   UNL     1      35.422  -2.406 192.257  0.00  0.00    +0.000 C 
ATOM     47  C   UNL     1      35.687  -3.575 192.232  0.00  0.00    +0.000 C 
ATOM     48  C   UNL     1      36.095  -5.054 192.215  0.00  0.00    +0.000 C 
ENDBRANCH  44  46
ENDBRANCH  42  44
ENDBRANCH  39  41
BRANCH  39  49
ATOM     49  O   UNL     1      31.308  -1.304 190.340  0.00  0.00    +0.000 OA
ATOM     50  H   UNL     1      31.391  -1.194 189.374  0.00  0.00    +0.000 HD
ENDBRANCH  39  49
ENDBRANCH   6  39
BRANCH   8  51
ATOM     51  C   UNL     1      30.541   4.297 191.915  0.00  0.00    +0.000 C 
BRANCH  51  52
ATOM     52  O   UNL     1      30.383   5.160 192.919  0.00  0.00    +0.000 OA
ATOM     53  H   UNL     1      30.192   4.692 193.757  0.00  0.00    +0.000 HD
ENDBRANCH  51  52
ENDBRANCH   8  51
TORSDOF 13
ENDMDL
MODEL 8
REMARK VINA RESULT:      -5.9      4.140      8.608
REMARK  Name = 102471178_CandidaspongiolideCore.pdbqt.pdb
REMARK  13 active torsions:
REMARK  status: ('A' for Active; 'I' for Inactive)
REMARK    1  A    between atoms: C_6  and  C_39
REMARK    2  A    between atoms: C_8  and  O_27
REMARK    3  A    between atoms: C_8  and  C_51
REMARK    4  A    between atoms: C_10  and  O_29
REMARK    5  A    between atoms: C_15  and  O_31
REMARK    6  A    between atoms: C_16  and  O_33
REMARK    7  A    between atoms: C_21  and  O_35
REMARK    8  A    between atoms: O_35  and  C_37
REMARK    9  A    between atoms: C_39  and  C_41
REMARK   10  A    between atoms: C_39  and  O_49
REMARK   11  A    between atoms: C_42  and  C_44
REMARK   12  A    between atoms: C_44  and  C_46
REMARK   13  A    between atoms: C_51  and  O_52
REMARK                            x       y       z     vdW  Elec       q    Type
REMARK                         _______ _______ _______ _____ _____    ______ ____
ROOT
ATOM      1  O   UNL     1      37.548 -22.494 169.087  0.00  0.00    +0.000 OA
ATOM      2  O   UNL     1      39.436 -22.084 170.329  0.00  0.00    +0.000 OA
ATOM      3  O   UNL     1      43.957 -20.307 171.249  0.00  0.00    +0.000 OA
ATOM      4  O   UNL     1      35.930 -21.924 170.555  0.00  0.00    +0.000 OA
ATOM      5  O   UNL     1      37.939 -22.611 173.361  0.00  0.00    +0.000 OA
ATOM      6  C   UNL     1      39.441 -21.792 167.949  0.00  0.00    +0.000 C 
ATOM      7  C   UNL     1      40.829 -21.980 167.700  0.00  0.00    +0.000 C 
ATOM      8  C   UNL     1      42.215 -22.232 167.294  0.00  0.00    +0.000 C 
ATOM      9  C   UNL     1      38.833 -22.125 169.264  0.00  0.00    +0.000 C 
ATOM     10  C   UNL     1      43.166 -21.185 167.832  0.00  0.00    +0.000 C 
ATOM     11  C   UNL     1      43.112 -20.649 169.146  0.00  0.00    +0.000 C 
ATOM     12  C   UNL     1      42.992 -20.166 170.506  0.00  0.00    +0.000 C 
ATOM     13  C   UNL     1      36.836 -22.675 170.215  0.00  0.00    +0.000 C 
ATOM     14  C   UNL     1      41.712 -19.561 170.985  0.00  0.00    +0.000 C 
ATOM     15  C   UNL     1      36.982 -23.998 170.871  0.00  0.00    +0.000 C 
ATOM     16  C   UNL     1      38.249 -24.645 171.146  0.00  0.00    +0.000 C 
ATOM     17  C   UNL     1      39.048 -24.465 172.351  0.00  0.00    +0.000 C 
ATOM     18  C   UNL     1      41.335 -19.706 172.342  0.00  0.00    +0.000 C 
ATOM     19  C   UNL     1      40.307 -22.453 173.319  0.00  0.00    +0.000 C 
ATOM     20  C   UNL     1      40.647 -19.044 170.028  0.00  0.00    +0.000 C 
ATOM     21  C   UNL     1      40.257 -21.139 173.951  0.00  0.00    +0.000 C 
ATOM     22  C   UNL     1      39.006 -23.149 173.057  0.00  0.00    +0.000 C 
ATOM     23  C   UNL     1      41.007 -19.949 173.574  0.00  0.00    +0.000 C 
ATOM     24  C   UNL     1      39.671 -25.656 173.073  0.00  0.00    +0.000 C 
ATOM     25  C   UNL     1      41.613 -22.924 172.694  0.00  0.00    +0.000 C 
ATOM     26  C   UNL     1      41.405 -18.902 174.582  0.00  0.00    +0.000 C 
ENDROOT
BRANCH   8  27
ATOM     27  O   UNL     1      42.219 -22.160 165.867  0.00  0.00    +0.000 OA
ATOM     28  H   UNL     1      41.846 -23.019 165.581  0.00  0.00    +0.000 HD
ENDBRANCH   8  27
BRANCH  10  29
ATOM     29  O   UNL     1      44.186 -20.771 166.989  0.00  0.00    +0.000 OA
ATOM     30  H   UNL     1      43.887 -20.683 166.065  0.00  0.00    +0.000 HD
ENDBRANCH  10  29
BRANCH  15  31
ATOM     31  O   UNL     1      35.948 -24.430 171.688  0.00  0.00    +0.000 OA
ATOM     32  H   UNL     1      35.643 -25.321 171.412  0.00  0.00    +0.000 HD
ENDBRANCH  15  31
BRANCH  16  33
ATOM     33  O   UNL     1      38.456 -25.840 170.482  0.00  0.00    +0.000 OA
ATOM     34  C   UNL     1      39.331 -25.626 169.402  0.00  0.00    +0.000 C 
ENDBRANCH  16  33
BRANCH  21  35
ATOM     35  O   UNL     1      39.517 -21.099 175.161  0.00  0.00    +0.000 OA
BRANCH  35  37
ATOM     36  O   UNL     1      41.163 -22.071 176.509  0.00  0.00    +0.000 OA
ATOM     37  C   UNL     1      40.019 -21.928 176.118  0.00  0.00    +0.000 C 
ATOM     38  C   UNL     1      38.999 -22.756 176.813  0.00  0.00    +0.000 C 
ENDBRANCH  35  37
ENDBRANCH  21  35
BRANCH   6  39
ATOM     39  C   UNL     1      38.655 -21.180 166.903  0.00  0.00    +0.000 C 
BRANCH  39  41
ATOM     40  O   UNL     1      37.296 -23.136 165.991  0.00  0.00    +0.000 OA
ATOM     41  C   UNL     1      38.159 -21.998 165.761  0.00  0.00    +0.000 C 
ATOM     42  C   UNL     1      36.704 -21.955 165.641  0.00  0.00    +0.000 C 
ATOM     43  C   UNL     1      39.131 -22.314 164.568  0.00  0.00    +0.000 C 
BRANCH  42  44
ATOM     44  C   UNL     1      35.995 -21.916 164.399  0.00  0.00    +0.000 C 
ATOM     45  C   UNL     1      35.245 -23.136 163.914  0.00  0.00    +0.000 C 
BRANCH  44  46
ATOM     46  C   UNL     1      35.586 -20.679 163.840  0.00  0.00    +0.000 C 
ATOM     47  C   UNL     1      35.283 -19.631 163.342  0.00  0.00    +0.000 C 
ATOM     48  C   UNL     1      34.950 -18.298 162.659  0.00  0.00    +0.000 C 
ENDBRANCH  44  46
ENDBRANCH  42  44
ENDBRANCH  39  41
BRANCH  39  49
ATOM     49  O   UNL     1      38.455 -19.812 166.988  0.00  0.00    +0.000 OA
ATOM     50  H   UNL     1      39.268 -19.279 166.903  0.00  0.00    +0.000 HD
ENDBRANCH  39  49
ENDBRANCH   6  39
BRANCH   8  51
ATOM     51  C   UNL     1      42.666 -23.580 167.676  0.00  0.00    +0.000 C 
BRANCH  51  52
ATOM     52  O   UNL     1      43.033 -24.813 168.026  0.00  0.00    +0.000 OA
ATOM     53  H   UNL     1      42.584 -25.091 168.851  0.00  0.00    +0.000 HD
ENDBRANCH  51  52
ENDBRANCH   8  51
TORSDOF 13
ENDMDL
MODEL 9
REMARK VINA RESULT:      -5.8     23.261     27.243
REMARK  Name = 102471178_CandidaspongiolideCore.pdbqt.pdb
REMARK  13 active torsions:
REMARK  status: ('A' for Active; 'I' for Inactive)
REMARK    1  A    between atoms: C_6  and  C_39
REMARK    2  A    between atoms: C_8  and  O_27
REMARK    3  A    between atoms: C_8  and  C_51
REMARK    4  A    between atoms: C_10  and  O_29
REMARK    5  A    between atoms: C_15  and  O_31
REMARK    6  A    between atoms: C_16  and  O_33
REMARK    7  A    between atoms: C_21  and  O_35
REMARK    8  A    between atoms: O_35  and  C_37
REMARK    9  A    between atoms: C_39  and  C_41
REMARK   10  A    between atoms: C_39  and  O_49
REMARK   11  A    between atoms: C_42  and  C_44
REMARK   12  A    between atoms: C_44  and  C_46
REMARK   13  A    between atoms: C_51  and  O_52
REMARK                            x       y       z     vdW  Elec       q    Type
REMARK                         _______ _______ _______ _____ _____    ______ ____
ROOT
ATOM      1  O   UNL     1      12.888 -20.023 181.321  0.00  0.00    +0.000 OA
ATOM      2  O   UNL     1      12.943 -21.605 179.657  0.00  0.00    +0.000 OA
ATOM      3  O   UNL     1      11.998 -25.956 177.508  0.00  0.00    +0.000 OA
ATOM      4  O   UNL     1      12.307 -18.181 180.152  0.00  0.00    +0.000 OA
ATOM      5  O   UNL     1      13.680 -19.397 177.148  0.00  0.00    +0.000 OA
ATOM      6  C   UNL     1      12.313 -22.194 181.894  0.00  0.00    +0.000 C 
ATOM      7  C   UNL     1      12.663 -23.573 181.873  0.00  0.00    +0.000 C 
ATOM      8  C   UNL     1      13.053 -24.978 182.015  0.00  0.00    +0.000 C 
ATOM      9  C   UNL     1      12.740 -21.265 180.815  0.00  0.00    +0.000 C 
ATOM     10  C   UNL     1      12.246 -25.888 181.115  0.00  0.00    +0.000 C 
ATOM     11  C   UNL     1      11.903 -25.590 179.769  0.00  0.00    +0.000 C 
ATOM     12  C   UNL     1      11.611 -25.211 178.402  0.00  0.00    +0.000 C 
ATOM     13  C   UNL     1      13.125 -19.054 180.418  0.00  0.00    +0.000 C 
ATOM     14  C   UNL     1      10.901 -23.930 178.106  0.00  0.00    +0.000 C 
ATOM     15  C   UNL     1      14.536 -18.897 179.986  0.00  0.00    +0.000 C 
ATOM     16  C   UNL     1      15.394 -19.987 179.567  0.00  0.00    +0.000 C 
ATOM     17  C   UNL     1      15.510 -20.500 178.208  0.00  0.00    +0.000 C 
ATOM     18  C   UNL     1      11.185 -23.235 176.905  0.00  0.00    +0.000 C 
ATOM     19  C   UNL     1      13.865 -21.713 176.661  0.00  0.00    +0.000 C 
ATOM     20  C   UNL     1      10.101 -23.179 179.162  0.00  0.00    +0.000 C 
ATOM     21  C   UNL     1      12.664 -21.662 175.835  0.00  0.00    +0.000 C 
ATOM     22  C   UNL     1      14.318 -20.440 177.309  0.00  0.00    +0.000 C 
ATOM     23  C   UNL     1      11.555 -22.606 175.832  0.00  0.00    +0.000 C 
ATOM     24  C   UNL     1      16.872 -20.804 177.590  0.00  0.00    +0.000 C 
ATOM     25  C   UNL     1      14.426 -23.069 177.069  0.00  0.00    +0.000 C 
ATOM     26  C   UNL     1      10.734 -22.872 174.596  0.00  0.00    +0.000 C 
ENDROOT
BRANCH   8  27
ATOM     27  O   UNL     1      12.776 -25.321 183.375  0.00  0.00    +0.000 OA
ATOM     28  H   UNL     1      12.887 -24.480 183.864  0.00  0.00    +0.000 HD
ENDBRANCH   8  27
BRANCH  10  29
ATOM     29  O   UNL     1      11.867 -27.115 181.639  0.00  0.00    +0.000 OA
ATOM     30  H   UNL     1      12.552 -27.797 181.514  0.00  0.00    +0.000 HD
ENDBRANCH  10  29
BRANCH  15  31
ATOM     31  O   UNL     1      14.927 -17.662 179.495  0.00  0.00    +0.000 OA
ATOM     32  H   UNL     1      15.852 -17.466 179.755  0.00  0.00    +0.000 HD
ENDBRANCH  15  31
BRANCH  16  33
ATOM     33  O   UNL     1      16.498 -20.210 180.370  0.00  0.00    +0.000 OA
ATOM     34  C   UNL     1      16.197 -21.219 181.303  0.00  0.00    +0.000 C 
ENDBRANCH  16  33
BRANCH  21  35
ATOM     35  O   UNL     1      12.692 -20.671 174.821  0.00  0.00    +0.000 OA
BRANCH  35  37
ATOM     36  O   UNL     1      13.859 -21.874 173.188  0.00  0.00    +0.000 OA
ATOM     37  C   UNL     1      13.656 -20.896 173.886  0.00  0.00    +0.000 C 
ATOM     38  C   UNL     1      14.577 -19.752 173.662  0.00  0.00    +0.000 C 
ENDBRANCH  35  37
ENDBRANCH  21  35
BRANCH   6  39
ATOM     39  C   UNL     1      11.447 -21.744 182.960  0.00  0.00    +0.000 C 
BRANCH  39  41
ATOM     40  O   UNL     1      13.337 -21.554 184.660  0.00  0.00    +0.000 OA
ATOM     41  C   UNL     1      11.932 -21.736 184.368  0.00  0.00    +0.000 C 
ATOM     42  C   UNL     1      12.528 -20.456 184.740  0.00  0.00    +0.000 C 
ATOM     43  C   UNL     1      11.312 -22.750 185.395  0.00  0.00    +0.000 C 
BRANCH  42  44
ATOM     44  C   UNL     1      12.382 -19.836 186.022  0.00  0.00    +0.000 C 
ATOM     45  C   UNL     1      11.046 -19.271 186.445  0.00  0.00    +0.000 C 
BRANCH  44  46
ATOM     46  C   UNL     1      13.287 -20.132 187.072  0.00  0.00    +0.000 C 
ATOM     47  C   UNL     1      14.047 -20.336 187.977  0.00  0.00    +0.000 C 
ATOM     48  C   UNL     1      14.998 -20.535 189.164  0.00  0.00    +0.000 C 
ENDBRANCH  44  46
ENDBRANCH  42  44
ENDBRANCH  39  41
BRANCH  39  49
ATOM     49  O   UNL     1      10.152 -21.396 182.611  0.00  0.00    +0.000 OA
ATOM     50  H   UNL     1       9.776 -21.921 181.879  0.00  0.00    +0.000 HD
ENDBRANCH  39  49
ENDBRANCH   6  39
BRANCH   8  51
ATOM     51  C   UNL     1      14.493 -25.178 181.787  0.00  0.00    +0.000 C 
BRANCH  51  52
ATOM     52  O   UNL     1      15.790 -25.361 181.537  0.00  0.00    +0.000 OA
ATOM     53  H   UNL     1      16.308 -24.566 181.775  0.00  0.00    +0.000 HD
ENDBRANCH  51  52
ENDBRANCH   8  51
TORSDOF 13
ENDMDL
