MODEL 1
REMARK VINA RESULT:      -7.7      0.000      0.000
REMARK  Name = 10288191_Binimetinib.pdbqt.pdb
REMARK  6 active torsions:
REMARK  status: ('A' for Active; 'I' for Inactive)
REMARK    1  A    between atoms: C_6  and  N_21
REMARK    2  A    between atoms: C_7  and  C_14
REMARK    3  A    between atoms: N_13  and  O_16
REMARK    4  A    between atoms: O_16  and  C_17
REMARK    5  A    between atoms: C_18  and  O_19
REMARK    6  A    between atoms: N_21  and  C_25
REMARK                            x       y       z     vdW  Elec       q    Type
REMARK                         _______ _______ _______ _____ _____    ______ ____
ROOT
ATOM      1  F   UNL     1      24.660   4.863 188.633  0.00  0.00    +0.000 F 
ATOM      2  N   UNL     1      25.236   2.151 192.203  0.00  0.00    +0.000 N 
ATOM      3  N   UNL     1      26.195   3.508 190.751  0.00  0.00    +0.000 NA
ATOM      4  C   UNL     1      24.209   2.593 191.420  0.00  0.00    +0.000 A 
ATOM      5  C   UNL     1      24.833   3.448 190.516  0.00  0.00    +0.000 A 
ATOM      6  C   UNL     1      22.647   3.885 189.481  0.00  0.00    +0.000 A 
ATOM      7  C   UNL     1      22.062   2.991 190.417  0.00  0.00    +0.000 A 
ATOM      8  C   UNL     1      22.837   2.338 191.393  0.00  0.00    +0.000 A 
ATOM      9  C   UNL     1      24.045   4.092 189.543  0.00  0.00    +0.000 A 
ATOM     10  C   UNL     1      26.404   2.712 191.782  0.00  0.00    +0.000 A 
ATOM     11  C   UNL     1      25.110   1.257 193.307  0.00  0.00    +0.000 C 
ENDROOT
BRANCH   7  14
ATOM     12  O   UNL     1      19.787   3.594 190.246  0.00  0.00    +0.000 OA
ATOM     13  N   UNL     1      20.245   1.353 190.521  0.00  0.00    +0.000 N 
ATOM     14  C   UNL     1      20.596   2.681 190.386  0.00  0.00    +0.000 C 
ATOM     15  H   UNL     1      20.850   0.684 190.981  0.00  0.00    +0.000 HD
BRANCH  13  16
ATOM     16  O   UNL     1      18.870   1.150 190.769  0.00  0.00    +0.000 OA
BRANCH  16  17
ATOM     17  C   UNL     1      18.757   0.919 192.075  0.00  0.00    +0.000 C 
ATOM     18  C   UNL     1      18.636   0.642 193.578  0.00  0.00    +0.000 C 
BRANCH  18  19
ATOM     19  O   UNL     1      18.536   0.396 194.879  0.00  0.00    +0.000 OA
ATOM     20  H   UNL     1      17.641   0.609 195.193  0.00  0.00    +0.000 HD
ENDBRANCH  18  19
ENDBRANCH  16  17
ENDBRANCH  13  16
ENDBRANCH   7  14
BRANCH   6  21
ATOM     21  N   UNL     1      21.837   4.565 188.536  0.00  0.00    +0.000 N 
ATOM     22  H   UNL     1      21.476   5.467 188.884  0.00  0.00    +0.000 HD
BRANCH  21  25
ATOM     23 BR   UNL     1      21.650   4.027 182.464  0.00  0.00    +0.000 Br
ATOM     24  F   UNL     1      20.255   2.690 187.276  0.00  0.00    +0.000 F 
ATOM     25  C   UNL     1      21.787   4.495 187.128  0.00  0.00    +0.000 A 
ATOM     26  C   UNL     1      20.994   3.512 186.513  0.00  0.00    +0.000 A 
ATOM     27  C   UNL     1      22.555   5.314 186.296  0.00  0.00    +0.000 A 
ATOM     28  C   UNL     1      20.942   3.363 185.131  0.00  0.00    +0.000 A 
ATOM     29  C   UNL     1      22.515   5.181 184.909  0.00  0.00    +0.000 A 
ATOM     30  C   UNL     1      21.707   4.206 184.337  0.00  0.00    +0.000 A 
ENDBRANCH  21  25
ENDBRANCH   6  21
TORSDOF 6
ENDMDL
MODEL 2
REMARK VINA RESULT:      -7.6      2.938      5.251
REMARK  Name = 10288191_Binimetinib.pdbqt.pdb
REMARK  6 active torsions:
REMARK  status: ('A' for Active; 'I' for Inactive)
REMARK    1  A    between atoms: C_6  and  N_21
REMARK    2  A    between atoms: C_7  and  C_14
REMARK    3  A    between atoms: N_13  and  O_16
REMARK    4  A    between atoms: O_16  and  C_17
REMARK    5  A    between atoms: C_18  and  O_19
REMARK    6  A    between atoms: N_21  and  C_25
REMARK                            x       y       z     vdW  Elec       q    Type
REMARK                         _______ _______ _______ _____ _____    ______ ____
ROOT
ATOM      1  F   UNL     1      19.113   3.015 189.542  0.00  0.00    +0.000 F 
ATOM      2  N   UNL     1      20.984  -0.147 192.176  0.00  0.00    +0.000 N 
ATOM      3  N   UNL     1      19.121   0.659 191.310  0.00  0.00    +0.000 NA
ATOM      4  C   UNL     1      21.392   0.905 191.407  0.00  0.00    +0.000 A 
ATOM      5  C   UNL     1      20.206   1.395 190.869  0.00  0.00    +0.000 A 
ATOM      6  C   UNL     1      21.501   3.115 189.683  0.00  0.00    +0.000 A 
ATOM      7  C   UNL     1      22.680   2.586 190.271  0.00  0.00    +0.000 A 
ATOM      8  C   UNL     1      22.636   1.477 191.137  0.00  0.00    +0.000 A 
ATOM      9  C   UNL     1      20.265   2.506 190.006  0.00  0.00    +0.000 A 
ATOM     10  C   UNL     1      19.630  -0.268 192.099  0.00  0.00    +0.000 A 
ATOM     11  C   UNL     1      21.840  -1.003 192.929  0.00  0.00    +0.000 C 
ENDROOT
BRANCH   7  14
ATOM     12  O   UNL     1      24.196   4.394 190.267  0.00  0.00    +0.000 OA
ATOM     13  N   UNL     1      24.996   2.373 189.504  0.00  0.00    +0.000 N 
ATOM     14  C   UNL     1      24.021   3.204 190.017  0.00  0.00    +0.000 C 
ATOM     15  H   UNL     1      24.764   1.538 188.980  0.00  0.00    +0.000 HD
BRANCH  13  16
ATOM     16  O   UNL     1      26.133   3.057 189.023  0.00  0.00    +0.000 OA
BRANCH  16  17
ATOM     17  C   UNL     1      27.166   2.237 189.205  0.00  0.00    +0.000 C 
ATOM     18  C   UNL     1      28.361   1.299 189.403  0.00  0.00    +0.000 C 
BRANCH  18  19
ATOM     19  O   UNL     1      29.402   0.489 189.569  0.00  0.00    +0.000 OA
ATOM     20  H   UNL     1      29.627   0.422 190.513  0.00  0.00    +0.000 HD
ENDBRANCH  18  19
ENDBRANCH  16  17
ENDBRANCH  13  16
ENDBRANCH   7  14
BRANCH   6  21
ATOM     21  N   UNL     1      21.577   4.204 188.778  0.00  0.00    +0.000 N 
ATOM     22  H   UNL     1      21.944   5.067 189.209  0.00  0.00    +0.000 HD
BRANCH  21  25
ATOM     23 BR   UNL     1      22.025   4.607 182.709  0.00  0.00    +0.000 Br
ATOM     24  F   UNL     1      23.428   5.837 187.547  0.00  0.00    +0.000 F 
ATOM     25  C   UNL     1      21.680   4.243 187.371  0.00  0.00    +0.000 A 
ATOM     26  C   UNL     1      22.613   5.104 186.770  0.00  0.00    +0.000 A 
ATOM     27  C   UNL     1      20.840   3.515 186.525  0.00  0.00    +0.000 A 
ATOM     28  C   UNL     1      22.728   5.221 185.389  0.00  0.00    +0.000 A 
ATOM     29  C   UNL     1      20.941   3.617 185.138  0.00  0.00    +0.000 A 
ATOM     30  C   UNL     1      21.886   4.469 184.581  0.00  0.00    +0.000 A 
ENDBRANCH  21  25
ENDBRANCH   6  21
TORSDOF 6
ENDMDL
MODEL 3
REMARK VINA RESULT:      -7.3      4.668      8.379
REMARK  Name = 10288191_Binimetinib.pdbqt.pdb
REMARK  6 active torsions:
REMARK  status: ('A' for Active; 'I' for Inactive)
REMARK    1  A    between atoms: C_6  and  N_21
REMARK    2  A    between atoms: C_7  and  C_14
REMARK    3  A    between atoms: N_13  and  O_16
REMARK    4  A    between atoms: O_16  and  C_17
REMARK    5  A    between atoms: C_18  and  O_19
REMARK    6  A    between atoms: N_21  and  C_25
REMARK                            x       y       z     vdW  Elec       q    Type
REMARK                         _______ _______ _______ _____ _____    ______ ____
ROOT
ATOM      1  F   UNL     1      18.605   0.914 193.144  0.00  0.00    +0.000 F 
ATOM      2  N   UNL     1      18.378   2.193 188.814  0.00  0.00    +0.000 N 
ATOM      3  N   UNL     1      17.360   1.174 190.487  0.00  0.00    +0.000 NA
ATOM      4  C   UNL     1      19.247   2.304 189.861  0.00  0.00    +0.000 A 
ATOM      5  C   UNL     1      18.586   1.661 190.904  0.00  0.00    +0.000 A 
ATOM      6  C   UNL     1      20.492   2.168 192.371  0.00  0.00    +0.000 A 
ATOM      7  C   UNL     1      21.129   2.800 191.270  0.00  0.00    +0.000 A 
ATOM      8  C   UNL     1      20.513   2.874 190.007  0.00  0.00    +0.000 A 
ATOM      9  C   UNL     1      19.216   1.593 192.161  0.00  0.00    +0.000 A 
ATOM     10  C   UNL     1      17.266   1.516 189.216  0.00  0.00    +0.000 A 
ATOM     11  C   UNL     1      18.585   2.718 187.506  0.00  0.00    +0.000 C 
ENDROOT
BRANCH   7  14
ATOM     12  O   UNL     1      22.830   3.933 192.450  0.00  0.00    +0.000 OA
ATOM     13  N   UNL     1      23.323   3.280 190.296  0.00  0.00    +0.000 N 
ATOM     14  C   UNL     1      22.500   3.389 191.399  0.00  0.00    +0.000 C 
ATOM     15  H   UNL     1      22.952   3.171 189.361  0.00  0.00    +0.000 HD
BRANCH  13  16
ATOM     16  O   UNL     1      24.479   4.088 190.366  0.00  0.00    +0.000 OA
BRANCH  16  17
ATOM     17  C   UNL     1      24.655   4.593 189.146  0.00  0.00    +0.000 C 
ATOM     18  C   UNL     1      24.862   5.185 187.748  0.00  0.00    +0.000 C 
BRANCH  18  19
ATOM     19  O   UNL     1      25.046   5.705 186.539  0.00  0.00    +0.000 OA
ATOM     20  H   UNL     1      24.326   5.434 185.945  0.00  0.00    +0.000 HD
ENDBRANCH  18  19
ENDBRANCH  16  17
ENDBRANCH  13  16
ENDBRANCH   7  14
BRANCH   6  21
ATOM     21  N   UNL     1      21.115   2.147 193.645  0.00  0.00    +0.000 N 
ATOM     22  H   UNL     1      20.713   2.831 194.305  0.00  0.00    +0.000 HD
BRANCH  21  25
ATOM     23 BR   UNL     1      24.190  -2.107 196.750  0.00  0.00    +0.000 Br
ATOM     24  F   UNL     1      20.283   1.243 196.114  0.00  0.00    +0.000 F 
ATOM     25  C   UNL     1      21.828   1.133 194.318  0.00  0.00    +0.000 A 
ATOM     26  C   UNL     1      21.397   0.711 195.587  0.00  0.00    +0.000 A 
ATOM     27  C   UNL     1      23.003   0.568 193.818  0.00  0.00    +0.000 A 
ATOM     28  C   UNL     1      22.087  -0.251 196.318  0.00  0.00    +0.000 A 
ATOM     29  C   UNL     1      23.708  -0.399 194.535  0.00  0.00    +0.000 A 
ATOM     30  C   UNL     1      23.242  -0.801 195.781  0.00  0.00    +0.000 A 
ENDBRANCH  21  25
ENDBRANCH   6  21
TORSDOF 6
ENDMDL
MODEL 4
REMARK VINA RESULT:      -7.2      1.625      1.909
REMARK  Name = 10288191_Binimetinib.pdbqt.pdb
REMARK  6 active torsions:
REMARK  status: ('A' for Active; 'I' for Inactive)
REMARK    1  A    between atoms: C_6  and  N_21
REMARK    2  A    between atoms: C_7  and  C_14
REMARK    3  A    between atoms: N_13  and  O_16
REMARK    4  A    between atoms: O_16  and  C_17
REMARK    5  A    between atoms: C_18  and  O_19
REMARK    6  A    between atoms: N_21  and  C_25
REMARK                            x       y       z     vdW  Elec       q    Type
REMARK                         _______ _______ _______ _____ _____    ______ ____
ROOT
ATOM      1  F   UNL     1      25.541   3.154 188.315  0.00  0.00    +0.000 F 
ATOM      2  N   UNL     1      25.258  -0.048 191.493  0.00  0.00    +0.000 N 
ATOM      3  N   UNL     1      26.573   1.057 190.108  0.00  0.00    +0.000 NA
ATOM      4  C   UNL     1      24.428   0.838 190.869  0.00  0.00    +0.000 A 
ATOM      5  C   UNL     1      25.276   1.526 190.006  0.00  0.00    +0.000 A 
ATOM      6  C   UNL     1      23.356   2.861 189.249  0.00  0.00    +0.000 A 
ATOM      7  C   UNL     1      22.532   2.119 190.136  0.00  0.00    +0.000 A 
ATOM      8  C   UNL     1      23.060   1.102 190.953  0.00  0.00    +0.000 A 
ATOM      9  C   UNL     1      24.733   2.539 189.193  0.00  0.00    +0.000 A 
ATOM     10  C   UNL     1      26.526   0.105 191.021  0.00  0.00    +0.000 A 
ATOM     11  C   UNL     1      24.869  -0.980 192.500  0.00  0.00    +0.000 C 
ENDROOT
BRANCH   7  14
ATOM     12  O   UNL     1      20.635   3.520 190.212  0.00  0.00    +0.000 OA
ATOM     13  N   UNL     1      20.249   1.250 190.299  0.00  0.00    +0.000 N 
ATOM     14  C   UNL     1      21.057   2.367 190.218  0.00  0.00    +0.000 C 
ATOM     15  H   UNL     1      20.591   0.368 190.658  0.00  0.00    +0.000 HD
BRANCH  13  16
ATOM     16  O   UNL     1      18.914   1.538 190.657  0.00  0.00    +0.000 OA
BRANCH  16  17
ATOM     17  C   UNL     1      18.781   1.167 191.929  0.00  0.00    +0.000 C 
ATOM     18  C   UNL     1      18.640   0.734 193.392  0.00  0.00    +0.000 C 
BRANCH  18  19
ATOM     19  O   UNL     1      18.526   0.356 194.661  0.00  0.00    +0.000 OA
ATOM     20  H   UNL     1      18.666  -0.603 194.739  0.00  0.00    +0.000 HD
ENDBRANCH  18  19
ENDBRANCH  16  17
ENDBRANCH  13  16
ENDBRANCH   7  14
BRANCH   6  21
ATOM     21  N   UNL     1      22.808   3.912 188.469  0.00  0.00    +0.000 N 
ATOM     22  H   UNL     1      22.888   4.837 188.920  0.00  0.00    +0.000 HD
BRANCH  21  25
ATOM     23 BR   UNL     1      21.892   4.644 182.485  0.00  0.00    +0.000 Br
ATOM     24  F   UNL     1      24.458   5.479 186.913  0.00  0.00    +0.000 F 
ATOM     25  C   UNL     1      22.590   4.027 187.081  0.00  0.00    +0.000 A 
ATOM     26  C   UNL     1      23.430   4.854 186.316  0.00  0.00    +0.000 A 
ATOM     27  C   UNL     1      21.522   3.413 186.423  0.00  0.00    +0.000 A 
ATOM     28  C   UNL     1      23.236   5.044 184.952  0.00  0.00    +0.000 A 
ATOM     29  C   UNL     1      21.311   3.590 185.056  0.00  0.00    +0.000 A 
ATOM     30  C   UNL     1      22.173   4.405 184.331  0.00  0.00    +0.000 A 
ENDBRANCH  21  25
ENDBRANCH   6  21
TORSDOF 6
ENDMDL
MODEL 5
REMARK VINA RESULT:      -7.1      3.192      6.032
REMARK  Name = 10288191_Binimetinib.pdbqt.pdb
REMARK  6 active torsions:
REMARK  status: ('A' for Active; 'I' for Inactive)
REMARK    1  A    between atoms: C_6  and  N_21
REMARK    2  A    between atoms: C_7  and  C_14
REMARK    3  A    between atoms: N_13  and  O_16
REMARK    4  A    between atoms: O_16  and  C_17
REMARK    5  A    between atoms: C_18  and  O_19
REMARK    6  A    between atoms: N_21  and  C_25
REMARK                            x       y       z     vdW  Elec       q    Type
REMARK                         _______ _______ _______ _____ _____    ______ ____
ROOT
ATOM      1  F   UNL     1      25.518   5.272 187.898  0.00  0.00    +0.000 F 
ATOM      2  N   UNL     1      21.648   4.082 185.888  0.00  0.00    +0.000 N 
ATOM      3  N   UNL     1      23.591   5.108 185.677  0.00  0.00    +0.000 NA
ATOM      4  C   UNL     1      22.254   3.918 187.100  0.00  0.00    +0.000 A 
ATOM      5  C   UNL     1      23.476   4.567 186.945  0.00  0.00    +0.000 A 
ATOM      6  C   UNL     1      24.046   3.962 189.258  0.00  0.00    +0.000 A 
ATOM      7  C   UNL     1      22.781   3.327 189.369  0.00  0.00    +0.000 A 
ATOM      8  C   UNL     1      21.875   3.299 188.293  0.00  0.00    +0.000 A 
ATOM      9  C   UNL     1      24.371   4.589 188.031  0.00  0.00    +0.000 A 
ATOM     10  C   UNL     1      22.466   4.793 185.063  0.00  0.00    +0.000 A 
ATOM     11  C   UNL     1      20.367   3.573 185.527  0.00  0.00    +0.000 C 
ENDROOT
BRANCH   7  14
ATOM     12  O   UNL     1      22.937   1.691 191.062  0.00  0.00    +0.000 OA
ATOM     13  N   UNL     1      21.272   3.265 191.296  0.00  0.00    +0.000 N 
ATOM     14  C   UNL     1      22.344   2.684 190.650  0.00  0.00    +0.000 C 
ATOM     15  H   UNL     1      20.587   3.823 190.800  0.00  0.00    +0.000 HD
BRANCH  13  16
ATOM     16  O   UNL     1      20.727   2.469 192.326  0.00  0.00    +0.000 OA
BRANCH  16  17
ATOM     17  C   UNL     1      19.543   2.048 191.886  0.00  0.00    +0.000 C 
ATOM     18  C   UNL     1      18.186   1.556 191.370  0.00  0.00    +0.000 C 
BRANCH  18  19
ATOM     19  O   UNL     1      17.014   1.124 190.918  0.00  0.00    +0.000 OA
ATOM     20  H   UNL     1      16.594   1.807 190.368  0.00  0.00    +0.000 HD
ENDBRANCH  18  19
ENDBRANCH  16  17
ENDBRANCH  13  16
ENDBRANCH   7  14
BRANCH   6  21
ATOM     21  N   UNL     1      24.960   3.936 190.342  0.00  0.00    +0.000 N 
ATOM     22  H   UNL     1      24.571   4.334 191.211  0.00  0.00    +0.000 HD
BRANCH  21  25
ATOM     23 BR   UNL     1      29.828   0.508 191.661  0.00  0.00    +0.000 Br
ATOM     24  F   UNL     1      25.342   2.828 192.839  0.00  0.00    +0.000 F 
ATOM     25  C   UNL     1      26.077   3.115 190.602  0.00  0.00    +0.000 A 
ATOM     26  C   UNL     1      26.262   2.586 191.890  0.00  0.00    +0.000 A 
ATOM     27  C   UNL     1      27.068   2.855 189.653  0.00  0.00    +0.000 A 
ATOM     28  C   UNL     1      27.368   1.809 192.218  0.00  0.00    +0.000 A 
ATOM     29  C   UNL     1      28.184   2.078 189.961  0.00  0.00    +0.000 A 
ATOM     30  C   UNL     1      28.324   1.560 191.243  0.00  0.00    +0.000 A 
ENDBRANCH  21  25
ENDBRANCH   6  21
TORSDOF 6
ENDMDL
MODEL 6
REMARK VINA RESULT:      -7.1      4.348      7.744
REMARK  Name = 10288191_Binimetinib.pdbqt.pdb
REMARK  6 active torsions:
REMARK  status: ('A' for Active; 'I' for Inactive)
REMARK    1  A    between atoms: C_6  and  N_21
REMARK    2  A    between atoms: C_7  and  C_14
REMARK    3  A    between atoms: N_13  and  O_16
REMARK    4  A    between atoms: O_16  and  C_17
REMARK    5  A    between atoms: C_18  and  O_19
REMARK    6  A    between atoms: N_21  and  C_25
REMARK                            x       y       z     vdW  Elec       q    Type
REMARK                         _______ _______ _______ _____ _____    ______ ____
ROOT
ATOM      1  F   UNL     1      18.647   0.790 190.618  0.00  0.00    +0.000 F 
ATOM      2  N   UNL     1      20.392   3.354 187.330  0.00  0.00    +0.000 N 
ATOM      3  N   UNL     1      18.557   2.619 188.312  0.00  0.00    +0.000 NA
ATOM      4  C   UNL     1      20.842   2.570 188.353  0.00  0.00    +0.000 A 
ATOM      5  C   UNL     1      19.673   2.122 188.960  0.00  0.00    +0.000 A 
ATOM      6  C   UNL     1      21.039   0.881 190.583  0.00  0.00    +0.000 A 
ATOM      7  C   UNL     1      22.201   1.355 189.918  0.00  0.00    +0.000 A 
ATOM      8  C   UNL     1      22.113   2.202 188.799  0.00  0.00    +0.000 A 
ATOM      9  C   UNL     1      19.777   1.272 190.078  0.00  0.00    +0.000 A 
ATOM     10  C   UNL     1      19.030   3.364 187.330  0.00  0.00    +0.000 A 
ATOM     11  C   UNL     1      21.213   4.070 186.411  0.00  0.00    +0.000 C 
ENDROOT
BRANCH   7  14
ATOM     12  O   UNL     1      23.860  -0.246 190.424  0.00  0.00    +0.000 OA
ATOM     13  N   UNL     1      24.444   1.968 190.684  0.00  0.00    +0.000 N 
ATOM     14  C   UNL     1      23.572   0.947 190.363  0.00  0.00    +0.000 C 
ATOM     15  H   UNL     1      24.116   2.880 190.975  0.00  0.00    +0.000 HD
BRANCH  13  16
ATOM     16  O   UNL     1      25.606   1.533 191.358  0.00  0.00    +0.000 OA
BRANCH  16  17
ATOM     17  C   UNL     1      25.841   2.431 192.313  0.00  0.00    +0.000 C 
ATOM     18  C   UNL     1      26.114   3.473 193.403  0.00  0.00    +0.000 C 
BRANCH  18  19
ATOM     19  O   UNL     1      26.351   4.383 194.341  0.00  0.00    +0.000 OA
ATOM     20  H   UNL     1      26.098   4.038 195.214  0.00  0.00    +0.000 HD
ENDBRANCH  18  19
ENDBRANCH  16  17
ENDBRANCH  13  16
ENDBRANCH   7  14
BRANCH   6  21
ATOM     21  N   UNL     1      21.156   0.065 191.738  0.00  0.00    +0.000 N 
ATOM     22  H   UNL     1      22.047  -0.453 191.781  0.00  0.00    +0.000 HD
BRANCH  21  25
ATOM     23 BR   UNL     1      18.290   0.379 197.112  0.00  0.00    +0.000 Br
ATOM     24  F   UNL     1      19.347  -1.852 192.552  0.00  0.00    +0.000 F 
ATOM     25  C   UNL     1      20.541   0.148 193.004  0.00  0.00    +0.000 A 
ATOM     26  C   UNL     1      19.603  -0.828 193.382  0.00  0.00    +0.000 A 
ATOM     27  C   UNL     1      20.760   1.205 193.890  0.00  0.00    +0.000 A 
ATOM     28  C   UNL     1      18.930  -0.773 194.598  0.00  0.00    +0.000 A 
ATOM     29  C   UNL     1      20.096   1.277 195.114  0.00  0.00    +0.000 A 
ATOM     30  C   UNL     1      19.186   0.285 195.459  0.00  0.00    +0.000 A 
ENDBRANCH  21  25
ENDBRANCH   6  21
TORSDOF 6
ENDMDL
MODEL 7
REMARK VINA RESULT:      -7.0     31.019     33.224
REMARK  Name = 10288191_Binimetinib.pdbqt.pdb
REMARK  6 active torsions:
REMARK  status: ('A' for Active; 'I' for Inactive)
REMARK    1  A    between atoms: C_6  and  N_21
REMARK    2  A    between atoms: C_7  and  C_14
REMARK    3  A    between atoms: N_13  and  O_16
REMARK    4  A    between atoms: O_16  and  C_17
REMARK    5  A    between atoms: C_18  and  O_19
REMARK    6  A    between atoms: N_21  and  C_25
REMARK                            x       y       z     vdW  Elec       q    Type
REMARK                         _______ _______ _______ _____ _____    ______ ____
ROOT
ATOM      1  F   UNL     1      40.632  -5.662 168.256  0.00  0.00    +0.000 F 
ATOM      2  N   UNL     1      37.200  -6.764 165.529  0.00  0.00    +0.000 N 
ATOM      3  N   UNL     1      37.810  -5.819 167.428  0.00  0.00    +0.000 NA
ATOM      4  C   UNL     1      38.562  -6.862 165.537  0.00  0.00    +0.000 A 
ATOM      5  C   UNL     1      38.925  -6.258 166.737  0.00  0.00    +0.000 A 
ATOM      6  C   UNL     1      41.282  -6.707 166.203  0.00  0.00    +0.000 A 
ATOM      7  C   UNL     1      40.857  -7.326 164.998  0.00  0.00    +0.000 A 
ATOM      8  C   UNL     1      39.495  -7.409 164.654  0.00  0.00    +0.000 A 
ATOM      9  C   UNL     1      40.291  -6.185 167.068  0.00  0.00    +0.000 A 
ATOM     10  C   UNL     1      36.782  -6.139 166.665  0.00  0.00    +0.000 A 
ATOM     11  C   UNL     1      36.343  -7.222 164.486  0.00  0.00    +0.000 C 
ENDROOT
BRANCH   7  14
ATOM     12  O   UNL     1      42.587  -7.224 163.396  0.00  0.00    +0.000 OA
ATOM     13  N   UNL     1      41.839  -9.324 163.980  0.00  0.00    +0.000 N 
ATOM     14  C   UNL     1      41.840  -7.946 164.053  0.00  0.00    +0.000 C 
ATOM     15  H   UNL     1      41.024  -9.872 164.224  0.00  0.00    +0.000 HD
BRANCH  13  16
ATOM     16  O   UNL     1      42.570  -9.837 162.886  0.00  0.00    +0.000 OA
BRANCH  16  17
ATOM     17  C   UNL     1      42.014 -11.009 162.583  0.00  0.00    +0.000 C 
ATOM     18  C   UNL     1      41.383 -12.358 162.224  0.00  0.00    +0.000 C 
BRANCH  18  19
ATOM     19  O   UNL     1      40.842 -13.529 161.906  0.00  0.00    +0.000 OA
ATOM     20  H   UNL     1      40.417 -13.924 162.687  0.00  0.00    +0.000 HD
ENDBRANCH  18  19
ENDBRANCH  16  17
ENDBRANCH  13  16
ENDBRANCH   7  14
BRANCH   6  21
ATOM     21  N   UNL     1      42.663  -6.596 166.504  0.00  0.00    +0.000 N 
ATOM     22  H   UNL     1      43.109  -7.504 166.710  0.00  0.00    +0.000 HD
BRANCH  21  25
ATOM     23 BR   UNL     1      46.942  -2.464 165.159  0.00  0.00    +0.000 Br
ATOM     24  F   UNL     1      45.234  -7.317 165.811  0.00  0.00    +0.000 F 
ATOM     25  C   UNL     1      43.617  -5.616 166.160  0.00  0.00    +0.000 A 
ATOM     26  C   UNL     1      44.927  -6.009 165.838  0.00  0.00    +0.000 A 
ATOM     27  C   UNL     1      43.349  -4.246 166.196  0.00  0.00    +0.000 A 
ATOM     28  C   UNL     1      45.922  -5.086 165.536  0.00  0.00    +0.000 A 
ATOM     29  C   UNL     1      44.333  -3.304 165.896  0.00  0.00    +0.000 A 
ATOM     30  C   UNL     1      45.613  -3.733 165.567  0.00  0.00    +0.000 A 
ENDBRANCH  21  25
ENDBRANCH   6  21
TORSDOF 6
ENDMDL
MODEL 8
REMARK VINA RESULT:      -7.0      3.549      6.337
REMARK  Name = 10288191_Binimetinib.pdbqt.pdb
REMARK  6 active torsions:
REMARK  status: ('A' for Active; 'I' for Inactive)
REMARK    1  A    between atoms: C_6  and  N_21
REMARK    2  A    between atoms: C_7  and  C_14
REMARK    3  A    between atoms: N_13  and  O_16
REMARK    4  A    between atoms: O_16  and  C_17
REMARK    5  A    between atoms: C_18  and  O_19
REMARK    6  A    between atoms: N_21  and  C_25
REMARK                            x       y       z     vdW  Elec       q    Type
REMARK                         _______ _______ _______ _____ _____    ______ ____
ROOT
ATOM      1  F   UNL     1      25.646   5.310 187.742  0.00  0.00    +0.000 F 
ATOM      2  N   UNL     1      21.726   4.120 185.833  0.00  0.00    +0.000 N 
ATOM      3  N   UNL     1      23.650   5.171 185.581  0.00  0.00    +0.000 NA
ATOM      4  C   UNL     1      22.372   3.938 187.021  0.00  0.00    +0.000 A 
ATOM      5  C   UNL     1      23.581   4.603 186.840  0.00  0.00    +0.000 A 
ATOM      6  C   UNL     1      24.233   3.957 189.120  0.00  0.00    +0.000 A 
ATOM      7  C   UNL     1      22.978   3.306 189.259  0.00  0.00    +0.000 A 
ATOM      8  C   UNL     1      22.038   3.290 188.212  0.00  0.00    +0.000 A 
ATOM      9  C   UNL     1      24.511   4.612 187.898  0.00  0.00    +0.000 A 
ATOM     10  C   UNL     1      22.509   4.857 184.997  0.00  0.00    +0.000 A 
ATOM     11  C   UNL     1      20.438   3.605 185.503  0.00  0.00    +0.000 C 
ENDROOT
BRANCH   7  14
ATOM     12  O   UNL     1      22.466   3.299 191.563  0.00  0.00    +0.000 OA
ATOM     13  N   UNL     1      22.391   1.266 190.480  0.00  0.00    +0.000 N 
ATOM     14  C   UNL     1      22.589   2.631 190.539  0.00  0.00    +0.000 C 
ATOM     15  H   UNL     1      22.827   0.693 189.769  0.00  0.00    +0.000 HD
BRANCH  13  16
ATOM     16  O   UNL     1      22.309   0.648 191.747  0.00  0.00    +0.000 OA
BRANCH  16  17
ATOM     17  C   UNL     1      23.376  -0.142 191.846  0.00  0.00    +0.000 C 
ATOM     18  C   UNL     1      24.611  -1.043 191.951  0.00  0.00    +0.000 C 
BRANCH  18  19
ATOM     19  O   UNL     1      25.686  -1.819 192.038  0.00  0.00    +0.000 OA
ATOM     20  H   UNL     1      25.487  -2.708 191.697  0.00  0.00    +0.000 HD
ENDBRANCH  18  19
ENDBRANCH  16  17
ENDBRANCH  13  16
ENDBRANCH   7  14
BRANCH   6  21
ATOM     21  N   UNL     1      25.181   3.919 190.174  0.00  0.00    +0.000 N 
ATOM     22  H   UNL     1      24.840   4.356 191.044  0.00  0.00    +0.000 HD
BRANCH  21  25
ATOM     23 BR   UNL     1      29.898   0.271 191.452  0.00  0.00    +0.000 Br
ATOM     24  F   UNL     1      25.287   2.408 192.479  0.00  0.00    +0.000 F 
ATOM     25  C   UNL     1      26.269   3.055 190.419  0.00  0.00    +0.000 A 
ATOM     26  C   UNL     1      26.311   2.317 191.614  0.00  0.00    +0.000 A 
ATOM     27  C   UNL     1      27.364   2.946 189.560  0.00  0.00    +0.000 A 
ATOM     28  C   UNL     1      27.379   1.486 191.932  0.00  0.00    +0.000 A 
ATOM     29  C   UNL     1      28.445   2.117 189.860  0.00  0.00    +0.000 A 
ATOM     30  C   UNL     1      28.442   1.392 191.045  0.00  0.00    +0.000 A 
ENDBRANCH  21  25
ENDBRANCH   6  21
TORSDOF 6
ENDMDL
MODEL 9
REMARK VINA RESULT:      -6.9      3.041      5.125
REMARK  Name = 10288191_Binimetinib.pdbqt.pdb
REMARK  6 active torsions:
REMARK  status: ('A' for Active; 'I' for Inactive)
REMARK    1  A    between atoms: C_6  and  N_21
REMARK    2  A    between atoms: C_7  and  C_14
REMARK    3  A    between atoms: N_13  and  O_16
REMARK    4  A    between atoms: O_16  and  C_17
REMARK    5  A    between atoms: C_18  and  O_19
REMARK    6  A    between atoms: N_21  and  C_25
REMARK                            x       y       z     vdW  Elec       q    Type
REMARK                         _______ _______ _______ _____ _____    ______ ____
ROOT
ATOM      1  F   UNL     1      23.306  -0.773 192.165  0.00  0.00    +0.000 F 
ATOM      2  N   UNL     1      20.210   0.052 195.353  0.00  0.00    +0.000 N 
ATOM      3  N   UNL     1      22.117  -0.940 194.854  0.00  0.00    +0.000 NA
ATOM      4  C   UNL     1      20.436   0.382 194.048  0.00  0.00    +0.000 A 
ATOM      5  C   UNL     1      21.642  -0.248 193.756  0.00  0.00    +0.000 A 
ATOM      6  C   UNL     1      21.515   0.657 191.474  0.00  0.00    +0.000 A 
ATOM      7  C   UNL     1      20.281   1.268 191.819  0.00  0.00    +0.000 A 
ATOM      8  C   UNL     1      19.731   1.136 193.108  0.00  0.00    +0.000 A 
ATOM      9  C   UNL     1      22.178  -0.109 192.461  0.00  0.00    +0.000 A 
ATOM     10  C   UNL     1      21.226  -0.735 195.805  0.00  0.00    +0.000 A 
ATOM     11  C   UNL     1      19.097   0.478 196.135  0.00  0.00    +0.000 C 
ENDROOT
BRANCH   7  14
ATOM     12  O   UNL     1      19.362   3.266 190.965  0.00  0.00    +0.000 OA
ATOM     13  N   UNL     1      18.954   1.344 189.763  0.00  0.00    +0.000 N 
ATOM     14  C   UNL     1      19.494   2.054 190.816  0.00  0.00    +0.000 C 
ATOM     15  H   UNL     1      18.758   0.353 189.831  0.00  0.00    +0.000 HD
BRANCH  13  16
ATOM     16  O   UNL     1      18.000   2.069 189.016  0.00  0.00    +0.000 OA
BRANCH  16  17
ATOM     17  C   UNL     1      18.639   2.531 187.943  0.00  0.00    +0.000 C 
ATOM     18  C   UNL     1      19.363   3.067 186.704  0.00  0.00    +0.000 C 
BRANCH  18  19
ATOM     19  O   UNL     1      19.984   3.537 185.627  0.00  0.00    +0.000 OA
ATOM     20  H   UNL     1      19.701   3.047 184.836  0.00  0.00    +0.000 HD
ENDBRANCH  18  19
ENDBRANCH  16  17
ENDBRANCH  13  16
ENDBRANCH   7  14
BRANCH   6  21
ATOM     21  N   UNL     1      22.071   0.843 190.182  0.00  0.00    +0.000 N 
ATOM     22  H   UNL     1      21.668   0.212 189.472  0.00  0.00    +0.000 HD
BRANCH  21  25
ATOM     23 BR   UNL     1      24.892   5.513 187.457  0.00  0.00    +0.000 Br
ATOM     24  F   UNL     1      21.940   1.249 187.457  0.00  0.00    +0.000 F 
ATOM     25  C   UNL     1      22.702   1.956 189.589  0.00  0.00    +0.000 A 
ATOM     26  C   UNL     1      22.643   2.124 188.196  0.00  0.00    +0.000 A 
ATOM     27  C   UNL     1      23.461   2.877 190.315  0.00  0.00    +0.000 A 
ATOM     28  C   UNL     1      23.285   3.175 187.550  0.00  0.00    +0.000 A 
ATOM     29  C   UNL     1      24.111   3.939 189.686  0.00  0.00    +0.000 A 
ATOM     30  C   UNL     1      24.017   4.079 188.307  0.00  0.00    +0.000 A 
ENDBRANCH  21  25
ENDBRANCH   6  21
TORSDOF 6
ENDMDL
