MODEL 1
REMARK VINA RESULT:      -6.5      0.000      0.000
REMARK  Name = 10281_Thymoquinone.pdbqt.pdb
REMARK  1 active torsions:
REMARK  status: ('A' for Active; 'I' for Inactive)
REMARK    1  A    between atoms: C_3  and  C_10
REMARK                            x       y       z     vdW  Elec       q    Type
REMARK                         _______ _______ _______ _____ _____    ______ ____
ROOT
ATOM      1  O   UNL     1      19.266   3.105 186.570  0.00  0.00    +0.000 OA
ATOM      2  O   UNL     1      23.521   5.618 184.445  0.00  0.00    +0.000 OA
ATOM      3  C   UNL     1      21.126   4.602 186.953  0.00  0.00    +0.000 C 
ATOM      4  C   UNL     1      20.238   3.699 186.148  0.00  0.00    +0.000 C 
ATOM      5  C   UNL     1      22.091   5.094 186.217  0.00  0.00    +0.000 C 
ATOM      6  C   UNL     1      21.626   4.083 184.019  0.00  0.00    +0.000 C 
ATOM      7  C   UNL     1      22.542   5.007 184.827  0.00  0.00    +0.000 C 
ATOM      8  C   UNL     1      20.667   3.596 184.758  0.00  0.00    +0.000 C 
ATOM      9  C   UNL     1      21.764   3.749 182.569  0.00  0.00    +0.000 C 
ENDROOT
BRANCH   3  10
ATOM     10  C   UNL     1      20.870   4.827 188.337  0.00  0.00    +0.000 C 
ATOM     11  C   UNL     1      19.770   5.764 188.772  0.00  0.00    +0.000 C 
ATOM     12  C   UNL     1      21.372   3.856 189.378  0.00  0.00    +0.000 C 
ENDBRANCH   3  10
TORSDOF 1
ENDMDL
MODEL 2
REMARK VINA RESULT:      -6.1      2.583      3.352
REMARK  Name = 10281_Thymoquinone.pdbqt.pdb
REMARK  1 active torsions:
REMARK  status: ('A' for Active; 'I' for Inactive)
REMARK    1  A    between atoms: C_3  and  C_10
REMARK                            x       y       z     vdW  Elec       q    Type
REMARK                         _______ _______ _______ _____ _____    ______ ____
ROOT
ATOM      1  O   UNL     1      17.662   2.921 187.962  0.00  0.00    +0.000 OA
ATOM      2  O   UNL     1      22.926   2.292 187.044  0.00  0.00    +0.000 OA
ATOM      3  C   UNL     1      19.788   2.162 188.832  0.00  0.00    +0.000 C 
ATOM      4  C   UNL     1      18.857   2.754 187.814  0.00  0.00    +0.000 C 
ATOM      5  C   UNL     1      21.015   2.113 188.377  0.00  0.00    +0.000 C 
ATOM      6  C   UNL     1      20.767   3.080 186.124  0.00  0.00    +0.000 C 
ATOM      7  C   UNL     1      21.729   2.476 187.151  0.00  0.00    +0.000 C 
ATOM      8  C   UNL     1      19.546   3.126 186.584  0.00  0.00    +0.000 C 
ATOM      9  C   UNL     1      21.124   3.571 184.759  0.00  0.00    +0.000 C 
ENDROOT
BRANCH   3  10
ATOM     10  C   UNL     1      19.299   1.733 190.100  0.00  0.00    +0.000 C 
ATOM     11  C   UNL     1      19.304   2.672 191.282  0.00  0.00    +0.000 C 
ATOM     12  C   UNL     1      18.399   0.527 190.208  0.00  0.00    +0.000 C 
ENDBRANCH   3  10
TORSDOF 1
ENDMDL
MODEL 3
REMARK VINA RESULT:      -5.9      3.294      6.378
REMARK  Name = 10281_Thymoquinone.pdbqt.pdb
REMARK  1 active torsions:
REMARK  status: ('A' for Active; 'I' for Inactive)
REMARK    1  A    between atoms: C_3  and  C_10
REMARK                            x       y       z     vdW  Elec       q    Type
REMARK                         _______ _______ _______ _____ _____    ______ ____
ROOT
ATOM      1  O   UNL     1      21.546   3.761 190.425  0.00  0.00    +0.000 OA
ATOM      2  O   UNL     1      16.936   1.015 190.041  0.00  0.00    +0.000 OA
ATOM      3  C   UNL     1      19.676   3.139 189.021  0.00  0.00    +0.000 C 
ATOM      4  C   UNL     1      20.499   3.162 190.277  0.00  0.00    +0.000 C 
ATOM      5  C   UNL     1      18.603   2.404 189.174  0.00  0.00    +0.000 C 
ATOM      6  C   UNL     1      18.835   1.634 191.503  0.00  0.00    +0.000 C 
ATOM      7  C   UNL     1      17.985   1.600 190.230  0.00  0.00    +0.000 C 
ATOM      8  C   UNL     1      19.903   2.368 191.344  0.00  0.00    +0.000 C 
ATOM      9  C   UNL     1      18.529   0.938 192.790  0.00  0.00    +0.000 C 
ENDROOT
BRANCH   3  10
ATOM     10  C   UNL     1      20.098   3.854 187.863  0.00  0.00    +0.000 C 
ATOM     11  C   UNL     1      19.807   3.320 186.482  0.00  0.00    +0.000 C 
ATOM     12  C   UNL     1      20.453   5.318 187.953  0.00  0.00    +0.000 C 
ENDBRANCH   3  10
TORSDOF 1
ENDMDL
MODEL 4
REMARK VINA RESULT:      -5.6      2.255      4.422
REMARK  Name = 10281_Thymoquinone.pdbqt.pdb
REMARK  1 active torsions:
REMARK  status: ('A' for Active; 'I' for Inactive)
REMARK    1  A    between atoms: C_3  and  C_10
REMARK                            x       y       z     vdW  Elec       q    Type
REMARK                         _______ _______ _______ _____ _____    ______ ____
ROOT
ATOM      1  O   UNL     1      20.325   3.784 185.408  0.00  0.00    +0.000 OA
ATOM      2  O   UNL     1      19.661   3.203 190.715  0.00  0.00    +0.000 OA
ATOM      3  C   UNL     1      21.125   4.355 187.618  0.00  0.00    +0.000 C 
ATOM      4  C   UNL     1      20.227   3.691 186.615  0.00  0.00    +0.000 C 
ATOM      5  C   UNL     1      20.763   4.064 188.843  0.00  0.00    +0.000 C 
ATOM      6  C   UNL     1      18.818   2.598 188.467  0.00  0.00    +0.000 C 
ATOM      7  C   UNL     1      19.725   3.269 189.502  0.00  0.00    +0.000 C 
ATOM      8  C   UNL     1      19.185   2.892 187.249  0.00  0.00    +0.000 C 
ATOM      9  C   UNL     1      17.652   1.709 188.757  0.00  0.00    +0.000 C 
ENDROOT
BRANCH   3  10
ATOM     10  C   UNL     1      22.204   5.183 187.191  0.00  0.00    +0.000 C 
ATOM     11  C   UNL     1      23.027   5.951 188.196  0.00  0.00    +0.000 C 
ATOM     12  C   UNL     1      22.818   4.999 185.825  0.00  0.00    +0.000 C 
ENDBRANCH   3  10
TORSDOF 1
ENDMDL
MODEL 5
REMARK VINA RESULT:      -5.2      3.152      4.938
REMARK  Name = 10281_Thymoquinone.pdbqt.pdb
REMARK  1 active torsions:
REMARK  status: ('A' for Active; 'I' for Inactive)
REMARK    1  A    between atoms: C_3  and  C_10
REMARK                            x       y       z     vdW  Elec       q    Type
REMARK                         _______ _______ _______ _____ _____    ______ ____
ROOT
ATOM      1  O   UNL     1      22.546   1.425 189.619  0.00  0.00    +0.000 OA
ATOM      2  O   UNL     1      17.650   2.769 187.840  0.00  0.00    +0.000 OA
ATOM      3  C   UNL     1      20.188   1.600 190.131  0.00  0.00    +0.000 C 
ATOM      4  C   UNL     1      21.416   1.712 189.275  0.00  0.00    +0.000 C 
ATOM      5  C   UNL     1      19.121   1.985 189.478  0.00  0.00    +0.000 C 
ATOM      6  C   UNL     1      20.056   2.602 187.284  0.00  0.00    +0.000 C 
ATOM      7  C   UNL     1      18.794   2.494 188.144  0.00  0.00    +0.000 C 
ATOM      8  C   UNL     1      21.116   2.216 187.940  0.00  0.00    +0.000 C 
ATOM      9  C   UNL     1      20.123   3.077 185.869  0.00  0.00    +0.000 C 
ENDROOT
BRANCH   3  10
ATOM     10  C   UNL     1      20.279   1.128 191.473  0.00  0.00    +0.000 C 
ATOM     11  C   UNL     1      20.651   2.068 192.594  0.00  0.00    +0.000 C 
ATOM     12  C   UNL     1      19.617  -0.167 191.878  0.00  0.00    +0.000 C 
ENDBRANCH   3  10
TORSDOF 1
ENDMDL
MODEL 6
REMARK VINA RESULT:      -5.2      2.585      3.927
REMARK  Name = 10281_Thymoquinone.pdbqt.pdb
REMARK  1 active torsions:
REMARK  status: ('A' for Active; 'I' for Inactive)
REMARK    1  A    between atoms: C_3  and  C_10
REMARK                            x       y       z     vdW  Elec       q    Type
REMARK                         _______ _______ _______ _____ _____    ______ ____
ROOT
ATOM      1  O   UNL     1      20.701   1.009 190.221  0.00  0.00    +0.000 OA
ATOM      2  O   UNL     1      21.029   5.672 187.559  0.00  0.00    +0.000 OA
ATOM      3  C   UNL     1      21.439   3.312 190.265  0.00  0.00    +0.000 C 
ATOM      4  C   UNL     1      20.805   2.088 189.672  0.00  0.00    +0.000 C 
ATOM      5  C   UNL     1      21.398   4.318 189.427  0.00  0.00    +0.000 C 
ATOM      6  C   UNL     1      20.261   3.320 187.483  0.00  0.00    +0.000 C 
ATOM      7  C   UNL     1      20.905   4.577 188.073  0.00  0.00    +0.000 C 
ATOM      8  C   UNL     1      20.305   2.322 188.322  0.00  0.00    +0.000 C 
ATOM      9  C   UNL     1      19.645   3.196 186.127  0.00  0.00    +0.000 C 
ENDROOT
BRANCH   3  10
ATOM     10  C   UNL     1      21.991   3.280 191.579  0.00  0.00    +0.000 C 
ATOM     11  C   UNL     1      21.102   3.062 192.780  0.00  0.00    +0.000 C 
ATOM     12  C   UNL     1      23.466   3.040 191.786  0.00  0.00    +0.000 C 
ENDBRANCH   3  10
TORSDOF 1
ENDMDL
MODEL 7
REMARK VINA RESULT:      -5.1      5.546      8.072
REMARK  Name = 10281_Thymoquinone.pdbqt.pdb
REMARK  1 active torsions:
REMARK  status: ('A' for Active; 'I' for Inactive)
REMARK    1  A    between atoms: C_3  and  C_10
REMARK                            x       y       z     vdW  Elec       q    Type
REMARK                         _______ _______ _______ _____ _____    ______ ____
ROOT
ATOM      1  O   UNL     1      21.504   1.917 193.754  0.00  0.00    +0.000 OA
ATOM      2  O   UNL     1      17.062   1.419 190.759  0.00  0.00    +0.000 OA
ATOM      3  C   UNL     1      19.300   0.938 193.555  0.00  0.00    +0.000 C 
ATOM      4  C   UNL     1      20.476   1.766 193.123  0.00  0.00    +0.000 C 
ATOM      5  C   UNL     1      18.344   0.973 192.661  0.00  0.00    +0.000 C 
ATOM      6  C   UNL     1      19.313   2.435 190.930  0.00  0.00    +0.000 C 
ATOM      7  C   UNL     1      18.106   1.596 191.358  0.00  0.00    +0.000 C 
ATOM      8  C   UNL     1      20.262   2.396 191.826  0.00  0.00    +0.000 C 
ATOM      9  C   UNL     1      19.443   3.216 189.663  0.00  0.00    +0.000 C 
ENDROOT
BRANCH   3  10
ATOM     10  C   UNL     1      19.319   0.245 194.801  0.00  0.00    +0.000 C 
ATOM     11  C   UNL     1      18.493   0.737 195.965  0.00  0.00    +0.000 C 
ATOM     12  C   UNL     1      19.799  -1.183 194.877  0.00  0.00    +0.000 C 
ENDBRANCH   3  10
TORSDOF 1
ENDMDL
MODEL 8
REMARK VINA RESULT:      -5.1     29.843     31.815
REMARK  Name = 10281_Thymoquinone.pdbqt.pdb
REMARK  1 active torsions:
REMARK  status: ('A' for Active; 'I' for Inactive)
REMARK    1  A    between atoms: C_3  and  C_10
REMARK                            x       y       z     vdW  Elec       q    Type
REMARK                         _______ _______ _______ _____ _____    ______ ____
ROOT
ATOM      1  O   UNL     1      44.621  -7.634 166.808  0.00  0.00    +0.000 OA
ATOM      2  O   UNL     1      44.383  -2.540 165.095  0.00  0.00    +0.000 OA
ATOM      3  C   UNL     1      43.438  -5.526 166.898  0.00  0.00    +0.000 C 
ATOM      4  C   UNL     1      44.514  -6.476 166.457  0.00  0.00    +0.000 C 
ATOM      5  C   UNL     1      43.594  -4.348 166.347  0.00  0.00    +0.000 C 
ATOM      6  C   UNL     1      45.616  -4.684 164.980  0.00  0.00    +0.000 C 
ATOM      7  C   UNL     1      44.526  -3.703 165.421  0.00  0.00    +0.000 C 
ATOM      8  C   UNL     1      45.455  -5.856 165.532  0.00  0.00    +0.000 C 
ATOM      9  C   UNL     1      46.740  -4.392 164.040  0.00  0.00    +0.000 C 
ENDROOT
BRANCH   3  10
ATOM     10  C   UNL     1      42.425  -5.948 167.807  0.00  0.00    +0.000 C 
ATOM     11  C   UNL     1      41.148  -6.573 167.297  0.00  0.00    +0.000 C 
ATOM     12  C   UNL     1      42.747  -6.179 169.263  0.00  0.00    +0.000 C 
ENDBRANCH   3  10
TORSDOF 1
ENDMDL
MODEL 9
REMARK VINA RESULT:      -4.9     29.875     32.331
REMARK  Name = 10281_Thymoquinone.pdbqt.pdb
REMARK  1 active torsions:
REMARK  status: ('A' for Active; 'I' for Inactive)
REMARK    1  A    between atoms: C_3  and  C_10
REMARK                            x       y       z     vdW  Elec       q    Type
REMARK                         _______ _______ _______ _____ _____    ______ ____
ROOT
ATOM      1  O   UNL     1      40.307  -7.913 165.274  0.00  0.00    +0.000 OA
ATOM      2  O   UNL     1      45.304  -7.008 167.048  0.00  0.00    +0.000 OA
ATOM      3  C   UNL     1      42.676  -8.091 164.817  0.00  0.00    +0.000 C 
ATOM      4  C   UNL     1      41.458  -7.734 165.619  0.00  0.00    +0.000 C 
ATOM      5  C   UNL     1      43.773  -7.775 165.458  0.00  0.00    +0.000 C 
ATOM      6  C   UNL     1      42.888  -6.812 167.547  0.00  0.00    +0.000 C 
ATOM      7  C   UNL     1      44.139  -7.170 166.740  0.00  0.00    +0.000 C 
ATOM      8  C   UNL     1      41.798  -7.131 166.902  0.00  0.00    +0.000 C 
ATOM      9  C   UNL     1      42.858  -6.182 168.901  0.00  0.00    +0.000 C 
ENDROOT
BRANCH   3  10
ATOM     10  C   UNL     1      42.548  -8.690 163.530  0.00  0.00    +0.000 C 
ATOM     11  C   UNL     1      42.921  -7.923 162.285  0.00  0.00    +0.000 C 
ATOM     12  C   UNL     1      42.452 -10.190 163.388  0.00  0.00    +0.000 C 
ENDBRANCH   3  10
TORSDOF 1
ENDMDL
