MODEL 1
REMARK VINA RESULT:      -8.5      0.000      0.000
REMARK  Name = 10639_Physcion.pdbqt.pdb
REMARK  3 active torsions:
REMARK  status: ('A' for Active; 'I' for Inactive)
REMARK    1  A    between atoms: C_10  and  O_18
REMARK    2  A    between atoms: C_12  and  O_20
REMARK    3  A    between atoms: C_15  and  O_22
REMARK                            x       y       z     vdW  Elec       q    Type
REMARK                         _______ _______ _______ _____ _____    ______ ____
ROOT
ATOM      1  O   UNL     1      18.418   2.300 187.440  0.00  0.00    +0.000 OA
ATOM      2  O   UNL     1      22.025   3.675 191.111  0.00  0.00    +0.000 OA
ATOM      3  C   UNL     1      20.037   2.551 190.613  0.00  0.00    +0.000 A 
ATOM      4  C   UNL     1      19.099   2.196 189.647  0.00  0.00    +0.000 A 
ATOM      5  C   UNL     1      20.452   3.468 187.878  0.00  0.00    +0.000 A 
ATOM      6  C   UNL     1      21.376   3.808 188.867  0.00  0.00    +0.000 A 
ATOM      7  C   UNL     1      19.274   2.642 188.248  0.00  0.00    +0.000 C 
ATOM      8  C   UNL     1      21.204   3.366 190.259  0.00  0.00    +0.000 C 
ATOM      9  C   UNL     1      19.888   2.138 191.939  0.00  0.00    +0.000 A 
ATOM     10  C   UNL     1      17.999   1.416 190.030  0.00  0.00    +0.000 A 
ATOM     11  C   UNL     1      18.791   1.365 192.303  0.00  0.00    +0.000 A 
ATOM     12  C   UNL     1      20.680   3.924 186.574  0.00  0.00    +0.000 A 
ATOM     13  C   UNL     1      22.501   4.584 188.567  0.00  0.00    +0.000 A 
ATOM     14  C   UNL     1      17.843   1.000 191.353  0.00  0.00    +0.000 A 
ATOM     15  C   UNL     1      22.721   5.034 187.269  0.00  0.00    +0.000 A 
ATOM     16  C   UNL     1      21.803   4.699 186.276  0.00  0.00    +0.000 A 
ATOM     17  C   UNL     1      18.633   0.924 193.727  0.00  0.00    +0.000 C 
ENDROOT
BRANCH  10  18
ATOM     18  O   UNL     1      17.026   1.018 189.153  0.00  0.00    +0.000 OA
ATOM     19  H   UNL     1      16.152   1.335 189.481  0.00  0.00    +0.000 HD
ENDBRANCH  10  18
BRANCH  12  20
ATOM     20  O   UNL     1      19.821   3.632 185.555  0.00  0.00    +0.000 OA
ATOM     21  H   UNL     1      19.464   2.733 185.668  0.00  0.00    +0.000 HD
ENDBRANCH  12  20
BRANCH  15  22
ATOM     22  O   UNL     1      23.852   5.788 187.078  0.00  0.00    +0.000 OA
ATOM     23  C   UNL     1      25.009   5.287 187.691  0.00  0.00    +0.000 C 
ENDBRANCH  15  22
TORSDOF 3
ENDMDL
MODEL 2
REMARK VINA RESULT:      -8.4      1.097      5.709
REMARK  Name = 10639_Physcion.pdbqt.pdb
REMARK  3 active torsions:
REMARK  status: ('A' for Active; 'I' for Inactive)
REMARK    1  A    between atoms: C_10  and  O_18
REMARK    2  A    between atoms: C_12  and  O_20
REMARK    3  A    between atoms: C_15  and  O_22
REMARK                            x       y       z     vdW  Elec       q    Type
REMARK                         _______ _______ _______ _____ _____    ______ ____
ROOT
ATOM      1  O   UNL     1      18.680   2.623 187.324  0.00  0.00    +0.000 OA
ATOM      2  O   UNL     1      21.913   3.476 191.471  0.00  0.00    +0.000 OA
ATOM      3  C   UNL     1      21.493   3.786 189.193  0.00  0.00    +0.000 A 
ATOM      4  C   UNL     1      20.642   3.559 188.115  0.00  0.00    +0.000 A 
ATOM      5  C   UNL     1      19.048   2.268 189.655  0.00  0.00    +0.000 A 
ATOM      6  C   UNL     1      19.919   2.512 190.717  0.00  0.00    +0.000 A 
ATOM      7  C   UNL     1      19.392   2.793 188.307  0.00  0.00    +0.000 C 
ATOM      8  C   UNL     1      21.163   3.273 190.527  0.00  0.00    +0.000 C 
ATOM      9  C   UNL     1      22.677   4.508 189.029  0.00  0.00    +0.000 A 
ATOM     10  C   UNL     1      20.996   4.067 186.857  0.00  0.00    +0.000 A 
ATOM     11  C   UNL     1      23.015   5.006 187.775  0.00  0.00    +0.000 A 
ATOM     12  C   UNL     1      17.882   1.536 189.909  0.00  0.00    +0.000 A 
ATOM     13  C   UNL     1      19.638   2.038 192.003  0.00  0.00    +0.000 A 
ATOM     14  C   UNL     1      22.178   4.789 186.686  0.00  0.00    +0.000 A 
ATOM     15  C   UNL     1      18.478   1.311 192.249  0.00  0.00    +0.000 A 
ATOM     16  C   UNL     1      17.602   1.064 191.194  0.00  0.00    +0.000 A 
ATOM     17  C   UNL     1      24.287   5.779 187.602  0.00  0.00    +0.000 C 
ENDROOT
BRANCH  10  18
ATOM     18  O   UNL     1      20.226   3.896 185.739  0.00  0.00    +0.000 OA
ATOM     19  H   UNL     1      19.314   3.643 186.015  0.00  0.00    +0.000 HD
ENDBRANCH  10  18
BRANCH  12  20
ATOM     20  O   UNL     1      16.983   1.258 188.921  0.00  0.00    +0.000 OA
ATOM     21  H   UNL     1      17.433   1.236 188.058  0.00  0.00    +0.000 HD
ENDBRANCH  12  20
BRANCH  15  22
ATOM     22  O   UNL     1      18.294   0.892 193.543  0.00  0.00    +0.000 OA
ATOM     23  C   UNL     1      19.472   0.604 194.246  0.00  0.00    +0.000 C 
ENDBRANCH  15  22
TORSDOF 3
ENDMDL
MODEL 3
REMARK VINA RESULT:      -8.3      1.481      6.707
REMARK  Name = 10639_Physcion.pdbqt.pdb
REMARK  3 active torsions:
REMARK  status: ('A' for Active; 'I' for Inactive)
REMARK    1  A    between atoms: C_10  and  O_18
REMARK    2  A    between atoms: C_12  and  O_20
REMARK    3  A    between atoms: C_15  and  O_22
REMARK                            x       y       z     vdW  Elec       q    Type
REMARK                         _______ _______ _______ _____ _____    ______ ____
ROOT
ATOM      1  O   UNL     1      23.460   4.682 188.796  0.00  0.00    +0.000 OA
ATOM      2  O   UNL     1      19.142   2.849 186.271  0.00  0.00    +0.000 OA
ATOM      3  C   UNL     1      21.228   3.892 186.121  0.00  0.00    +0.000 A 
ATOM      4  C   UNL     1      22.353   4.369 186.790  0.00  0.00    +0.000 A 
ATOM      5  C   UNL     1      21.338   3.614 189.020  0.00  0.00    +0.000 A 
ATOM      6  C   UNL     1      20.223   3.145 188.324  0.00  0.00    +0.000 A 
ATOM      7  C   UNL     1      22.447   4.246 188.260  0.00  0.00    +0.000 C 
ATOM      8  C   UNL     1      20.127   3.266 186.862  0.00  0.00    +0.000 C 
ATOM      9  C   UNL     1      21.123   3.999 184.733  0.00  0.00    +0.000 A 
ATOM     10  C   UNL     1      23.381   4.960 186.042  0.00  0.00    +0.000 A 
ATOM     11  C   UNL     1      22.151   4.588 184.006  0.00  0.00    +0.000 A 
ATOM     12  C   UNL     1      21.360   3.465 190.413  0.00  0.00    +0.000 A 
ATOM     13  C   UNL     1      19.154   2.543 188.997  0.00  0.00    +0.000 A 
ATOM     14  C   UNL     1      23.283   5.071 184.654  0.00  0.00    +0.000 A 
ATOM     15  C   UNL     1      19.182   2.398 190.380  0.00  0.00    +0.000 A 
ATOM     16  C   UNL     1      20.292   2.863 191.083  0.00  0.00    +0.000 A 
ATOM     17  C   UNL     1      22.036   4.702 182.515  0.00  0.00    +0.000 C 
ENDROOT
BRANCH  10  18
ATOM     18  O   UNL     1      24.524   5.457 186.608  0.00  0.00    +0.000 OA
ATOM     19  H   UNL     1      24.995   6.011 185.942  0.00  0.00    +0.000 HD
ENDBRANCH  10  18
BRANCH  12  20
ATOM     20  O   UNL     1      22.416   3.899 191.161  0.00  0.00    +0.000 OA
ATOM     21  H   UNL     1      22.113   4.150 192.051  0.00  0.00    +0.000 HD
ENDBRANCH  12  20
BRANCH  15  22
ATOM     22  O   UNL     1      18.086   1.795 190.944  0.00  0.00    +0.000 OA
ATOM     23  C   UNL     1      18.255   1.379 192.272  0.00  0.00    +0.000 C 
ENDBRANCH  15  22
TORSDOF 3
ENDMDL
MODEL 4
REMARK VINA RESULT:      -8.1      2.560      5.696
REMARK  Name = 10639_Physcion.pdbqt.pdb
REMARK  3 active torsions:
REMARK  status: ('A' for Active; 'I' for Inactive)
REMARK    1  A    between atoms: C_10  and  O_18
REMARK    2  A    between atoms: C_12  and  O_20
REMARK    3  A    between atoms: C_15  and  O_22
REMARK                            x       y       z     vdW  Elec       q    Type
REMARK                         _______ _______ _______ _____ _____    ______ ____
ROOT
ATOM      1  O   UNL     1      17.876   1.500 190.206  0.00  0.00    +0.000 OA
ATOM      2  O   UNL     1      23.094   1.289 189.149  0.00  0.00    +0.000 OA
ATOM      3  C   UNL     1      20.957   1.929 188.450  0.00  0.00    +0.000 A 
ATOM      4  C   UNL     1      19.594   1.979 188.735  0.00  0.00    +0.000 A 
ATOM      5  C   UNL     1      20.029   0.821 190.981  0.00  0.00    +0.000 A 
ATOM      6  C   UNL     1      21.388   0.783 190.669  0.00  0.00    +0.000 A 
ATOM      7  C   UNL     1      19.084   1.428 190.008  0.00  0.00    +0.000 C 
ATOM      8  C   UNL     1      21.898   1.331 189.403  0.00  0.00    +0.000 C 
ATOM      9  C   UNL     1      21.456   2.445 187.252  0.00  0.00    +0.000 A 
ATOM     10  C   UNL     1      18.730   2.559 187.795  0.00  0.00    +0.000 A 
ATOM     11  C   UNL     1      20.586   3.017 186.330  0.00  0.00    +0.000 A 
ATOM     12  C   UNL     1      19.615   0.280 192.205  0.00  0.00    +0.000 A 
ATOM     13  C   UNL     1      22.316   0.222 191.553  0.00  0.00    +0.000 A 
ATOM     14  C   UNL     1      19.222   3.077 186.596  0.00  0.00    +0.000 A 
ATOM     15  C   UNL     1      21.898  -0.314 192.767  0.00  0.00    +0.000 A 
ATOM     16  C   UNL     1      20.542  -0.281 193.086  0.00  0.00    +0.000 A 
ATOM     17  C   UNL     1      21.125   3.570 185.045  0.00  0.00    +0.000 C 
ENDROOT
BRANCH  10  18
ATOM     18  O   UNL     1      17.378   2.655 187.984  0.00  0.00    +0.000 OA
ATOM     19  H   UNL     1      17.173   2.451 188.927  0.00  0.00    +0.000 HD
ENDBRANCH  10  18
BRANCH  12  20
ATOM     20  O   UNL     1      18.302   0.280 192.578  0.00  0.00    +0.000 OA
ATOM     21  H   UNL     1      18.229   0.126 193.537  0.00  0.00    +0.000 HD
ENDBRANCH  12  20
BRANCH  15  22
ATOM     22  O   UNL     1      22.884  -0.840 193.563  0.00  0.00    +0.000 OA
ATOM     23  C   UNL     1      24.190  -0.667 193.083  0.00  0.00    +0.000 C 
ENDBRANCH  15  22
TORSDOF 3
ENDMDL
MODEL 5
REMARK VINA RESULT:      -7.6     30.647     32.522
REMARK  Name = 10639_Physcion.pdbqt.pdb
REMARK  3 active torsions:
REMARK  status: ('A' for Active; 'I' for Inactive)
REMARK    1  A    between atoms: C_10  and  O_18
REMARK    2  A    between atoms: C_12  and  O_20
REMARK    3  A    between atoms: C_15  and  O_22
REMARK                            x       y       z     vdW  Elec       q    Type
REMARK                         _______ _______ _______ _____ _____    ______ ____
ROOT
ATOM      1  O   UNL     1      38.195  -5.692 167.125  0.00  0.00    +0.000 OA
ATOM      2  O   UNL     1      41.469  -8.523 164.019  0.00  0.00    +0.000 OA
ATOM      3  C   UNL     1      39.326  -7.655 164.364  0.00  0.00    +0.000 A 
ATOM      4  C   UNL     1      38.478  -6.914 165.183  0.00  0.00    +0.000 A 
ATOM      5  C   UNL     1      40.404  -6.549 166.836  0.00  0.00    +0.000 A 
ATOM      6  C   UNL     1      41.231  -7.296 165.997  0.00  0.00    +0.000 A 
ATOM      7  C   UNL     1      38.986  -6.336 166.445  0.00  0.00    +0.000 C 
ATOM      8  C   UNL     1      40.727  -7.872 164.741  0.00  0.00    +0.000 C 
ATOM      9  C   UNL     1      38.863  -8.208 163.169  0.00  0.00    +0.000 A 
ATOM     10  C   UNL     1      37.146  -6.732 164.784  0.00  0.00    +0.000 A 
ATOM     11  C   UNL     1      37.539  -8.019 162.787  0.00  0.00    +0.000 A 
ATOM     12  C   UNL     1      40.952  -6.031 168.017  0.00  0.00    +0.000 A 
ATOM     13  C   UNL     1      42.573  -7.524 166.323  0.00  0.00    +0.000 A 
ATOM     14  C   UNL     1      36.676  -7.282 163.591  0.00  0.00    +0.000 A 
ATOM     15  C   UNL     1      43.110  -7.006 167.497  0.00  0.00    +0.000 A 
ATOM     16  C   UNL     1      42.291  -6.259 168.341  0.00  0.00    +0.000 A 
ATOM     17  C   UNL     1      37.044  -8.614 161.503  0.00  0.00    +0.000 C 
ENDROOT
BRANCH  10  18
ATOM     18  O   UNL     1      36.237  -6.020 165.520  0.00  0.00    +0.000 OA
ATOM     19  H   UNL     1      35.332  -6.354 165.318  0.00  0.00    +0.000 HD
ENDBRANCH  10  18
BRANCH  12  20
ATOM     20  O   UNL     1      40.204  -5.291 168.886  0.00  0.00    +0.000 OA
ATOM     21  H   UNL     1      39.342  -5.721 169.033  0.00  0.00    +0.000 HD
ENDBRANCH  12  20
BRANCH  15  22
ATOM     22  O   UNL     1      44.435  -7.285 167.725  0.00  0.00    +0.000 OA
ATOM     23  C   UNL     1      45.285  -7.061 166.634  0.00  0.00    +0.000 C 
ENDBRANCH  15  22
TORSDOF 3
ENDMDL
MODEL 6
REMARK VINA RESULT:      -7.4      2.093      6.834
REMARK  Name = 10639_Physcion.pdbqt.pdb
REMARK  3 active torsions:
REMARK  status: ('A' for Active; 'I' for Inactive)
REMARK    1  A    between atoms: C_10  and  O_18
REMARK    2  A    between atoms: C_12  and  O_20
REMARK    3  A    between atoms: C_15  and  O_22
REMARK                            x       y       z     vdW  Elec       q    Type
REMARK                         _______ _______ _______ _____ _____    ______ ____
ROOT
ATOM      1  O   UNL     1      22.720   2.971 191.745  0.00  0.00    +0.000 OA
ATOM      2  O   UNL     1      17.838   1.193 190.570  0.00  0.00    +0.000 OA
ATOM      3  C   UNL     1      19.788   2.252 189.837  0.00  0.00    +0.000 A 
ATOM      4  C   UNL     1      21.063   2.714 190.153  0.00  0.00    +0.000 A 
ATOM      5  C   UNL     1      20.758   1.885 192.560  0.00  0.00    +0.000 A 
ATOM      6  C   UNL     1      19.484   1.432 192.215  0.00  0.00    +0.000 A 
ATOM      7  C   UNL     1      21.592   2.547 191.523  0.00  0.00    +0.000 C 
ATOM      8  C   UNL     1      18.957   1.597 190.852  0.00  0.00    +0.000 C 
ATOM      9  C   UNL     1      19.273   2.402 188.547  0.00  0.00    +0.000 A 
ATOM     10  C   UNL     1      21.823   3.334 189.151  0.00  0.00    +0.000 A 
ATOM     11  C   UNL     1      20.040   3.019 187.564  0.00  0.00    +0.000 A 
ATOM     12  C   UNL     1      21.195   1.693 193.877  0.00  0.00    +0.000 A 
ATOM     13  C   UNL     1      18.663   0.802 193.156  0.00  0.00    +0.000 A 
ATOM     14  C   UNL     1      21.315   3.487 187.860  0.00  0.00    +0.000 A 
ATOM     15  C   UNL     1      19.103   0.615 194.463  0.00  0.00    +0.000 A 
ATOM     16  C   UNL     1      20.374   1.065 194.816  0.00  0.00    +0.000 A 
ATOM     17  C   UNL     1      19.484   3.179 186.181  0.00  0.00    +0.000 C 
ENDROOT
BRANCH  10  18
ATOM     18  O   UNL     1      23.085   3.820 189.365  0.00  0.00    +0.000 OA
ATOM     19  H   UNL     1      23.033   4.576 189.996  0.00  0.00    +0.000 HD
ENDBRANCH  10  18
BRANCH  12  20
ATOM     20  O   UNL     1      22.428   2.109 194.288  0.00  0.00    +0.000 OA
ATOM     21  H   UNL     1      22.675   2.928 193.822  0.00  0.00    +0.000 HD
ENDBRANCH  12  20
BRANCH  15  22
ATOM     22  O   UNL     1      18.223  -0.012 195.309  0.00  0.00    +0.000 OA
ATOM     23  C   UNL     1      18.240   0.452 196.632  0.00  0.00    +0.000 C 
ENDBRANCH  15  22
TORSDOF 3
ENDMDL
MODEL 7
REMARK VINA RESULT:      -7.3      3.090      4.621
REMARK  Name = 10639_Physcion.pdbqt.pdb
REMARK  3 active torsions:
REMARK  status: ('A' for Active; 'I' for Inactive)
REMARK    1  A    between atoms: C_10  and  O_18
REMARK    2  A    between atoms: C_12  and  O_20
REMARK    3  A    between atoms: C_15  and  O_22
REMARK                            x       y       z     vdW  Elec       q    Type
REMARK                         _______ _______ _______ _____ _____    ______ ____
ROOT
ATOM      1  O   UNL     1      18.949   0.265 192.132  0.00  0.00    +0.000 OA
ATOM      2  O   UNL     1      23.007   1.390 188.867  0.00  0.00    +0.000 OA
ATOM      3  C   UNL     1      22.289   0.436 190.877  0.00  0.00    +0.000 A 
ATOM      4  C   UNL     1      21.222   0.147 191.725  0.00  0.00    +0.000 A 
ATOM      5  C   UNL     1      19.613   1.257 190.065  0.00  0.00    +0.000 A 
ATOM      6  C   UNL     1      20.701   1.534 189.236  0.00  0.00    +0.000 A 
ATOM      7  C   UNL     1      19.849   0.547 191.349  0.00  0.00    +0.000 C 
ATOM      8  C   UNL     1      22.067   1.138 189.608  0.00  0.00    +0.000 C 
ATOM      9  C   UNL     1      23.592   0.066 191.217  0.00  0.00    +0.000 A 
ATOM     10  C   UNL     1      21.480  -0.525 192.928  0.00  0.00    +0.000 A 
ATOM     11  C   UNL     1      23.832  -0.600 192.414  0.00  0.00    +0.000 A 
ATOM     12  C   UNL     1      18.340   1.665 189.646  0.00  0.00    +0.000 A 
ATOM     13  C   UNL     1      20.528   2.201 188.018  0.00  0.00    +0.000 A 
ATOM     14  C   UNL     1      22.780  -0.898 193.273  0.00  0.00    +0.000 A 
ATOM     15  C   UNL     1      19.260   2.603 187.608  0.00  0.00    +0.000 A 
ATOM     16  C   UNL     1      18.169   2.331 188.431  0.00  0.00    +0.000 A 
ATOM     17  C   UNL     1      25.232  -0.996 192.776  0.00  0.00    +0.000 C 
ENDROOT
BRANCH  10  18
ATOM     18  O   UNL     1      20.499  -0.853 193.825  0.00  0.00    +0.000 OA
ATOM     19  H   UNL     1      20.879  -1.457 194.506  0.00  0.00    +0.000 HD
ENDBRANCH  10  18
BRANCH  12  20
ATOM     20  O   UNL     1      17.230   1.429 190.404  0.00  0.00    +0.000 OA
ATOM     21  H   UNL     1      16.613   2.180 190.334  0.00  0.00    +0.000 HD
ENDBRANCH  12  20
BRANCH  15  22
ATOM     22  O   UNL     1      19.197   3.249 186.399  0.00  0.00    +0.000 OA
ATOM     23  C   UNL     1      20.437   3.597 185.846  0.00  0.00    +0.000 C 
ENDBRANCH  15  22
TORSDOF 3
ENDMDL
MODEL 8
REMARK VINA RESULT:      -7.1      3.847      5.675
REMARK  Name = 10639_Physcion.pdbqt.pdb
REMARK  3 active torsions:
REMARK  status: ('A' for Active; 'I' for Inactive)
REMARK    1  A    between atoms: C_10  and  O_18
REMARK    2  A    between atoms: C_12  and  O_20
REMARK    3  A    between atoms: C_15  and  O_22
REMARK                            x       y       z     vdW  Elec       q    Type
REMARK                         _______ _______ _______ _____ _____    ______ ____
ROOT
ATOM      1  O   UNL     1      20.144  -0.369 192.725  0.00  0.00    +0.000 OA
ATOM      2  O   UNL     1      23.320   1.624 188.940  0.00  0.00    +0.000 OA
ATOM      3  C   UNL     1      21.149   1.363 189.768  0.00  0.00    +0.000 A 
ATOM      4  C   UNL     1      20.327   0.838 190.761  0.00  0.00    +0.000 A 
ATOM      5  C   UNL     1      22.385  -0.142 191.936  0.00  0.00    +0.000 A 
ATOM      6  C   UNL     1      23.185   0.395 190.927  0.00  0.00    +0.000 A 
ATOM      7  C   UNL     1      20.915   0.069 191.879  0.00  0.00    +0.000 C 
ATOM      8  C   UNL     1      22.602   1.161 189.815  0.00  0.00    +0.000 C 
ATOM      9  C   UNL     1      20.611   2.092 188.706  0.00  0.00    +0.000 A 
ATOM     10  C   UNL     1      18.944   1.056 190.677  0.00  0.00    +0.000 A 
ATOM     11  C   UNL     1      19.237   2.299 188.636  0.00  0.00    +0.000 A 
ATOM     12  C   UNL     1      23.009  -0.860 192.964  0.00  0.00    +0.000 A 
ATOM     13  C   UNL     1      24.573   0.223 190.938  0.00  0.00    +0.000 A 
ATOM     14  C   UNL     1      18.399   1.784 189.618  0.00  0.00    +0.000 A 
ATOM     15  C   UNL     1      25.186  -0.491 191.963  0.00  0.00    +0.000 A 
ATOM     16  C   UNL     1      24.395  -1.031 192.974  0.00  0.00    +0.000 A 
ATOM     17  C   UNL     1      18.662   3.083 187.494  0.00  0.00    +0.000 C 
ENDROOT
BRANCH  10  18
ATOM     18  O   UNL     1      18.056   0.581 191.604  0.00  0.00    +0.000 OA
ATOM     19  H   UNL     1      17.388   1.281 191.793  0.00  0.00    +0.000 HD
ENDBRANCH  10  18
BRANCH  12  20
ATOM     20  O   UNL     1      22.293  -1.414 193.985  0.00  0.00    +0.000 OA
ATOM     21  H   UNL     1      21.536  -1.913 193.628  0.00  0.00    +0.000 HD
ENDBRANCH  12  20
BRANCH  15  22
ATOM     22  O   UNL     1      26.552  -0.603 191.883  0.00  0.00    +0.000 OA
ATOM     23  C   UNL     1      27.145   0.102 190.826  0.00  0.00    +0.000 C 
ENDBRANCH  15  22
TORSDOF 3
ENDMDL
MODEL 9
REMARK VINA RESULT:      -6.8      3.090      6.942
REMARK  Name = 10639_Physcion.pdbqt.pdb
REMARK  3 active torsions:
REMARK  status: ('A' for Active; 'I' for Inactive)
REMARK    1  A    between atoms: C_10  and  O_18
REMARK    2  A    between atoms: C_12  and  O_20
REMARK    3  A    between atoms: C_15  and  O_22
REMARK                            x       y       z     vdW  Elec       q    Type
REMARK                         _______ _______ _______ _____ _____    ______ ____
ROOT
ATOM      1  O   UNL     1      23.560  -0.494 190.891  0.00  0.00    +0.000 OA
ATOM      2  O   UNL     1      19.095   2.339 190.241  0.00  0.00    +0.000 OA
ATOM      3  C   UNL     1      21.149   1.653 189.362  0.00  0.00    +0.000 A 
ATOM      4  C   UNL     1      22.313   0.910 189.540  0.00  0.00    +0.000 A 
ATOM      5  C   UNL     1      21.477   0.169 191.849  0.00  0.00    +0.000 A 
ATOM      6  C   UNL     1      20.321   0.923 191.643  0.00  0.00    +0.000 A 
ATOM      7  C   UNL     1      22.518   0.143 190.788  0.00  0.00    +0.000 C 
ATOM      8  C   UNL     1      20.116   1.685 190.403  0.00  0.00    +0.000 C 
ATOM      9  C   UNL     1      20.940   2.382 188.189  0.00  0.00    +0.000 A 
ATOM     10  C   UNL     1      23.274   0.907 188.520  0.00  0.00    +0.000 A 
ATOM     11  C   UNL     1      21.903   2.369 187.187  0.00  0.00    +0.000 A 
ATOM     12  C   UNL     1      21.605  -0.532 193.055  0.00  0.00    +0.000 A 
ATOM     13  C   UNL     1      19.314   0.978 192.613  0.00  0.00    +0.000 A 
ATOM     14  C   UNL     1      23.072   1.633 187.346  0.00  0.00    +0.000 A 
ATOM     15  C   UNL     1      19.447   0.278 193.808  0.00  0.00    +0.000 A 
ATOM     16  C   UNL     1      20.599  -0.476 194.022  0.00  0.00    +0.000 A 
ATOM     17  C   UNL     1      21.676   3.153 185.929  0.00  0.00    +0.000 C 
ENDROOT
BRANCH  10  18
ATOM     18  O   UNL     1      24.449   0.208 188.602  0.00  0.00    +0.000 OA
ATOM     19  H   UNL     1      24.472  -0.276 189.461  0.00  0.00    +0.000 HD
ENDBRANCH  10  18
BRANCH  12  20
ATOM     20  O   UNL     1      22.707  -1.290 193.327  0.00  0.00    +0.000 OA
ATOM     21  H   UNL     1      23.438  -0.719 193.624  0.00  0.00    +0.000 HD
ENDBRANCH  12  20
BRANCH  15  22
ATOM     22  O   UNL     1      18.405   0.398 194.693  0.00  0.00    +0.000 OA
ATOM     23  C   UNL     1      18.762   0.314 196.046  0.00  0.00    +0.000 C 
ENDBRANCH  15  22
TORSDOF 3
ENDMDL
