MODEL 1
REMARK VINA RESULT:      -8.9      0.000      0.000
REMARK  Name = 10940649_MilnamideD.pdbqt.pdb
REMARK  7 active torsions:
REMARK  status: ('A' for Active; 'I' for Inactive)
REMARK    1  A    between atoms: C_3  and  C_8
REMARK    2  A    between atoms: C_22  and  C_25
REMARK    3  A    between atoms: C_22  and  C_38
REMARK    4  A    between atoms: N_24  and  C_27
REMARK    5  A    between atoms: C_27  and  C_28
REMARK    6  A    between atoms: C_32  and  C_35
REMARK    7  A    between atoms: C_35  and  O_36
REMARK                            x       y       z     vdW  Elec       q    Type
REMARK                         _______ _______ _______ _____ _____    ______ ____
ROOT
ATOM      1  O   UNL     1      23.143   1.865 190.837  0.00  0.00    +0.000 OA
ATOM      2  N   UNL     1      23.603   3.434 189.261  0.00  0.00    +0.000 N 
ATOM      3  C   UNL     1      23.944   2.654 190.350  0.00  0.00    +0.000 C 
ATOM      4  H   UNL     1      24.264   4.154 188.949  0.00  0.00    +0.000 HD
ATOM      5  C   UNL     1      22.366   3.375 188.573  0.00  0.00    +0.000 C 
ENDROOT
BRANCH   3   9
ATOM      6  N   UNL     1      25.532   3.320 192.263  0.00  0.00    +0.000 NA
ATOM      7  N   UNL     1      29.446   3.308 192.011  0.00  0.00    +0.000 N 
ATOM      8  C   UNL     1      26.469   2.756 189.828  0.00  0.00    +0.000 C 
ATOM      9  C   UNL     1      25.331   2.832 190.889  0.00  0.00    +0.000 C 
ATOM     10  C   UNL     1      27.904   2.900 190.429  0.00  0.00    +0.000 A 
ATOM     11  C   UNL     1      28.122   3.231 191.750  0.00  0.00    +0.000 A 
ATOM     12  C   UNL     1      26.352   3.954 188.840  0.00  0.00    +0.000 C 
ATOM     13  C   UNL     1      26.464   1.352 189.156  0.00  0.00    +0.000 C 
ATOM     14  C   UNL     1      29.218   2.783 189.850  0.00  0.00    +0.000 A 
ATOM     15  C   UNL     1      26.950   3.405 192.493  0.00  0.00    +0.000 C 
ATOM     16  C   UNL     1      30.160   3.040 190.866  0.00  0.00    +0.000 A 
ATOM     17  C   UNL     1      24.990   2.385 193.236  0.00  0.00    +0.000 C 
ATOM     18  C   UNL     1      29.691   2.488 188.556  0.00  0.00    +0.000 A 
ATOM     19  C   UNL     1      29.999   3.637 193.280  0.00  0.00    +0.000 C 
ATOM     20  C   UNL     1      31.543   3.006 190.629  0.00  0.00    +0.000 A 
ATOM     21  C   UNL     1      31.065   2.452 188.314  0.00  0.00    +0.000 A 
ATOM     22  C   UNL     1      31.972   2.705 189.335  0.00  0.00    +0.000 A 
ENDBRANCH   3   9
BRANCH   5  25
ATOM     23  O   UNL     1      21.560   1.202 188.360  0.00  0.00    +0.000 OA
ATOM     24  N   UNL     1      20.396   2.642 189.828  0.00  0.00    +0.000 N 
ATOM     25  C   UNL     1      21.393   2.300 188.882  0.00  0.00    +0.000 C 
ATOM     26  C   UNL     1      20.213   3.985 190.390  0.00  0.00    +0.000 C 
BRANCH  24  27
ATOM     27  C   UNL     1      19.510   1.664 190.314  0.00  0.00    +0.000 C 
ATOM     28  C   UNL     1      19.835   0.872 191.468  0.00  0.00    +0.000 C 
ATOM     29  C   UNL     1      20.124   0.150 192.511  0.00  0.00    +0.000 C 
ATOM     30  C   UNL     1      19.270   0.408 193.735  0.00  0.00    +0.000 C 
BRANCH  27  31
ATOM     31  C   UNL     1      18.217   1.426 189.689  0.00  0.00    +0.000 C 
ATOM     32  C   UNL     1      16.967   1.292 190.535  0.00  0.00    +0.000 C 
ATOM     33  C   UNL     1      17.974   1.906 188.270  0.00  0.00    +0.000 C 
ENDBRANCH  27  31
BRANCH  29  35
ATOM     34  O   UNL     1      21.094  -2.058 192.523  0.00  0.00    +0.000 OA
ATOM     35  C   UNL     1      21.228  -0.845 192.443  0.00  0.00    +0.000 C 
BRANCH  35  36
ATOM     36  O   UNL     1      22.456  -0.310 192.281  0.00  0.00    +0.000 OA
ATOM     37  H   UNL     1      22.321   0.659 192.304  0.00  0.00    +0.000 HD
ENDBRANCH  35  36
ENDBRANCH  29  35
ENDBRANCH  24  27
ENDBRANCH   5  25
BRANCH   5  38
ATOM     38  C   UNL     1      22.048   4.190 187.330  0.00  0.00    +0.000 C 
ATOM     39  C   UNL     1      22.008   5.688 187.773  0.00  0.00    +0.000 C 
ATOM     40  C   UNL     1      23.224   4.010 186.328  0.00  0.00    +0.000 C 
ATOM     41  C   UNL     1      20.695   3.820 186.676  0.00  0.00    +0.000 C 
ENDBRANCH   5  38
TORSDOF 7
ENDMDL
MODEL 2
REMARK VINA RESULT:      -8.9      2.249      4.636
REMARK  Name = 10940649_MilnamideD.pdbqt.pdb
REMARK  7 active torsions:
REMARK  status: ('A' for Active; 'I' for Inactive)
REMARK    1  A    between atoms: C_3  and  C_8
REMARK    2  A    between atoms: C_22  and  C_25
REMARK    3  A    between atoms: C_22  and  C_38
REMARK    4  A    between atoms: N_24  and  C_27
REMARK    5  A    between atoms: C_27  and  C_28
REMARK    6  A    between atoms: C_32  and  C_35
REMARK    7  A    between atoms: C_35  and  O_36
REMARK                            x       y       z     vdW  Elec       q    Type
REMARK                         _______ _______ _______ _____ _____    ______ ____
ROOT
ATOM      1  O   UNL     1      24.140   3.441 190.634  0.00  0.00    +0.000 OA
ATOM      2  N   UNL     1      23.597   1.673 191.950  0.00  0.00    +0.000 N 
ATOM      3  C   UNL     1      24.486   2.616 191.471  0.00  0.00    +0.000 C 
ATOM      4  H   UNL     1      23.952   0.937 192.572  0.00  0.00    +0.000 HD
ATOM      5  C   UNL     1      22.229   1.588 191.593  0.00  0.00    +0.000 C 
ENDROOT
BRANCH   3   9
ATOM      6  N   UNL     1      26.288   3.524 193.069  0.00  0.00    +0.000 NA
ATOM      7  N   UNL     1      29.961   2.163 193.283  0.00  0.00    +0.000 N 
ATOM      8  C   UNL     1      26.876   1.669 191.241  0.00  0.00    +0.000 C 
ATOM      9  C   UNL     1      25.876   2.566 192.029  0.00  0.00    +0.000 C 
ATOM     10  C   UNL     1      28.302   1.604 191.874  0.00  0.00    +0.000 A 
ATOM     11  C   UNL     1      28.677   2.401 192.936  0.00  0.00    +0.000 A 
ATOM     12  C   UNL     1      27.119   2.269 189.824  0.00  0.00    +0.000 C 
ATOM     13  C   UNL     1      26.374   0.196 191.249  0.00  0.00    +0.000 C 
ATOM     14  C   UNL     1      29.476   0.833 191.554  0.00  0.00    +0.000 A 
ATOM     15  C   UNL     1      27.663   3.250 193.394  0.00  0.00    +0.000 C 
ATOM     16  C   UNL     1      30.494   1.203 192.455  0.00  0.00    +0.000 A 
ATOM     17  C   UNL     1      25.510   3.347 194.285  0.00  0.00    +0.000 C 
ATOM     18  C   UNL     1      29.766  -0.142 190.578  0.00  0.00    +0.000 A 
ATOM     19  C   UNL     1      30.648   2.830 194.336  0.00  0.00    +0.000 C 
ATOM     20  C   UNL     1      31.774   0.631 192.411  0.00  0.00    +0.000 A 
ATOM     21  C   UNL     1      31.037  -0.714 190.529  0.00  0.00    +0.000 A 
ATOM     22  C   UNL     1      32.021  -0.334 191.433  0.00  0.00    +0.000 A 
ENDBRANCH   3   9
BRANCH   5  25
ATOM     23  O   UNL     1      21.185   3.657 191.377  0.00  0.00    +0.000 OA
ATOM     24  N   UNL     1      21.619   2.458 189.388  0.00  0.00    +0.000 N 
ATOM     25  C   UNL     1      21.601   2.663 190.788  0.00  0.00    +0.000 C 
ATOM     26  C   UNL     1      22.090   1.230 188.737  0.00  0.00    +0.000 C 
BRANCH  24  27
ATOM     27  C   UNL     1      21.192   3.473 188.513  0.00  0.00    +0.000 C 
ATOM     28  C   UNL     1      22.100   4.088 187.585  0.00  0.00    +0.000 C 
ATOM     29  C   UNL     1      22.917   4.650 186.743  0.00  0.00    +0.000 C 
ATOM     30  C   UNL     1      22.646   4.360 185.282  0.00  0.00    +0.000 C 
BRANCH  27  31
ATOM     31  C   UNL     1      19.809   3.928 188.490  0.00  0.00    +0.000 C 
ATOM     32  C   UNL     1      19.475   5.385 188.740  0.00  0.00    +0.000 C 
ATOM     33  C   UNL     1      18.790   3.178 187.652  0.00  0.00    +0.000 C 
ENDBRANCH  27  31
BRANCH  29  35
ATOM     34  O   UNL     1      24.987   5.878 186.589  0.00  0.00    +0.000 OA
ATOM     35  C   UNL     1      24.023   5.511 187.245  0.00  0.00    +0.000 C 
BRANCH  35  36
ATOM     36  O   UNL     1      23.902   5.884 188.536  0.00  0.00    +0.000 OA
ATOM     37  H   UNL     1      23.594   6.814 188.508  0.00  0.00    +0.000 HD
ENDBRANCH  35  36
ENDBRANCH  29  35
ENDBRANCH  24  27
ENDBRANCH   5  25
BRANCH   5  38
ATOM     38  C   UNL     1      21.256   0.588 192.196  0.00  0.00    +0.000 C 
ATOM     39  C   UNL     1      21.966  -0.804 192.167  0.00  0.00    +0.000 C 
ATOM     40  C   UNL     1      21.025   0.985 193.683  0.00  0.00    +0.000 C 
ATOM     41  C   UNL     1      19.915   0.488 191.429  0.00  0.00    +0.000 C 
ENDBRANCH   5  38
TORSDOF 7
ENDMDL
MODEL 3
REMARK VINA RESULT:      -8.8      2.980      9.223
REMARK  Name = 10940649_MilnamideD.pdbqt.pdb
REMARK  7 active torsions:
REMARK  status: ('A' for Active; 'I' for Inactive)
REMARK    1  A    between atoms: C_3  and  C_8
REMARK    2  A    between atoms: C_22  and  C_25
REMARK    3  A    between atoms: C_22  and  C_38
REMARK    4  A    between atoms: N_24  and  C_27
REMARK    5  A    between atoms: C_27  and  C_28
REMARK    6  A    between atoms: C_32  and  C_35
REMARK    7  A    between atoms: C_35  and  O_36
REMARK                            x       y       z     vdW  Elec       q    Type
REMARK                         _______ _______ _______ _____ _____    ______ ____
ROOT
ATOM      1  O   UNL     1      26.856   1.929 190.399  0.00  0.00    +0.000 OA
ATOM      2  N   UNL     1      26.219   0.452 192.001  0.00  0.00    +0.000 N 
ATOM      3  C   UNL     1      25.952   1.323 190.962  0.00  0.00    +0.000 C 
ATOM      4  H   UNL     1      25.428   0.044 192.512  0.00  0.00    +0.000 HD
ATOM      5  C   UNL     1      27.511   0.128 192.480  0.00  0.00    +0.000 C 
ENDROOT
BRANCH   3   9
ATOM      6  N   UNL     1      23.452   0.940 191.443  0.00  0.00    +0.000 NA
ATOM      7  N   UNL     1      20.537   2.020 189.051  0.00  0.00    +0.000 N 
ATOM      8  C   UNL     1      24.268   1.946 189.108  0.00  0.00    +0.000 C 
ATOM      9  C   UNL     1      24.513   1.475 190.572  0.00  0.00    +0.000 C 
ATOM     10  C   UNL     1      22.761   2.138 188.749  0.00  0.00    +0.000 A 
ATOM     11  C   UNL     1      21.744   1.763 189.603  0.00  0.00    +0.000 A 
ATOM     12  C   UNL     1      24.756   0.851 188.113  0.00  0.00    +0.000 C 
ATOM     13  C   UNL     1      24.905   3.350 188.898  0.00  0.00    +0.000 C 
ATOM     14  C   UNL     1      22.096   2.652 187.579  0.00  0.00    +0.000 A 
ATOM     15  C   UNL     1      22.189   1.217 190.811  0.00  0.00    +0.000 C 
ATOM     16  C   UNL     1      20.707   2.568 187.801  0.00  0.00    +0.000 A 
ATOM     17  C   UNL     1      23.448   1.608 192.735  0.00  0.00    +0.000 C 
ATOM     18  C   UNL     1      22.548   3.176 186.351  0.00  0.00    +0.000 A 
ATOM     19  C   UNL     1      19.290   1.741 189.676  0.00  0.00    +0.000 C 
ATOM     20  C   UNL     1      19.771   2.992 186.845  0.00  0.00    +0.000 A 
ATOM     21  C   UNL     1      21.622   3.598 185.397  0.00  0.00    +0.000 A 
ATOM     22  C   UNL     1      20.258   3.508 185.644  0.00  0.00    +0.000 A 
ENDBRANCH   3   9
BRANCH   5  25
ATOM     23  O   UNL     1      29.071  -0.066 190.763  0.00  0.00    +0.000 OA
ATOM     24  N   UNL     1      29.291   1.787 192.213  0.00  0.00    +0.000 N 
ATOM     25  C   UNL     1      28.715   0.582 191.743  0.00  0.00    +0.000 C 
ATOM     26  C   UNL     1      28.851   2.501 193.417  0.00  0.00    +0.000 C 
BRANCH  24  27
ATOM     27  C   UNL     1      30.341   2.398 191.505  0.00  0.00    +0.000 C 
ATOM     28  C   UNL     1      30.181   2.802 190.135  0.00  0.00    +0.000 C 
ATOM     29  C   UNL     1      30.043   3.169 188.895  0.00  0.00    +0.000 C 
ATOM     30  C   UNL     1      30.057   4.663 188.653  0.00  0.00    +0.000 C 
BRANCH  27  31
ATOM     31  C   UNL     1      31.626   2.673 192.131  0.00  0.00    +0.000 C 
ATOM     32  C   UNL     1      32.533   1.535 192.558  0.00  0.00    +0.000 C 
ATOM     33  C   UNL     1      32.344   3.975 191.825  0.00  0.00    +0.000 C 
ENDBRANCH  27  31
BRANCH  29  35
ATOM     34  O   UNL     1      30.610   2.020 186.851  0.00  0.00    +0.000 OA
ATOM     35  C   UNL     1      29.888   2.140 187.830  0.00  0.00    +0.000 C 
BRANCH  35  36
ATOM     36  O   UNL     1      28.847   1.299 188.009  0.00  0.00    +0.000 OA
ATOM     37  H   UNL     1      29.185   0.414 187.760  0.00  0.00    +0.000 HD
ENDBRANCH  35  36
ENDBRANCH  29  35
ENDBRANCH  24  27
ENDBRANCH   5  25
BRANCH   5  38
ATOM     38  C   UNL     1      27.779  -0.894 193.574  0.00  0.00    +0.000 C 
ATOM     39  C   UNL     1      27.288  -0.255 194.913  0.00  0.00    +0.000 C 
ATOM     40  C   UNL     1      26.903  -2.146 193.282  0.00  0.00    +0.000 C 
ATOM     41  C   UNL     1      29.273  -1.276 193.714  0.00  0.00    +0.000 C 
ENDBRANCH   5  38
TORSDOF 7
ENDMDL
MODEL 4
REMARK VINA RESULT:      -8.2      3.074      8.026
REMARK  Name = 10940649_MilnamideD.pdbqt.pdb
REMARK  7 active torsions:
REMARK  status: ('A' for Active; 'I' for Inactive)
REMARK    1  A    between atoms: C_3  and  C_8
REMARK    2  A    between atoms: C_22  and  C_25
REMARK    3  A    between atoms: C_22  and  C_38
REMARK    4  A    between atoms: N_24  and  C_27
REMARK    5  A    between atoms: C_27  and  C_28
REMARK    6  A    between atoms: C_32  and  C_35
REMARK    7  A    between atoms: C_35  and  O_36
REMARK                            x       y       z     vdW  Elec       q    Type
REMARK                         _______ _______ _______ _____ _____    ______ ____
ROOT
ATOM      1  O   UNL     1      21.869   2.329 191.403  0.00  0.00    +0.000 OA
ATOM      2  N   UNL     1      24.003   1.555 191.394  0.00  0.00    +0.000 N 
ATOM      3  C   UNL     1      22.802   1.829 192.020  0.00  0.00    +0.000 C 
ATOM      4  H   UNL     1      24.791   1.233 191.968  0.00  0.00    +0.000 HD
ATOM      5  C   UNL     1      24.268   1.755 190.017  0.00  0.00    +0.000 C 
ENDROOT
BRANCH   3   9
ATOM      6  N   UNL     1      23.943   1.310 194.268  0.00  0.00    +0.000 NA
ATOM      7  N   UNL     1      22.035   0.390 197.569  0.00  0.00    +0.000 N 
ATOM      8  C   UNL     1      21.303   1.046 193.969  0.00  0.00    +0.000 C 
ATOM      9  C   UNL     1      22.714   1.483 193.475  0.00  0.00    +0.000 C 
ATOM     10  C   UNL     1      21.236   0.736 195.498  0.00  0.00    +0.000 A 
ATOM     11  C   UNL     1      22.363   0.694 196.294  0.00  0.00    +0.000 A 
ATOM     12  C   UNL     1      20.900  -0.298 193.293  0.00  0.00    +0.000 C 
ATOM     13  C   UNL     1      20.293   2.211 193.760  0.00  0.00    +0.000 C 
ATOM     14  C   UNL     1      20.143   0.414 196.380  0.00  0.00    +0.000 A 
ATOM     15  C   UNL     1      23.551   0.969 195.610  0.00  0.00    +0.000 C 
ATOM     16  C   UNL     1      20.676   0.208 197.668  0.00  0.00    +0.000 A 
ATOM     17  C   UNL     1      24.702   2.549 194.337  0.00  0.00    +0.000 C 
ATOM     18  C   UNL     1      18.753   0.276 196.199  0.00  0.00    +0.000 A 
ATOM     19  C   UNL     1      22.973   0.263 198.633  0.00  0.00    +0.000 C 
ATOM     20  C   UNL     1      19.867  -0.124 198.766  0.00  0.00    +0.000 A 
ATOM     21  C   UNL     1      17.944  -0.055 197.286  0.00  0.00    +0.000 A 
ATOM     22  C   UNL     1      18.494  -0.249 198.547  0.00  0.00    +0.000 A 
ENDBRANCH   3   9
BRANCH   5  25
ATOM     23  O   UNL     1      22.494   1.205 188.613  0.00  0.00    +0.000 OA
ATOM     24  N   UNL     1      22.956   3.503 188.915  0.00  0.00    +0.000 N 
ATOM     25  C   UNL     1      23.167   2.114 189.091  0.00  0.00    +0.000 C 
ATOM     26  C   UNL     1      23.817   4.550 189.477  0.00  0.00    +0.000 C 
BRANCH  24  27
ATOM     27  C   UNL     1      21.849   3.968 188.183  0.00  0.00    +0.000 C 
ATOM     28  C   UNL     1      21.888   4.056 186.749  0.00  0.00    +0.000 C 
ATOM     29  C   UNL     1      21.916   4.140 185.451  0.00  0.00    +0.000 C 
ATOM     30  C   UNL     1      21.005   3.178 184.718  0.00  0.00    +0.000 C 
BRANCH  27  31
ATOM     31  C   UNL     1      20.608   4.357 188.838  0.00  0.00    +0.000 C 
ATOM     32  C   UNL     1      20.070   5.766 188.692  0.00  0.00    +0.000 C 
ATOM     33  C   UNL     1      19.556   3.303 189.131  0.00  0.00    +0.000 C 
ENDBRANCH  27  31
BRANCH  29  35
ATOM     34  O   UNL     1      22.523   5.786 183.796  0.00  0.00    +0.000 OA
ATOM     35  C   UNL     1      22.805   5.134 184.791  0.00  0.00    +0.000 C 
BRANCH  35  36
ATOM     36  O   UNL     1      24.011   5.287 185.379  0.00  0.00    +0.000 OA
ATOM     37  H   UNL     1      24.256   6.223 185.225  0.00  0.00    +0.000 HD
ENDBRANCH  35  36
ENDBRANCH  29  35
ENDBRANCH  24  27
ENDBRANCH   5  25
BRANCH   5  38
ATOM     38  C   UNL     1      25.574   1.371 189.340  0.00  0.00    +0.000 C 
ATOM     39  C   UNL     1      26.425   2.677 189.234  0.00  0.00    +0.000 C 
ATOM     40  C   UNL     1      26.321   0.378 190.276  0.00  0.00    +0.000 C 
ATOM     41  C   UNL     1      25.386   0.772 187.925  0.00  0.00    +0.000 C 
ENDBRANCH   5  38
TORSDOF 7
ENDMDL
MODEL 5
REMARK VINA RESULT:      -8.2      2.910      8.656
REMARK  Name = 10940649_MilnamideD.pdbqt.pdb
REMARK  7 active torsions:
REMARK  status: ('A' for Active; 'I' for Inactive)
REMARK    1  A    between atoms: C_3  and  C_8
REMARK    2  A    between atoms: C_22  and  C_25
REMARK    3  A    between atoms: C_22  and  C_38
REMARK    4  A    between atoms: N_24  and  C_27
REMARK    5  A    between atoms: C_27  and  C_28
REMARK    6  A    between atoms: C_32  and  C_35
REMARK    7  A    between atoms: C_35  and  O_36
REMARK                            x       y       z     vdW  Elec       q    Type
REMARK                         _______ _______ _______ _____ _____    ______ ____
ROOT
ATOM      1  O   UNL     1      24.155   0.783 192.275  0.00  0.00    +0.000 OA
ATOM      2  N   UNL     1      22.505   0.101 193.678  0.00  0.00    +0.000 N 
ATOM      3  C   UNL     1      22.957   0.635 192.486  0.00  0.00    +0.000 C 
ATOM      4  H   UNL     1      21.495   0.089 193.856  0.00  0.00    +0.000 HD
ATOM      5  C   UNL     1      23.334  -0.372 194.724  0.00  0.00    +0.000 C 
ENDROOT
BRANCH   3   9
ATOM      6  N   UNL     1      20.498   0.666 191.726  0.00  0.00    +0.000 NA
ATOM      7  N   UNL     1      19.237   2.187 188.337  0.00  0.00    +0.000 N 
ATOM      8  C   UNL     1      22.450   1.510 190.112  0.00  0.00    +0.000 C 
ATOM      9  C   UNL     1      21.908   1.016 191.486  0.00  0.00    +0.000 C 
ATOM     10  C   UNL     1      21.333   1.941 189.110  0.00  0.00    +0.000 A 
ATOM     11  C   UNL     1      19.992   1.742 189.366  0.00  0.00    +0.000 A 
ATOM     12  C   UNL     1      23.181   0.344 189.383  0.00  0.00    +0.000 C 
ATOM     13  C   UNL     1      23.308   2.791 190.319  0.00  0.00    +0.000 C 
ATOM     14  C   UNL     1      21.377   2.548 187.804  0.00  0.00    +0.000 A 
ATOM     15  C   UNL     1      19.734   1.140 190.602  0.00  0.00    +0.000 C 
ATOM     16  C   UNL     1      20.050   2.692 187.350  0.00  0.00    +0.000 A 
ATOM     17  C   UNL     1      19.986   1.334 192.912  0.00  0.00    +0.000 C 
ATOM     18  C   UNL     1      22.423   2.983 186.966  0.00  0.00    +0.000 A 
ATOM     19  C   UNL     1      17.816   2.118 188.292  0.00  0.00    +0.000 C 
ATOM     20  C   UNL     1      19.745   3.255 186.102  0.00  0.00    +0.000 A 
ATOM     21  C   UNL     1      22.126   3.543 185.723  0.00  0.00    +0.000 A 
ATOM     22  C   UNL     1      20.809   3.677 185.302  0.00  0.00    +0.000 A 
ENDBRANCH   3   9
BRANCH   5  25
ATOM     23  O   UNL     1      25.220  -1.501 193.956  0.00  0.00    +0.000 OA
ATOM     24  N   UNL     1      25.561   0.624 194.931  0.00  0.00    +0.000 N 
ATOM     25  C   UNL     1      24.797  -0.495 194.518  0.00  0.00    +0.000 C 
ATOM     26  C   UNL     1      25.011   1.786 195.638  0.00  0.00    +0.000 C 
BRANCH  24  27
ATOM     27  C   UNL     1      26.937   0.691 194.650  0.00  0.00    +0.000 C 
ATOM     28  C   UNL     1      27.414   0.983 193.326  0.00  0.00    +0.000 C 
ATOM     29  C   UNL     1      27.853   1.247 192.130  0.00  0.00    +0.000 C 
ATOM     30  C   UNL     1      28.555   2.579 191.974  0.00  0.00    +0.000 C 
BRANCH  27  31
ATOM     31  C   UNL     1      27.939   0.492 195.687  0.00  0.00    +0.000 C 
ATOM     32  C   UNL     1      28.809   1.644 196.147  0.00  0.00    +0.000 C 
ATOM     33  C   UNL     1      27.738  -0.603 196.719  0.00  0.00    +0.000 C 
ENDBRANCH  27  31
BRANCH  29  35
ATOM     34  O   UNL     1      28.362   0.143 190.046  0.00  0.00    +0.000 OA
ATOM     35  C   UNL     1      27.648   0.263 191.032  0.00  0.00    +0.000 C 
BRANCH  35  36
ATOM     36  O   UNL     1      26.571  -0.535 191.186  0.00  0.00    +0.000 OA
ATOM     37  H   UNL     1      26.251  -0.363 192.096  0.00  0.00    +0.000 HD
ENDBRANCH  35  36
ENDBRANCH  29  35
ENDBRANCH  24  27
ENDBRANCH   5  25
BRANCH   5  38
ATOM     38  C   UNL     1      22.809  -1.027 195.992  0.00  0.00    +0.000 C 
ATOM     39  C   UNL     1      22.194   0.113 196.864  0.00  0.00    +0.000 C 
ATOM     40  C   UNL     1      21.666  -2.001 195.586  0.00  0.00    +0.000 C 
ATOM     41  C   UNL     1      23.902  -1.757 196.810  0.00  0.00    +0.000 C 
ENDBRANCH   5  38
TORSDOF 7
ENDMDL
MODEL 6
REMARK VINA RESULT:      -8.1      1.958      2.259
REMARK  Name = 10940649_MilnamideD.pdbqt.pdb
REMARK  7 active torsions:
REMARK  status: ('A' for Active; 'I' for Inactive)
REMARK    1  A    between atoms: C_3  and  C_8
REMARK    2  A    between atoms: C_22  and  C_25
REMARK    3  A    between atoms: C_22  and  C_38
REMARK    4  A    between atoms: N_24  and  C_27
REMARK    5  A    between atoms: C_27  and  C_28
REMARK    6  A    between atoms: C_32  and  C_35
REMARK    7  A    between atoms: C_35  and  O_36
REMARK                            x       y       z     vdW  Elec       q    Type
REMARK                         _______ _______ _______ _____ _____    ______ ____
ROOT
ATOM      1  O   UNL     1      23.528   1.628 191.812  0.00  0.00    +0.000 OA
ATOM      2  N   UNL     1      24.465   2.698 190.043  0.00  0.00    +0.000 N 
ATOM      3  C   UNL     1      24.522   1.849 191.131  0.00  0.00    +0.000 C 
ATOM      4  H   UNL     1      25.339   2.936 189.561  0.00  0.00    +0.000 HD
ATOM      5  C   UNL     1      23.293   3.339 189.571  0.00  0.00    +0.000 C 
ENDROOT
BRANCH   3   9
ATOM      6  N   UNL     1      25.977   0.202 192.472  0.00  0.00    +0.000 NA
ATOM      7  N   UNL     1      29.849  -0.228 192.012  0.00  0.00    +0.000 N 
ATOM      8  C   UNL     1      27.075   1.935 190.763  0.00  0.00    +0.000 C 
ATOM      9  C   UNL     1      25.854   1.225 191.420  0.00  0.00    +0.000 C 
ATOM     10  C   UNL     1      28.442   1.235 191.048  0.00  0.00    +0.000 A 
ATOM     11  C   UNL     1      28.564   0.185 191.935  0.00  0.00    +0.000 A 
ATOM     12  C   UNL     1      27.248   3.359 191.370  0.00  0.00    +0.000 C 
ATOM     13  C   UNL     1      26.929   1.898 189.214  0.00  0.00    +0.000 C 
ATOM     14  C   UNL     1      29.778   1.473 190.564  0.00  0.00    +0.000 A 
ATOM     15  C   UNL     1      27.359  -0.196 192.534  0.00  0.00    +0.000 C 
ATOM     16  C   UNL     1      30.633   0.540 191.183  0.00  0.00    +0.000 A 
ATOM     17  C   UNL     1      25.198  -0.982 192.146  0.00  0.00    +0.000 C 
ATOM     18  C   UNL     1      30.337   2.400 189.662  0.00  0.00    +0.000 A 
ATOM     19  C   UNL     1      30.305  -1.288 192.845  0.00  0.00    +0.000 C 
ATOM     20  C   UNL     1      32.012   0.504 190.925  0.00  0.00    +0.000 A 
ATOM     21  C   UNL     1      31.708   2.370 189.402  0.00  0.00    +0.000 A 
ATOM     22  C   UNL     1      32.527   1.436 190.022  0.00  0.00    +0.000 A 
ENDBRANCH   3   9
BRANCH   5  25
ATOM     23  O   UNL     1      21.469   3.730 190.964  0.00  0.00    +0.000 OA
ATOM     24  N   UNL     1      21.375   1.818 189.578  0.00  0.00    +0.000 N 
ATOM     25  C   UNL     1      21.969   2.978 190.132  0.00  0.00    +0.000 C 
ATOM     26  C   UNL     1      22.036   0.928 188.616  0.00  0.00    +0.000 C 
BRANCH  24  27
ATOM     27  C   UNL     1      20.059   1.459 189.919  0.00  0.00    +0.000 C 
ATOM     28  C   UNL     1      19.756   0.854 191.186  0.00  0.00    +0.000 C 
ATOM     29  C   UNL     1      19.474   0.305 192.332  0.00  0.00    +0.000 C 
ATOM     30  C   UNL     1      18.651   1.157 193.276  0.00  0.00    +0.000 C 
BRANCH  27  31
ATOM     31  C   UNL     1      18.943   1.706 189.017  0.00  0.00    +0.000 C 
ATOM     32  C   UNL     1      17.537   1.291 189.402  0.00  0.00    +0.000 C 
ATOM     33  C   UNL     1      19.017   2.862 188.036  0.00  0.00    +0.000 C 
ENDBRANCH  27  31
BRANCH  29  35
ATOM     34  O   UNL     1      21.015  -1.548 192.256  0.00  0.00    +0.000 OA
ATOM     35  C   UNL     1      19.955  -1.070 192.633  0.00  0.00    +0.000 C 
BRANCH  35  36
ATOM     36  O   UNL     1      19.111  -1.808 193.385  0.00  0.00    +0.000 OA
ATOM     37  H   UNL     1      18.572  -1.158 193.881  0.00  0.00    +0.000 HD
ENDBRANCH  35  36
ENDBRANCH  29  35
ENDBRANCH  24  27
ENDBRANCH   5  25
BRANCH   5  38
ATOM     38  C   UNL     1      23.245   4.207 188.324  0.00  0.00    +0.000 C 
ATOM     39  C   UNL     1      24.459   5.186 188.411  0.00  0.00    +0.000 C 
ATOM     40  C   UNL     1      23.452   3.282 187.091  0.00  0.00    +0.000 C 
ATOM     41  C   UNL     1      21.940   5.030 188.192  0.00  0.00    +0.000 C 
ENDBRANCH   5  38
TORSDOF 7
ENDMDL
MODEL 7
REMARK VINA RESULT:      -8.1      2.787      7.681
REMARK  Name = 10940649_MilnamideD.pdbqt.pdb
REMARK  7 active torsions:
REMARK  status: ('A' for Active; 'I' for Inactive)
REMARK    1  A    between atoms: C_3  and  C_8
REMARK    2  A    between atoms: C_22  and  C_25
REMARK    3  A    between atoms: C_22  and  C_38
REMARK    4  A    between atoms: N_24  and  C_27
REMARK    5  A    between atoms: C_27  and  C_28
REMARK    6  A    between atoms: C_32  and  C_35
REMARK    7  A    between atoms: C_35  and  O_36
REMARK                            x       y       z     vdW  Elec       q    Type
REMARK                         _______ _______ _______ _____ _____    ______ ____
ROOT
ATOM      1  O   UNL     1      22.378   1.977 191.425  0.00  0.00    +0.000 OA
ATOM      2  N   UNL     1      24.584   1.584 191.789  0.00  0.00    +0.000 N 
ATOM      3  C   UNL     1      23.272   1.687 192.210  0.00  0.00    +0.000 C 
ATOM      4  H   UNL     1      25.315   1.441 192.495  0.00  0.00    +0.000 HD
ATOM      5  C   UNL     1      25.024   1.737 190.451  0.00  0.00    +0.000 C 
ENDROOT
BRANCH   3   9
ATOM      6  N   UNL     1      24.147   1.230 194.588  0.00  0.00    +0.000 NA
ATOM      7  N   UNL     1      21.863   0.599 197.714  0.00  0.00    +0.000 N 
ATOM      8  C   UNL     1      21.539   1.095 194.029  0.00  0.00    +0.000 C 
ATOM      9  C   UNL     1      23.017   1.426 193.664  0.00  0.00    +0.000 C 
ATOM     10  C   UNL     1      21.300   0.874 195.556  0.00  0.00    +0.000 A 
ATOM     11  C   UNL     1      22.335   0.814 196.466  0.00  0.00    +0.000 A 
ATOM     12  C   UNL     1      21.127  -0.260 193.382  0.00  0.00    +0.000 C 
ATOM     13  C   UNL     1      20.628   2.301 193.658  0.00  0.00    +0.000 C 
ATOM     14  C   UNL     1      20.106   0.661 196.334  0.00  0.00    +0.000 A 
ATOM     15  C   UNL     1      23.601   0.985 195.898  0.00  0.00    +0.000 C 
ATOM     16  C   UNL     1      20.492   0.497 197.679  0.00  0.00    +0.000 A 
ATOM     17  C   UNL     1      24.968   2.427 194.675  0.00  0.00    +0.000 C 
ATOM     18  C   UNL     1      18.735   0.590 196.016  0.00  0.00    +0.000 A 
ATOM     19  C   UNL     1      22.678   0.479 198.874  0.00  0.00    +0.000 C 
ATOM     20  C   UNL     1      19.557   0.270 198.702  0.00  0.00    +0.000 A 
ATOM     21  C   UNL     1      17.802   0.364 197.028  0.00  0.00    +0.000 A 
ATOM     22  C   UNL     1      18.209   0.210 198.347  0.00  0.00    +0.000 A 
ENDBRANCH   3   9
BRANCH   5  25
ATOM     23  O   UNL     1      23.597   0.798 188.869  0.00  0.00    +0.000 OA
ATOM     24  N   UNL     1      23.639   3.157 189.016  0.00  0.00    +0.000 N 
ATOM     25  C   UNL     1      24.036   1.839 189.350  0.00  0.00    +0.000 C 
ATOM     26  C   UNL     1      24.228   4.370 189.594  0.00  0.00    +0.000 C 
BRANCH  24  27
ATOM     27  C   UNL     1      22.599   3.375 188.095  0.00  0.00    +0.000 C 
ATOM     28  C   UNL     1      21.226   3.412 188.517  0.00  0.00    +0.000 C 
ATOM     29  C   UNL     1      19.980   3.445 188.891  0.00  0.00    +0.000 C 
ATOM     30  C   UNL     1      19.304   4.795 188.782  0.00  0.00    +0.000 C 
BRANCH  27  31
ATOM     31  C   UNL     1      22.866   3.600 186.682  0.00  0.00    +0.000 C 
ATOM     32  C   UNL     1      21.854   3.183 185.633  0.00  0.00    +0.000 C 
ATOM     33  C   UNL     1      23.779   4.738 186.265  0.00  0.00    +0.000 C 
ENDBRANCH  27  31
BRANCH  29  35
ATOM     34  O   UNL     1      18.119   1.978 189.344  0.00  0.00    +0.000 OA
ATOM     35  C   UNL     1      19.320   2.204 189.382  0.00  0.00    +0.000 C 
BRANCH  35  36
ATOM     36  O   UNL     1      20.164   1.290 189.906  0.00  0.00    +0.000 OA
ATOM     37  H   UNL     1      19.964   0.455 189.434  0.00  0.00    +0.000 HD
ENDBRANCH  35  36
ENDBRANCH  29  35
ENDBRANCH  24  27
ENDBRANCH   5  25
BRANCH   5  38
ATOM     38  C   UNL     1      26.464   1.541 190.004  0.00  0.00    +0.000 C 
ATOM     39  C   UNL     1      27.303   2.668 190.687  0.00  0.00    +0.000 C 
ATOM     40  C   UNL     1      26.951   0.170 190.554  0.00  0.00    +0.000 C 
ATOM     41  C   UNL     1      26.654   1.627 188.470  0.00  0.00    +0.000 C 
ENDBRANCH   5  38
TORSDOF 7
ENDMDL
MODEL 8
REMARK VINA RESULT:      -8.0      3.649      5.153
REMARK  Name = 10940649_MilnamideD.pdbqt.pdb
REMARK  7 active torsions:
REMARK  status: ('A' for Active; 'I' for Inactive)
REMARK    1  A    between atoms: C_3  and  C_8
REMARK    2  A    between atoms: C_22  and  C_25
REMARK    3  A    between atoms: C_22  and  C_38
REMARK    4  A    between atoms: N_24  and  C_27
REMARK    5  A    between atoms: C_27  and  C_28
REMARK    6  A    between atoms: C_32  and  C_35
REMARK    7  A    between atoms: C_35  and  O_36
REMARK                            x       y       z     vdW  Elec       q    Type
REMARK                         _______ _______ _______ _____ _____    ______ ____
ROOT
ATOM      1  O   UNL     1      23.351   0.660 192.419  0.00  0.00    +0.000 OA
ATOM      2  N   UNL     1      25.075   1.543 191.236  0.00  0.00    +0.000 N 
ATOM      3  C   UNL     1      24.541   0.946 192.361  0.00  0.00    +0.000 C 
ATOM      4  H   UNL     1      26.051   1.859 191.266  0.00  0.00    +0.000 HD
ATOM      5  C   UNL     1      24.358   1.830 190.048  0.00  0.00    +0.000 C 
ENDROOT
BRANCH   3   9
ATOM      6  N   UNL     1      26.474   1.696 193.887  0.00  0.00    +0.000 NA
ATOM      7  N   UNL     1      28.102  -0.534 196.673  0.00  0.00    +0.000 N 
ATOM      8  C   UNL     1      25.554  -0.809 193.960  0.00  0.00    +0.000 C 
ATOM      9  C   UNL     1      25.493   0.674 193.487  0.00  0.00    +0.000 C 
ATOM     10  C   UNL     1      26.520  -1.049 195.162  0.00  0.00    +0.000 A 
ATOM     11  C   UNL     1      27.361  -0.066 195.644  0.00  0.00    +0.000 A 
ATOM     12  C   UNL     1      26.135  -1.702 192.824  0.00  0.00    +0.000 C 
ATOM     13  C   UNL     1      24.156  -1.247 194.485  0.00  0.00    +0.000 C 
ATOM     14  C   UNL     1      26.799  -2.208 195.972  0.00  0.00    +0.000 A 
ATOM     15  C   UNL     1      27.252   1.154 194.969  0.00  0.00    +0.000 C 
ATOM     16  C   UNL     1      27.789  -1.851 196.909  0.00  0.00    +0.000 A 
ATOM     17  C   UNL     1      25.812   2.892 194.385  0.00  0.00    +0.000 C 
ATOM     18  C   UNL     1      26.302  -3.527 195.990  0.00  0.00    +0.000 A 
ATOM     19  C   UNL     1      29.071   0.233 197.380  0.00  0.00    +0.000 C 
ATOM     20  C   UNL     1      28.286  -2.763 197.853  0.00  0.00    +0.000 A 
ATOM     21  C   UNL     1      26.793  -4.437 196.926  0.00  0.00    +0.000 A 
ATOM     22  C   UNL     1      27.766  -4.058 197.842  0.00  0.00    +0.000 A 
ENDBRANCH   3   9
BRANCH   5  25
ATOM     23  O   UNL     1      22.836   0.171 189.457  0.00  0.00    +0.000 OA
ATOM     24  N   UNL     1      21.950   2.203 190.277  0.00  0.00    +0.000 N 
ATOM     25  C   UNL     1      22.978   1.319 189.869  0.00  0.00    +0.000 C 
ATOM     26  C   UNL     1      22.172   3.583 190.723  0.00  0.00    +0.000 C 
BRANCH  24  27
ATOM     27  C   UNL     1      20.610   1.776 190.298  0.00  0.00    +0.000 C 
ATOM     28  C   UNL     1      20.085   1.026 191.406  0.00  0.00    +0.000 C 
ATOM     29  C   UNL     1      19.602   0.347 192.405  0.00  0.00    +0.000 C 
ATOM     30  C   UNL     1      18.565   1.067 193.240  0.00  0.00    +0.000 C 
BRANCH  27  31
ATOM     31  C   UNL     1      19.690   2.092 189.215  0.00  0.00    +0.000 C 
ATOM     32  C   UNL     1      20.205   2.304 187.805  0.00  0.00    +0.000 C 
ATOM     33  C   UNL     1      18.248   1.628 189.301  0.00  0.00    +0.000 C 
ENDBRANCH  27  31
BRANCH  29  35
ATOM     34  O   UNL     1      19.433  -1.922 193.207  0.00  0.00    +0.000 OA
ATOM     35  C   UNL     1      20.077  -1.041 192.656  0.00  0.00    +0.000 C 
BRANCH  35  36
ATOM     36  O   UNL     1      21.330  -1.293 192.221  0.00  0.00    +0.000 OA
ATOM     37  H   UNL     1      21.312  -1.108 191.260  0.00  0.00    +0.000 HD
ENDBRANCH  35  36
ENDBRANCH  29  35
ENDBRANCH  24  27
ENDBRANCH   5  25
BRANCH   5  38
ATOM     38  C   UNL     1      24.991   2.418 188.797  0.00  0.00    +0.000 C 
ATOM     39  C   UNL     1      25.570   3.812 189.198  0.00  0.00    +0.000 C 
ATOM     40  C   UNL     1      26.177   1.498 188.386  0.00  0.00    +0.000 C 
ATOM     41  C   UNL     1      23.994   2.601 187.626  0.00  0.00    +0.000 C 
ENDBRANCH   5  38
TORSDOF 7
ENDMDL
MODEL 9
REMARK VINA RESULT:      -7.9     32.725     35.960
REMARK  Name = 10940649_MilnamideD.pdbqt.pdb
REMARK  7 active torsions:
REMARK  status: ('A' for Active; 'I' for Inactive)
REMARK    1  A    between atoms: C_3  and  C_8
REMARK    2  A    between atoms: C_22  and  C_25
REMARK    3  A    between atoms: C_22  and  C_38
REMARK    4  A    between atoms: N_24  and  C_27
REMARK    5  A    between atoms: C_27  and  C_28
REMARK    6  A    between atoms: C_32  and  C_35
REMARK    7  A    between atoms: C_35  and  O_36
REMARK                            x       y       z     vdW  Elec       q    Type
REMARK                         _______ _______ _______ _____ _____    ______ ____
ROOT
ATOM      1  O   UNL     1      38.619 -23.904 175.075  0.00  0.00    +0.000 OA
ATOM      2  N   UNL     1      39.690 -25.630 174.060  0.00  0.00    +0.000 N 
ATOM      3  C   UNL     1      38.563 -25.025 174.583  0.00  0.00    +0.000 C 
ATOM      4  H   UNL     1      39.622 -26.606 173.751  0.00  0.00    +0.000 HD
ATOM      5  C   UNL     1      40.971 -25.032 173.980  0.00  0.00    +0.000 C 
ENDROOT
BRANCH   3   9
ATOM      6  N   UNL     1      36.397 -25.669 173.350  0.00  0.00    +0.000 NA
ATOM      7  N   UNL     1      33.700 -28.154 174.744  0.00  0.00    +0.000 N 
ATOM      8  C   UNL     1      36.871 -26.517 175.837  0.00  0.00    +0.000 C 
ATOM      9  C   UNL     1      37.290 -25.813 174.512  0.00  0.00    +0.000 C 
ATOM     10  C   UNL     1      35.566 -27.365 175.717  0.00  0.00    +0.000 A 
ATOM     11  C   UNL     1      34.775 -27.350 174.586  0.00  0.00    +0.000 A 
ATOM     12  C   UNL     1      36.529 -25.449 176.918  0.00  0.00    +0.000 C 
ATOM     13  C   UNL     1      37.968 -27.540 176.254  0.00  0.00    +0.000 C 
ATOM     14  C   UNL     1      34.890 -28.248 176.633  0.00  0.00    +0.000 A 
ATOM     15  C   UNL     1      35.260 -26.525 173.566  0.00  0.00    +0.000 C 
ATOM     16  C   UNL     1      33.730 -28.728 175.993  0.00  0.00    +0.000 A 
ATOM     17  C   UNL     1      37.050 -26.114 172.129  0.00  0.00    +0.000 C 
ATOM     18  C   UNL     1      35.158 -28.680 177.948  0.00  0.00    +0.000 A 
ATOM     19  C   UNL     1      32.690 -28.349 173.761  0.00  0.00    +0.000 C 
ATOM     20  C   UNL     1      32.845 -29.617 176.621  0.00  0.00    +0.000 A 
ATOM     21  C   UNL     1      34.281 -29.563 178.577  0.00  0.00    +0.000 A 
ATOM     22  C   UNL     1      33.146 -30.024 177.921  0.00  0.00    +0.000 A 
ENDBRANCH   3   9
BRANCH   5  25
ATOM     23  O   UNL     1      41.580 -23.299 175.410  0.00  0.00    +0.000 OA
ATOM     24  N   UNL     1      40.857 -22.701 173.241  0.00  0.00    +0.000 N 
ATOM     25  C   UNL     1      41.145 -23.595 174.300  0.00  0.00    +0.000 C 
ATOM     26  C   UNL     1      40.297 -23.105 171.946  0.00  0.00    +0.000 C 
BRANCH  24  27
ATOM     27  C   UNL     1      41.127 -21.328 173.374  0.00  0.00    +0.000 C 
ATOM     28  C   UNL     1      42.215 -20.711 172.665  0.00  0.00    +0.000 C 
ATOM     29  C   UNL     1      43.198 -20.146 172.028  0.00  0.00    +0.000 C 
ATOM     30  C   UNL     1      42.794 -19.162 170.951  0.00  0.00    +0.000 C 
BRANCH  27  31
ATOM     31  C   UNL     1      40.307 -20.465 174.212  0.00  0.00    +0.000 C 
ATOM     32  C   UNL     1      40.890 -19.206 174.823  0.00  0.00    +0.000 C 
ATOM     33  C   UNL     1      38.804 -20.433 174.006  0.00  0.00    +0.000 C 
ENDBRANCH  27  31
BRANCH  29  35
ATOM     34  O   UNL     1      45.216 -21.467 171.988  0.00  0.00    +0.000 OA
ATOM     35  C   UNL     1      44.604 -20.485 172.382  0.00  0.00    +0.000 C 
BRANCH  35  36
ATOM     36  O   UNL     1      45.202 -19.603 173.210  0.00  0.00    +0.000 OA
ATOM     37  H   UNL     1      45.158 -20.013 174.098  0.00  0.00    +0.000 HD
ENDBRANCH  35  36
ENDBRANCH  29  35
ENDBRANCH  24  27
ENDBRANCH   5  25
BRANCH   5  38
ATOM     38  C   UNL     1      42.175 -25.693 173.327  0.00  0.00    +0.000 C 
ATOM     39  C   UNL     1      42.838 -26.595 174.417  0.00  0.00    +0.000 C 
ATOM     40  C   UNL     1      41.654 -26.612 172.186  0.00  0.00    +0.000 C 
ATOM     41  C   UNL     1      43.225 -24.684 172.799  0.00  0.00    +0.000 C 
ENDBRANCH   5  38
TORSDOF 7
ENDMDL
