MODEL 1
REMARK VINA RESULT:      -9.3      0.000      0.000
REMARK  Name = 11167602_Regorafenib.pdbqt.pdb
REMARK  6 active torsions:
REMARK  status: ('A' for Active; 'I' for Inactive)
REMARK    1  A    between atoms: C_2  and  N_10
REMARK    2  A    between atoms: C_3  and  O_25
REMARK    3  A    between atoms: N_9  and  C_15
REMARK    4  A    between atoms: C_16  and  C_24
REMARK    5  A    between atoms: O_25  and  C_27
REMARK    6  A    between atoms: C_29  and  C_34
REMARK                            x       y       z     vdW  Elec       q    Type
REMARK                         _______ _______ _______ _____ _____    ______ ____
ROOT
ATOM      1  F   UNL     1      21.271   0.827 191.078  0.00  0.00    +0.000 F 
ATOM      2  C   UNL     1      18.932   0.500 190.928  0.00  0.00    +0.000 A 
ATOM      3  C   UNL     1      18.901   2.198 188.708  0.00  0.00    +0.000 A 
ATOM      4  C   UNL     1      20.110   1.088 190.458  0.00  0.00    +0.000 A 
ATOM      5  C   UNL     1      17.732   0.793 190.281  0.00  0.00    +0.000 A 
ATOM      6  C   UNL     1      20.106   1.945 189.363  0.00  0.00    +0.000 A 
ATOM      7  C   UNL     1      17.711   1.650 189.181  0.00  0.00    +0.000 A 
ENDROOT
BRANCH   2  10
ATOM      8  O   UNL     1      19.495   1.164 193.698  0.00  0.00    +0.000 OA
ATOM      9  N   UNL     1      19.254  -1.082 194.191  0.00  0.00    +0.000 N 
ATOM     10  N   UNL     1      19.013  -0.367 192.038  0.00  0.00    +0.000 N 
ATOM     11  C   UNL     1      19.274   0.014 193.343  0.00  0.00    +0.000 C 
ATOM     12  H   UNL     1      19.031  -1.983 193.794  0.00  0.00    +0.000 HD
ATOM     13  H   UNL     1      18.879  -1.348 191.837  0.00  0.00    +0.000 HD
BRANCH   9  15
ATOM     14 CL   UNL     1      20.117  -0.879 200.046  0.00  0.00    +0.000 Cl
ATOM     15  C   UNL     1      19.490  -1.046 195.578  0.00  0.00    +0.000 A 
ATOM     16  C   UNL     1      18.616  -0.499 197.789  0.00  0.00    +0.000 A 
ATOM     17  C   UNL     1      18.468  -0.570 196.399  0.00  0.00    +0.000 A 
ATOM     18  C   UNL     1      20.685  -1.461 196.158  0.00  0.00    +0.000 A 
ATOM     19  C   UNL     1      19.823  -0.920 198.351  0.00  0.00    +0.000 A 
ATOM     20  C   UNL     1      20.851  -1.398 197.538  0.00  0.00    +0.000 A 
BRANCH  16  24
ATOM     21  F   UNL     1      17.795   1.159 199.294  0.00  0.00    +0.000 F 
ATOM     22  F   UNL     1      16.387   0.340 197.865  0.00  0.00    +0.000 F 
ATOM     23  F   UNL     1      17.058  -0.862 199.557  0.00  0.00    +0.000 F 
ATOM     24  C   UNL     1      17.479   0.021 198.611  0.00  0.00    +0.000 C 
ENDBRANCH  16  24
ENDBRANCH   9  15
ENDBRANCH   2  10
BRANCH   3  25
ATOM     25  O   UNL     1      18.810   3.093 187.667  0.00  0.00    +0.000 OA
BRANCH  25  27
ATOM     26  N   UNL     1      21.961   5.760 187.060  0.00  0.00    +0.000 NA
ATOM     27  C   UNL     1      19.889   3.915 187.429  0.00  0.00    +0.000 A 
ATOM     28  C   UNL     1      20.589   3.930 186.228  0.00  0.00    +0.000 A 
ATOM     29  C   UNL     1      21.611   4.856 186.101  0.00  0.00    +0.000 A 
ATOM     30  C   UNL     1      20.193   4.833 188.429  0.00  0.00    +0.000 A 
ATOM     31  C   UNL     1      21.232   5.721 188.199  0.00  0.00    +0.000 A 
BRANCH  29  34
ATOM     32  O   UNL     1      23.573   5.280 184.863  0.00  0.00    +0.000 OA
ATOM     33  N   UNL     1      21.693   4.445 183.751  0.00  0.00    +0.000 N 
ATOM     34  C   UNL     1      22.410   4.888 184.849  0.00  0.00    +0.000 C 
ATOM     35  C   UNL     1      22.056   4.312 182.366  0.00  0.00    +0.000 C 
ATOM     36  H   UNL     1      20.735   4.167 183.959  0.00  0.00    +0.000 HD
ENDBRANCH  29  34
ENDBRANCH  25  27
ENDBRANCH   3  25
TORSDOF 6
ENDMDL
MODEL 2
REMARK VINA RESULT:      -9.1      4.596     11.735
REMARK  Name = 11167602_Regorafenib.pdbqt.pdb
REMARK  6 active torsions:
REMARK  status: ('A' for Active; 'I' for Inactive)
REMARK    1  A    between atoms: C_2  and  N_10
REMARK    2  A    between atoms: C_3  and  O_25
REMARK    3  A    between atoms: N_9  and  C_15
REMARK    4  A    between atoms: C_16  and  C_24
REMARK    5  A    between atoms: O_25  and  C_27
REMARK    6  A    between atoms: C_29  and  C_34
REMARK                            x       y       z     vdW  Elec       q    Type
REMARK                         _______ _______ _______ _____ _____    ______ ____
ROOT
ATOM      1  F   UNL     1      21.529   3.139 193.287  0.00  0.00    +0.000 F 
ATOM      2  C   UNL     1      19.734   1.684 192.774  0.00  0.00    +0.000 A 
ATOM      3  C   UNL     1      20.338   0.226 195.080  0.00  0.00    +0.000 A 
ATOM      4  C   UNL     1      20.796   2.060 193.602  0.00  0.00    +0.000 A 
ATOM      5  C   UNL     1      18.991   0.553 193.107  0.00  0.00    +0.000 A 
ATOM      6  C   UNL     1      21.115   1.334 194.745  0.00  0.00    +0.000 A 
ATOM      7  C   UNL     1      19.298  -0.185 194.250  0.00  0.00    +0.000 A 
ENDROOT
BRANCH   2  10
ATOM      8  O   UNL     1      20.917   1.503 190.128  0.00  0.00    +0.000 OA
ATOM      9  N   UNL     1      19.537   3.245 189.489  0.00  0.00    +0.000 N 
ATOM     10  N   UNL     1      19.461   2.472 191.635  0.00  0.00    +0.000 N 
ATOM     11  C   UNL     1      20.053   2.328 190.392  0.00  0.00    +0.000 C 
ATOM     12  H   UNL     1      18.804   3.861 189.809  0.00  0.00    +0.000 HD
ATOM     13  H   UNL     1      18.781   3.209 191.766  0.00  0.00    +0.000 HD
BRANCH   9  15
ATOM     14 CL   UNL     1      21.295   3.869 183.869  0.00  0.00    +0.000 Cl
ATOM     15  C   UNL     1      19.928   3.375 188.144  0.00  0.00    +0.000 A 
ATOM     16  C   UNL     1      21.536   4.303 186.560  0.00  0.00    +0.000 A 
ATOM     17  C   UNL     1      21.074   4.122 187.869  0.00  0.00    +0.000 A 
ATOM     18  C   UNL     1      19.231   2.796 187.089  0.00  0.00    +0.000 A 
ATOM     19  C   UNL     1      20.820   3.714 185.516  0.00  0.00    +0.000 A 
ATOM     20  C   UNL     1      19.674   2.965 185.780  0.00  0.00    +0.000 A 
BRANCH  16  24
ATOM     21  F   UNL     1      23.088   5.906 187.403  0.00  0.00    +0.000 F 
ATOM     22  F   UNL     1      23.876   4.352 186.114  0.00  0.00    +0.000 F 
ATOM     23  F   UNL     1      22.667   5.963 185.278  0.00  0.00    +0.000 F 
ATOM     24  C   UNL     1      22.772   5.115 186.337  0.00  0.00    +0.000 C 
ENDBRANCH  16  24
ENDBRANCH   9  15
ENDBRANCH   2  10
BRANCH   3  25
ATOM     25  O   UNL     1      20.642  -0.581 196.152  0.00  0.00    +0.000 OA
BRANCH  25  27
ATOM     26  N   UNL     1      17.913  -0.787 199.301  0.00  0.00    +0.000 NA
ATOM     27  C   UNL     1      19.702  -0.704 197.150  0.00  0.00    +0.000 A 
ATOM     28  C   UNL     1      19.179  -1.925 197.563  0.00  0.00    +0.000 A 
ATOM     29  C   UNL     1      18.291  -1.909 198.625  0.00  0.00    +0.000 A 
ATOM     30  C   UNL     1      19.364   0.466 197.824  0.00  0.00    +0.000 A 
ATOM     31  C   UNL     1      18.469   0.371 198.878  0.00  0.00    +0.000 A 
BRANCH  29  34
ATOM     32  O   UNL     1      18.166  -3.805 200.021  0.00  0.00    +0.000 OA
ATOM     33  N   UNL     1      16.569  -3.537 198.334  0.00  0.00    +0.000 N 
ATOM     34  C   UNL     1      17.680  -3.184 199.080  0.00  0.00    +0.000 C 
ATOM     35  C   UNL     1      15.686  -4.669 198.415  0.00  0.00    +0.000 C 
ATOM     36  H   UNL     1      16.337  -2.879 197.591  0.00  0.00    +0.000 HD
ENDBRANCH  29  34
ENDBRANCH  25  27
ENDBRANCH   3  25
TORSDOF 6
ENDMDL
MODEL 3
REMARK VINA RESULT:      -8.9      7.793      9.904
REMARK  Name = 11167602_Regorafenib.pdbqt.pdb
REMARK  6 active torsions:
REMARK  status: ('A' for Active; 'I' for Inactive)
REMARK    1  A    between atoms: C_2  and  N_10
REMARK    2  A    between atoms: C_3  and  O_25
REMARK    3  A    between atoms: N_9  and  C_15
REMARK    4  A    between atoms: C_16  and  C_24
REMARK    5  A    between atoms: O_25  and  C_27
REMARK    6  A    between atoms: C_29  and  C_34
REMARK                            x       y       z     vdW  Elec       q    Type
REMARK                         _______ _______ _______ _____ _____    ______ ____
ROOT
ATOM      1  F   UNL     1      26.578   3.220 192.899  0.00  0.00    +0.000 F 
ATOM      2  C   UNL     1      26.239   3.243 190.557  0.00  0.00    +0.000 A 
ATOM      3  C   UNL     1      28.877   2.379 190.229  0.00  0.00    +0.000 A 
ATOM      4  C   UNL     1      27.063   3.021 191.664  0.00  0.00    +0.000 A 
ATOM      5  C   UNL     1      26.763   3.046 189.280  0.00  0.00    +0.000 A 
ATOM      6  C   UNL     1      28.382   2.604 191.513  0.00  0.00    +0.000 A 
ATOM      7  C   UNL     1      28.082   2.627 189.113  0.00  0.00    +0.000 A 
ENDROOT
BRANCH   2  10
ATOM      8  O   UNL     1      23.798   1.690 190.305  0.00  0.00    +0.000 OA
ATOM      9  N   UNL     1      22.637   3.571 190.984  0.00  0.00    +0.000 N 
ATOM     10  N   UNL     1      24.909   3.657 190.784  0.00  0.00    +0.000 N 
ATOM     11  C   UNL     1      23.783   2.862 190.658  0.00  0.00    +0.000 C 
ATOM     12  H   UNL     1      22.745   4.526 191.291  0.00  0.00    +0.000 HD
ATOM     13  H   UNL     1      24.792   4.625 191.048  0.00  0.00    +0.000 HD
BRANCH   9  15
ATOM     14 CL   UNL     1      17.114   1.455 190.704  0.00  0.00    +0.000 Cl
ATOM     15  C   UNL     1      21.325   3.063 190.951  0.00  0.00    +0.000 A 
ATOM     16  C   UNL     1      19.373   2.526 189.590  0.00  0.00    +0.000 A 
ATOM     17  C   UNL     1      20.678   3.016 189.716  0.00  0.00    +0.000 A 
ATOM     18  C   UNL     1      20.655   2.611 192.083  0.00  0.00    +0.000 A 
ATOM     19  C   UNL     1      18.718   2.078 190.739  0.00  0.00    +0.000 A 
ATOM     20  C   UNL     1      19.357   2.121 191.978  0.00  0.00    +0.000 A 
BRANCH  16  24
ATOM     21  F   UNL     1      18.213   3.708 187.874  0.00  0.00    +0.000 F 
ATOM     22  F   UNL     1      19.612   2.177 187.245  0.00  0.00    +0.000 F 
ATOM     23  F   UNL     1      17.706   1.620 188.147  0.00  0.00    +0.000 F 
ATOM     24  C   UNL     1      18.738   2.502 188.236  0.00  0.00    +0.000 C 
ENDBRANCH  16  24
ENDBRANCH   9  15
ENDBRANCH   2  10
BRANCH   3  25
ATOM     25  O   UNL     1      30.190   2.039 190.003  0.00  0.00    +0.000 OA
BRANCH  25  27
ATOM     26  N   UNL     1      32.696   4.638 187.912  0.00  0.00    +0.000 NA
ATOM     27  C   UNL     1      30.989   2.956 189.357  0.00  0.00    +0.000 A 
ATOM     28  C   UNL     1      31.662   3.981 190.014  0.00  0.00    +0.000 A 
ATOM     29  C   UNL     1      32.486   4.790 189.250  0.00  0.00    +0.000 A 
ATOM     30  C   UNL     1      31.189   2.746 187.997  0.00  0.00    +0.000 A 
ATOM     31  C   UNL     1      32.039   3.610 187.326  0.00  0.00    +0.000 A 
BRANCH  29  34
ATOM     32  O   UNL     1      32.575   6.781 190.509  0.00  0.00    +0.000 OA
ATOM     33  N   UNL     1      34.572   5.853 189.722  0.00  0.00    +0.000 N 
ATOM     34  C   UNL     1      33.200   5.919 189.900  0.00  0.00    +0.000 C 
ATOM     35  C   UNL     1      35.633   6.716 190.163  0.00  0.00    +0.000 C 
ATOM     36  H   UNL     1      34.886   5.051 189.177  0.00  0.00    +0.000 HD
ENDBRANCH  29  34
ENDBRANCH  25  27
ENDBRANCH   3  25
TORSDOF 6
ENDMDL
MODEL 4
REMARK VINA RESULT:      -8.9      7.410     11.430
REMARK  Name = 11167602_Regorafenib.pdbqt.pdb
REMARK  6 active torsions:
REMARK  status: ('A' for Active; 'I' for Inactive)
REMARK    1  A    between atoms: C_2  and  N_10
REMARK    2  A    between atoms: C_3  and  O_25
REMARK    3  A    between atoms: N_9  and  C_15
REMARK    4  A    between atoms: C_16  and  C_24
REMARK    5  A    between atoms: O_25  and  C_27
REMARK    6  A    between atoms: C_29  and  C_34
REMARK                            x       y       z     vdW  Elec       q    Type
REMARK                         _______ _______ _______ _____ _____    ______ ____
ROOT
ATOM      1  F   UNL     1      24.061   0.000 187.098  0.00  0.00    +0.000 F 
ATOM      2  C   UNL     1      24.780   1.883 188.338  0.00  0.00    +0.000 A 
ATOM      3  C   UNL     1      22.116   2.714 188.503  0.00  0.00    +0.000 A 
ATOM      4  C   UNL     1      23.758   1.135 187.747  0.00  0.00    +0.000 A 
ATOM      5  C   UNL     1      24.450   3.067 188.997  0.00  0.00    +0.000 A 
ATOM      6  C   UNL     1      22.430   1.545 187.810  0.00  0.00    +0.000 A 
ATOM      7  C   UNL     1      23.124   3.491 189.070  0.00  0.00    +0.000 A 
ENDROOT
BRANCH   2  10
ATOM      8  O   UNL     1      27.237   3.181 189.184  0.00  0.00    +0.000 OA
ATOM      9  N   UNL     1      28.373   1.302 188.459  0.00  0.00    +0.000 N 
ATOM     10  N   UNL     1      26.103   1.403 188.243  0.00  0.00    +0.000 N 
ATOM     11  C   UNL     1      27.238   2.067 188.677  0.00  0.00    +0.000 C 
ATOM     12  H   UNL     1      28.253   0.382 188.060  0.00  0.00    +0.000 HD
ATOM     13  H   UNL     1      26.209   0.499 187.803  0.00  0.00    +0.000 HD
BRANCH   9  15
ATOM     14 CL   UNL     1      33.920   2.986 189.665  0.00  0.00    +0.000 Cl
ATOM     15  C   UNL     1      29.689   1.685 188.775  0.00  0.00    +0.000 A 
ATOM     16  C   UNL     1      31.692   2.891 188.078  0.00  0.00    +0.000 A 
ATOM     17  C   UNL     1      30.380   2.464 187.845  0.00  0.00    +0.000 A 
ATOM     18  C   UNL     1      30.323   1.327 189.960  0.00  0.00    +0.000 A 
ATOM     19  C   UNL     1      32.310   2.519 189.273  0.00  0.00    +0.000 A 
ATOM     20  C   UNL     1      31.628   1.741 190.209  0.00  0.00    +0.000 A 
BRANCH  16  24
ATOM     21  F   UNL     1      32.864   4.896 187.537  0.00  0.00    +0.000 F 
ATOM     22  F   UNL     1      33.443   3.099 186.473  0.00  0.00    +0.000 F 
ATOM     23  F   UNL     1      31.550   4.083 186.018  0.00  0.00    +0.000 F 
ATOM     24  C   UNL     1      32.375   3.724 187.039  0.00  0.00    +0.000 C 
ENDBRANCH  16  24
ENDBRANCH   9  15
ENDBRANCH   2  10
BRANCH   3  25
ATOM     25  O   UNL     1      20.837   3.218 188.542  0.00  0.00    +0.000 OA
BRANCH  25  27
ATOM     26  N   UNL     1      17.696   0.995 190.155  0.00  0.00    +0.000 NA
ATOM     27  C   UNL     1      19.854   2.434 189.104  0.00  0.00    +0.000 A 
ATOM     28  C   UNL     1      19.953   1.877 190.375  0.00  0.00    +0.000 A 
ATOM     29  C   UNL     1      18.860   1.166 190.842  0.00  0.00    +0.000 A 
ATOM     30  C   UNL     1      18.677   2.307 188.373  0.00  0.00    +0.000 A 
ATOM     31  C   UNL     1      17.641   1.579 188.935  0.00  0.00    +0.000 A 
BRANCH  29  34
ATOM     32  O   UNL     1      18.418   1.062 193.156  0.00  0.00    +0.000 OA
ATOM     33  N   UNL     1      19.615  -0.679 192.156  0.00  0.00    +0.000 N 
ATOM     34  C   UNL     1      18.931   0.524 192.180  0.00  0.00    +0.000 C 
ATOM     35  C   UNL     1      19.925  -1.621 193.197  0.00  0.00    +0.000 C 
ATOM     36  H   UNL     1      19.967  -0.944 191.236  0.00  0.00    +0.000 HD
ENDBRANCH  29  34
ENDBRANCH  25  27
ENDBRANCH   3  25
TORSDOF 6
ENDMDL
MODEL 5
REMARK VINA RESULT:      -8.8      9.809     12.429
REMARK  Name = 11167602_Regorafenib.pdbqt.pdb
REMARK  6 active torsions:
REMARK  status: ('A' for Active; 'I' for Inactive)
REMARK    1  A    between atoms: C_2  and  N_10
REMARK    2  A    between atoms: C_3  and  O_25
REMARK    3  A    between atoms: N_9  and  C_15
REMARK    4  A    between atoms: C_16  and  C_24
REMARK    5  A    between atoms: O_25  and  C_27
REMARK    6  A    between atoms: C_29  and  C_34
REMARK                            x       y       z     vdW  Elec       q    Type
REMARK                         _______ _______ _______ _____ _____    ______ ____
ROOT
ATOM      1  F   UNL     1      27.428  -0.174 191.279  0.00  0.00    +0.000 F 
ATOM      2  C   UNL     1      27.934   1.203 189.421  0.00  0.00    +0.000 A 
ATOM      3  C   UNL     1      30.407   1.770 190.594  0.00  0.00    +0.000 A 
ATOM      4  C   UNL     1      28.287   0.647 190.655  0.00  0.00    +0.000 A 
ATOM      5  C   UNL     1      28.831   2.065 188.793  0.00  0.00    +0.000 A 
ATOM      6  C   UNL     1      29.509   0.933 191.255  0.00  0.00    +0.000 A 
ATOM      7  C   UNL     1      30.060   2.360 189.381  0.00  0.00    +0.000 A 
ENDROOT
BRANCH   2  10
ATOM      8  O   UNL     1      25.466   2.733 189.462  0.00  0.00    +0.000 OA
ATOM      9  N   UNL     1      24.492   1.025 188.245  0.00  0.00    +0.000 N 
ATOM     10  N   UNL     1      26.682   0.862 188.867  0.00  0.00    +0.000 N 
ATOM     11  C   UNL     1      25.539   1.644 188.909  0.00  0.00    +0.000 C 
ATOM     12  H   UNL     1      24.674   0.138 187.799  0.00  0.00    +0.000 HD
ATOM     13  H   UNL     1      26.634  -0.042 188.418  0.00  0.00    +0.000 HD
BRANCH   9  15
ATOM     14 CL   UNL     1      19.062   3.285 187.563  0.00  0.00    +0.000 Cl
ATOM     15  C   UNL     1      23.191   1.544 188.109  0.00  0.00    +0.000 A 
ATOM     16  C   UNL     1      21.699   3.031 186.878  0.00  0.00    +0.000 A 
ATOM     17  C   UNL     1      22.962   2.465 187.086  0.00  0.00    +0.000 A 
ATOM     18  C   UNL     1      22.136   1.182 188.940  0.00  0.00    +0.000 A 
ATOM     19  C   UNL     1      20.655   2.654 187.725  0.00  0.00    +0.000 A 
ATOM     20  C   UNL     1      20.874   1.734 188.750  0.00  0.00    +0.000 A 
BRANCH  16  24
ATOM     21  F   UNL     1      20.488   3.689 184.932  0.00  0.00    +0.000 F 
ATOM     22  F   UNL     1      21.255   5.272 186.199  0.00  0.00    +0.000 F 
ATOM     23  F   UNL     1      22.615   4.104 184.957  0.00  0.00    +0.000 F 
ATOM     24  C   UNL     1      21.522   4.011 185.762  0.00  0.00    +0.000 C 
ENDBRANCH  16  24
ENDBRANCH   9  15
ENDBRANCH   2  10
BRANCH   3  25
ATOM     25  O   UNL     1      31.599   2.154 191.162  0.00  0.00    +0.000 OA
BRANCH  25  27
ATOM     26  N   UNL     1      34.996   0.163 189.782  0.00  0.00    +0.000 NA
ATOM     27  C   UNL     1      32.739   1.481 190.782  0.00  0.00    +0.000 A 
ATOM     28  C   UNL     1      33.157   0.292 191.370  0.00  0.00    +0.000 A 
ATOM     29  C   UNL     1      34.286  -0.313 190.843  0.00  0.00    +0.000 A 
ATOM     30  C   UNL     1      33.418   1.995 189.681  0.00  0.00    +0.000 A 
ATOM     31  C   UNL     1      34.533   1.308 189.229  0.00  0.00    +0.000 A 
BRANCH  29  34
ATOM     32  O   UNL     1      34.053  -2.539 191.583  0.00  0.00    +0.000 OA
ATOM     33  N   UNL     1      36.118  -1.473 191.844  0.00  0.00    +0.000 N 
ATOM     34  C   UNL     1      34.791  -1.567 191.459  0.00  0.00    +0.000 C 
ATOM     35  C   UNL     1      36.998  -2.420 192.472  0.00  0.00    +0.000 C 
ATOM     36  H   UNL     1      36.547  -0.568 191.652  0.00  0.00    +0.000 HD
ENDBRANCH  29  34
ENDBRANCH  25  27
ENDBRANCH   3  25
TORSDOF 6
ENDMDL
MODEL 6
REMARK VINA RESULT:      -8.6      4.576     10.509
REMARK  Name = 11167602_Regorafenib.pdbqt.pdb
REMARK  6 active torsions:
REMARK  status: ('A' for Active; 'I' for Inactive)
REMARK    1  A    between atoms: C_2  and  N_10
REMARK    2  A    between atoms: C_3  and  O_25
REMARK    3  A    between atoms: N_9  and  C_15
REMARK    4  A    between atoms: C_16  and  C_24
REMARK    5  A    between atoms: O_25  and  C_27
REMARK    6  A    between atoms: C_29  and  C_34
REMARK                            x       y       z     vdW  Elec       q    Type
REMARK                         _______ _______ _______ _____ _____    ______ ____
ROOT
ATOM      1  F   UNL     1      20.447  -2.029 193.576  0.00  0.00    +0.000 F 
ATOM      2  C   UNL     1      19.034  -0.187 194.037  0.00  0.00    +0.000 A 
ATOM      3  C   UNL     1      19.645  -0.476 196.749  0.00  0.00    +0.000 A 
ATOM      4  C   UNL     1      19.899  -1.195 194.473  0.00  0.00    +0.000 A 
ATOM      5  C   UNL     1      18.462   0.662 194.982  0.00  0.00    +0.000 A 
ATOM      6  C   UNL     1      20.200  -1.357 195.821  0.00  0.00    +0.000 A 
ATOM      7  C   UNL     1      18.754   0.513 196.337  0.00  0.00    +0.000 A 
ENDROOT
BRANCH   2  10
ATOM      8  O   UNL     1      20.105   1.751 192.157  0.00  0.00    +0.000 OA
ATOM      9  N   UNL     1      18.897   0.679 190.502  0.00  0.00    +0.000 N 
ATOM     10  N   UNL     1      18.781  -0.075 192.653  0.00  0.00    +0.000 N 
ATOM     11  C   UNL     1      19.334   0.868 191.804  0.00  0.00    +0.000 C 
ATOM     12  H   UNL     1      18.283  -0.101 190.319  0.00  0.00    +0.000 HD
ATOM     13  H   UNL     1      18.125  -0.743 192.273  0.00  0.00    +0.000 HD
BRANCH   9  15
ATOM     14 CL   UNL     1      20.559   3.976 185.873  0.00  0.00    +0.000 Cl
ATOM     15  C   UNL     1      19.259   1.470 189.396  0.00  0.00    +0.000 A 
ATOM     16  C   UNL     1      21.068   2.363 188.025  0.00  0.00    +0.000 A 
ATOM     17  C   UNL     1      20.618   1.597 189.106  0.00  0.00    +0.000 A 
ATOM     18  C   UNL     1      18.332   2.121 188.588  0.00  0.00    +0.000 A 
ATOM     19  C   UNL     1      20.121   3.009 187.228  0.00  0.00    +0.000 A 
ATOM     20  C   UNL     1      18.760   2.888 187.509  0.00  0.00    +0.000 A 
BRANCH  16  24
ATOM     21  F   UNL     1      23.278   1.717 188.646  0.00  0.00    +0.000 F 
ATOM     22  F   UNL     1      22.893   2.010 186.533  0.00  0.00    +0.000 F 
ATOM     23  F   UNL     1      23.019   3.726 187.875  0.00  0.00    +0.000 F 
ATOM     24  C   UNL     1      22.539   2.457 187.769  0.00  0.00    +0.000 C 
ENDBRANCH  16  24
ENDBRANCH   9  15
ENDBRANCH   2  10
BRANCH   3  25
ATOM     25  O   UNL     1      19.839  -0.623 198.102  0.00  0.00    +0.000 OA
BRANCH  25  27
ATOM     26  N   UNL     1      21.632   2.535 200.156  0.00  0.00    +0.000 NA
ATOM     27  C   UNL     1      20.501   0.382 198.771  0.00  0.00    +0.000 A 
ATOM     28  C   UNL     1      21.730   0.891 198.364  0.00  0.00    +0.000 A 
ATOM     29  C   UNL     1      22.249   1.950 199.091  0.00  0.00    +0.000 A 
ATOM     30  C   UNL     1      19.821   0.961 199.838  0.00  0.00    +0.000 A 
ATOM     31  C   UNL     1      20.427   2.020 200.494  0.00  0.00    +0.000 A 
BRANCH  29  34
ATOM     32  O   UNL     1      24.115   3.353 199.420  0.00  0.00    +0.000 OA
ATOM     33  N   UNL     1      24.064   1.965 197.539  0.00  0.00    +0.000 N 
ATOM     34  C   UNL     1      23.575   2.506 198.716  0.00  0.00    +0.000 C 
ATOM     35  C   UNL     1      25.281   2.206 196.813  0.00  0.00    +0.000 C 
ATOM     36  H   UNL     1      23.450   1.274 197.108  0.00  0.00    +0.000 HD
ENDBRANCH  29  34
ENDBRANCH  25  27
ENDBRANCH   3  25
TORSDOF 6
ENDMDL
MODEL 7
REMARK VINA RESULT:      -8.6      9.048     11.641
REMARK  Name = 11167602_Regorafenib.pdbqt.pdb
REMARK  6 active torsions:
REMARK  status: ('A' for Active; 'I' for Inactive)
REMARK    1  A    between atoms: C_2  and  N_10
REMARK    2  A    between atoms: C_3  and  O_25
REMARK    3  A    between atoms: N_9  and  C_15
REMARK    4  A    between atoms: C_16  and  C_24
REMARK    5  A    between atoms: O_25  and  C_27
REMARK    6  A    between atoms: C_29  and  C_34
REMARK                            x       y       z     vdW  Elec       q    Type
REMARK                         _______ _______ _______ _____ _____    ______ ____
ROOT
ATOM      1  F   UNL     1      26.820  -0.727 191.385  0.00  0.00    +0.000 F 
ATOM      2  C   UNL     1      27.578   0.688 189.646  0.00  0.00    +0.000 A 
ATOM      3  C   UNL     1      29.997   0.972 191.017  0.00  0.00    +0.000 A 
ATOM      4  C   UNL     1      27.790   0.044 190.869  0.00  0.00    +0.000 A 
ATOM      5  C   UNL     1      28.590   1.496 189.130  0.00  0.00    +0.000 A 
ATOM      6  C   UNL     1      28.984   0.188 191.566  0.00  0.00    +0.000 A 
ATOM      7  C   UNL     1      29.793   1.651 189.817  0.00  0.00    +0.000 A 
ENDROOT
BRANCH   2  10
ATOM      8  O   UNL     1      25.181   2.324 189.771  0.00  0.00    +0.000 OA
ATOM      9  N   UNL     1      24.204   0.846 188.285  0.00  0.00    +0.000 N 
ATOM     10  N   UNL     1      26.345   0.489 188.989  0.00  0.00    +0.000 N 
ATOM     11  C   UNL     1      25.238   1.316 189.080  0.00  0.00    +0.000 C 
ATOM     12  H   UNL     1      24.372   0.018 187.733  0.00  0.00    +0.000 HD
ATOM     13  H   UNL     1      26.284  -0.343 188.419  0.00  0.00    +0.000 HD
BRANCH   9  15
ATOM     14 CL   UNL     1      18.919   3.435 187.629  0.00  0.00    +0.000 Cl
ATOM     15  C   UNL     1      22.937   1.445 188.156  0.00  0.00    +0.000 A 
ATOM     16  C   UNL     1      21.524   2.998 186.914  0.00  0.00    +0.000 A 
ATOM     17  C   UNL     1      22.752   2.356 187.116  0.00  0.00    +0.000 A 
ATOM     18  C   UNL     1      21.874   1.168 189.010  0.00  0.00    +0.000 A 
ATOM     19  C   UNL     1      20.471   2.707 187.783  0.00  0.00    +0.000 A 
ATOM     20  C   UNL     1      20.646   1.797 188.825  0.00  0.00    +0.000 A 
BRANCH  16  24
ATOM     21  F   UNL     1      21.174   5.244 186.194  0.00  0.00    +0.000 F 
ATOM     22  F   UNL     1      22.508   4.023 185.000  0.00  0.00    +0.000 F 
ATOM     23  F   UNL     1      20.355   3.671 184.948  0.00  0.00    +0.000 F 
ATOM     24  C   UNL     1      21.393   3.963 185.779  0.00  0.00    +0.000 C 
ENDBRANCH  16  24
ENDBRANCH   9  15
ENDBRANCH   2  10
BRANCH   3  25
ATOM     25  O   UNL     1      31.173   1.220 191.686  0.00  0.00    +0.000 OA
BRANCH  25  27
ATOM     26  N   UNL     1      34.452   2.766 189.620  0.00  0.00    +0.000 NA
ATOM     27  C   UNL     1      32.208   1.789 190.978  0.00  0.00    +0.000 A 
ATOM     28  C   UNL     1      32.431   3.160 190.917  0.00  0.00    +0.000 A 
ATOM     29  C   UNL     1      33.550   3.591 190.224  0.00  0.00    +0.000 A 
ATOM     30  C   UNL     1      33.113   0.905 190.397  0.00  0.00    +0.000 A 
ATOM     31  C   UNL     1      34.204   1.440 189.731  0.00  0.00    +0.000 A 
BRANCH  29  34
ATOM     32  O   UNL     1      32.882   5.839 189.987  0.00  0.00    +0.000 OA
ATOM     33  N   UNL     1      35.163   5.349 190.134  0.00  0.00    +0.000 N 
ATOM     34  C   UNL     1      33.812   5.048 190.102  0.00  0.00    +0.000 C 
ATOM     35  C   UNL     1      35.863   6.601 190.045  0.00  0.00    +0.000 C 
ATOM     36  H   UNL     1      35.772   4.537 190.233  0.00  0.00    +0.000 HD
ENDBRANCH  29  34
ENDBRANCH  25  27
ENDBRANCH   3  25
TORSDOF 6
ENDMDL
MODEL 8
REMARK VINA RESULT:      -8.6      7.888     10.081
REMARK  Name = 11167602_Regorafenib.pdbqt.pdb
REMARK  6 active torsions:
REMARK  status: ('A' for Active; 'I' for Inactive)
REMARK    1  A    between atoms: C_2  and  N_10
REMARK    2  A    between atoms: C_3  and  O_25
REMARK    3  A    between atoms: N_9  and  C_15
REMARK    4  A    between atoms: C_16  and  C_24
REMARK    5  A    between atoms: O_25  and  C_27
REMARK    6  A    between atoms: C_29  and  C_34
REMARK                            x       y       z     vdW  Elec       q    Type
REMARK                         _______ _______ _______ _____ _____    ______ ____
ROOT
ATOM      1  F   UNL     1      27.011   3.679 192.753  0.00  0.00    +0.000 F 
ATOM      2  C   UNL     1      26.598   1.557 191.791  0.00  0.00    +0.000 A 
ATOM      3  C   UNL     1      29.359   1.124 191.715  0.00  0.00    +0.000 A 
ATOM      4  C   UNL     1      27.489   2.528 192.257  0.00  0.00    +0.000 A 
ATOM      5  C   UNL     1      27.112   0.372 191.265  0.00  0.00    +0.000 A 
ATOM      6  C   UNL     1      28.865   2.330 192.212  0.00  0.00    +0.000 A 
ATOM      7  C   UNL     1      28.489   0.158 191.214  0.00  0.00    +0.000 A 
ENDROOT
BRANCH   2  10
ATOM      8  O   UNL     1      24.705   1.975 189.629  0.00  0.00    +0.000 OA
ATOM      9  N   UNL     1      23.060   2.213 191.236  0.00  0.00    +0.000 N 
ATOM     10  N   UNL     1      25.215   1.821 191.876  0.00  0.00    +0.000 N 
ATOM     11  C   UNL     1      24.359   2.000 190.802  0.00  0.00    +0.000 C 
ATOM     12  H   UNL     1      22.883   2.184 192.230  0.00  0.00    +0.000 HD
ATOM     13  H   UNL     1      24.841   1.896 192.812  0.00  0.00    +0.000 HD
BRANCH   9  15
ATOM     14 CL   UNL     1      18.432   3.299 187.705  0.00  0.00    +0.000 Cl
ATOM     15  C   UNL     1      21.948   2.440 190.404  0.00  0.00    +0.000 A 
ATOM     16  C   UNL     1      20.785   3.989 188.920  0.00  0.00    +0.000 A 
ATOM     17  C   UNL     1      21.856   3.678 189.766  0.00  0.00    +0.000 A 
ATOM     18  C   UNL     1      20.950   1.495 190.192  0.00  0.00    +0.000 A 
ATOM     19  C   UNL     1      19.794   3.026 188.722  0.00  0.00    +0.000 A 
ATOM     20  C   UNL     1      19.876   1.786 189.356  0.00  0.00    +0.000 A 
BRANCH  16  24
ATOM     21  F   UNL     1      21.829   6.106 188.581  0.00  0.00    +0.000 F 
ATOM     22  F   UNL     1      20.740   5.264 186.907  0.00  0.00    +0.000 F 
ATOM     23  F   UNL     1      19.662   6.071 188.624  0.00  0.00    +0.000 F 
ATOM     24  C   UNL     1      20.749   5.334 188.266  0.00  0.00    +0.000 C 
ENDBRANCH  16  24
ENDBRANCH   9  15
ENDBRANCH   2  10
BRANCH   3  25
ATOM     25  O   UNL     1      30.707   0.891 191.571  0.00  0.00    +0.000 OA
BRANCH  25  27
ATOM     26  N   UNL     1      32.890   3.512 189.167  0.00  0.00    +0.000 NA
ATOM     27  C   UNL     1      31.413   1.708 190.716  0.00  0.00    +0.000 A 
ATOM     28  C   UNL     1      30.994   2.008 189.424  0.00  0.00    +0.000 A 
ATOM     29  C   UNL     1      31.767   2.898 188.697  0.00  0.00    +0.000 A 
ATOM     30  C   UNL     1      32.540   2.326 191.248  0.00  0.00    +0.000 A 
ATOM     31  C   UNL     1      33.239   3.206 190.438  0.00  0.00    +0.000 A 
BRANCH  29  34
ATOM     32  O   UNL     1      31.200   2.329 186.481  0.00  0.00    +0.000 OA
ATOM     33  N   UNL     1      31.265   4.586 187.086  0.00  0.00    +0.000 N 
ATOM     34  C   UNL     1      31.379   3.224 187.301  0.00  0.00    +0.000 C 
ATOM     35  C   UNL     1      30.923   5.341 185.910  0.00  0.00    +0.000 C 
ATOM     36  H   UNL     1      31.462   5.159 187.906  0.00  0.00    +0.000 HD
ENDBRANCH  29  34
ENDBRANCH  25  27
ENDBRANCH   3  25
TORSDOF 6
ENDMDL
MODEL 9
REMARK VINA RESULT:      -8.5      9.523     11.686
REMARK  Name = 11167602_Regorafenib.pdbqt.pdb
REMARK  6 active torsions:
REMARK  status: ('A' for Active; 'I' for Inactive)
REMARK    1  A    between atoms: C_2  and  N_10
REMARK    2  A    between atoms: C_3  and  O_25
REMARK    3  A    between atoms: N_9  and  C_15
REMARK    4  A    between atoms: C_16  and  C_24
REMARK    5  A    between atoms: O_25  and  C_27
REMARK    6  A    between atoms: C_29  and  C_34
REMARK                            x       y       z     vdW  Elec       q    Type
REMARK                         _______ _______ _______ _____ _____    ______ ____
ROOT
ATOM      1  F   UNL     1      27.252   0.925 191.697  0.00  0.00    +0.000 F 
ATOM      2  C   UNL     1      27.902   1.288 189.451  0.00  0.00    +0.000 A 
ATOM      3  C   UNL     1      30.428   2.054 190.372  0.00  0.00    +0.000 A 
ATOM      4  C   UNL     1      28.195   1.296 190.818  0.00  0.00    +0.000 A 
ATOM      5  C   UNL     1      28.889   1.690 188.551  0.00  0.00    +0.000 A 
ATOM      6  C   UNL     1      29.443   1.688 191.289  0.00  0.00    +0.000 A 
ATOM      7  C   UNL     1      30.145   2.086 189.008  0.00  0.00    +0.000 A 
ENDROOT
BRANCH   2  10
ATOM      8  O   UNL     1      25.539   2.910 188.985  0.00  0.00    +0.000 OA
ATOM      9  N   UNL     1      24.429   0.967 188.405  0.00  0.00    +0.000 N 
ATOM     10  N   UNL     1      26.618   0.870 189.043  0.00  0.00    +0.000 N 
ATOM     11  C   UNL     1      25.529   1.697 188.826  0.00  0.00    +0.000 C 
ATOM     12  H   UNL     1      24.543  -0.028 188.279  0.00  0.00    +0.000 HD
ATOM     13  H   UNL     1      26.502  -0.126 188.919  0.00  0.00    +0.000 HD
BRANCH   9  15
ATOM     14 CL   UNL     1      19.046   3.162 187.279  0.00  0.00    +0.000 Cl
ATOM     15  C   UNL     1      23.161   1.499 188.107  0.00  0.00    +0.000 A 
ATOM     16  C   UNL     1      20.863   1.847 188.848  0.00  0.00    +0.000 A 
ATOM     17  C   UNL     1      22.153   1.348 189.060  0.00  0.00    +0.000 A 
ATOM     18  C   UNL     1      22.874   2.163 186.919  0.00  0.00    +0.000 A 
ATOM     19  C   UNL     1      20.595   2.509 187.648  0.00  0.00    +0.000 A 
ATOM     20  C   UNL     1      21.596   2.665 186.689  0.00  0.00    +0.000 A 
BRANCH  16  24
ATOM     21  F   UNL     1      20.273   0.885 190.949  0.00  0.00    +0.000 F 
ATOM     22  F   UNL     1      19.420   2.820 190.476  0.00  0.00    +0.000 F 
ATOM     23  F   UNL     1      18.708   1.027 189.457  0.00  0.00    +0.000 F 
ATOM     24  C   UNL     1      19.829   1.651 189.911  0.00  0.00    +0.000 C 
ENDBRANCH  16  24
ENDBRANCH   9  15
ENDBRANCH   2  10
BRANCH   3  25
ATOM     25  O   UNL     1      31.658   2.524 190.770  0.00  0.00    +0.000 OA
BRANCH  25  27
ATOM     26  N   UNL     1      34.970   0.279 189.589  0.00  0.00    +0.000 NA
ATOM     27  C   UNL     1      32.766   1.769 190.457  0.00  0.00    +0.000 A 
ATOM     28  C   UNL     1      33.095   0.586 191.109  0.00  0.00    +0.000 A 
ATOM     29  C   UNL     1      34.201  -0.107 190.646  0.00  0.00    +0.000 A 
ATOM     30  C   UNL     1      33.507   2.193 189.358  0.00  0.00    +0.000 A 
ATOM     31  C   UNL     1      34.593   1.422 188.973  0.00  0.00    +0.000 A 
BRANCH  29  34
ATOM     32  O   UNL     1      33.796  -2.253 191.536  0.00  0.00    +0.000 OA
ATOM     33  N   UNL     1      35.951  -1.358 191.681  0.00  0.00    +0.000 N 
ATOM     34  C   UNL     1      34.612  -1.360 191.332  0.00  0.00    +0.000 C 
ATOM     35  C   UNL     1      36.763  -2.338 192.351  0.00  0.00    +0.000 C 
ATOM     36  H   UNL     1      36.452  -0.510 191.421  0.00  0.00    +0.000 HD
ENDBRANCH  29  34
ENDBRANCH  25  27
ENDBRANCH   3  25
TORSDOF 6
ENDMDL
