MODEL 1
REMARK VINA RESULT:      -7.6      0.000      0.000
REMARK  Name = 114778_Kahweol.pdbqt.pdb
REMARK  3 active torsions:
REMARK  status: ('A' for Active; 'I' for Inactive)
REMARK    1  A    between atoms: C_8  and  O_21
REMARK    2  A    between atoms: C_8  and  C_23
REMARK    3  A    between atoms: C_23  and  O_24
REMARK                            x       y       z     vdW  Elec       q    Type
REMARK                         _______ _______ _______ _____ _____    ______ ____
ROOT
ATOM      1  O   UNL     1      26.724   0.511 188.955  0.00  0.00    +0.000 OA
ATOM      2  C   UNL     1      21.179   3.341 189.636  0.00  0.00    +0.000 C 
ATOM      3  C   UNL     1      21.721   2.484 188.410  0.00  0.00    +0.000 C 
ATOM      4  C   UNL     1      18.879   3.110 189.013  0.00  0.00    +0.000 C 
ATOM      5  C   UNL     1      19.982   4.076 189.143  0.00  0.00    +0.000 C 
ATOM      6  C   UNL     1      20.449   2.436 190.551  0.00  0.00    +0.000 C 
ATOM      7  C   UNL     1      23.160   2.617 187.900  0.00  0.00    +0.000 C 
ATOM      8  C   UNL     1      18.990   2.300 190.371  0.00  0.00    +0.000 C 
ATOM      9  C   UNL     1      22.269   4.079 190.219  0.00  0.00    +0.000 C 
ATOM     10  C   UNL     1      20.636   1.980 187.584  0.00  0.00    +0.000 C 
ATOM     11  C   UNL     1      19.159   2.322 187.822  0.00  0.00    +0.000 C 
ATOM     12  C   UNL     1      24.246   3.161 188.980  0.00  0.00    +0.000 C 
ATOM     13  C   UNL     1      23.744   4.031 189.975  0.00  0.00    +0.000 C 
ATOM     14  C   UNL     1      23.187   3.625 186.705  0.00  0.00    +0.000 C 
ATOM     15  C   UNL     1      23.657   1.276 187.485  0.00  0.00    +0.000 C 
ATOM     16  C   UNL     1      25.422   2.354 189.211  0.00  0.00    +0.000 A 
ATOM     17  C   UNL     1      24.630   0.613 187.710  0.00  0.00    +0.000 C 
ATOM     18  C   UNL     1      25.593   1.134 188.592  0.00  0.00    +0.000 A 
ATOM     19  C   UNL     1      26.554   2.502 190.039  0.00  0.00    +0.000 A 
ATOM     20  C   UNL     1      27.326   1.365 189.845  0.00  0.00    +0.000 A 
ENDROOT
BRANCH   8  21
ATOM     21  O   UNL     1      18.322   2.995 191.411  0.00  0.00    +0.000 OA
ATOM     22  H   UNL     1      17.375   2.941 191.200  0.00  0.00    +0.000 HD
ENDBRANCH   8  21
BRANCH   8  23
ATOM     23  C   UNL     1      18.487   0.923 190.295  0.00  0.00    +0.000 C 
BRANCH  23  24
ATOM     24  O   UNL     1      18.016  -0.323 190.233  0.00  0.00    +0.000 OA
ATOM     25  H   UNL     1      17.223  -0.367 189.669  0.00  0.00    +0.000 HD
ENDBRANCH  23  24
ENDBRANCH   8  23
TORSDOF 3
ENDMDL
MODEL 2
REMARK VINA RESULT:      -6.6     25.482     27.455
REMARK  Name = 114778_Kahweol.pdbqt.pdb
REMARK  3 active torsions:
REMARK  status: ('A' for Active; 'I' for Inactive)
REMARK    1  A    between atoms: C_8  and  O_21
REMARK    2  A    between atoms: C_8  and  C_23
REMARK    3  A    between atoms: C_23  and  O_24
REMARK                            x       y       z     vdW  Elec       q    Type
REMARK                         _______ _______ _______ _____ _____    ______ ____
ROOT
ATOM      1  O   UNL     1      12.169 -25.471 181.021  0.00  0.00    +0.000 OA
ATOM      2  C   UNL     1      15.714 -20.541 179.490  0.00  0.00    +0.000 C 
ATOM      3  C   UNL     1      15.064 -21.640 178.541  0.00  0.00    +0.000 C 
ATOM      4  C   UNL     1      16.034 -18.950 177.730  0.00  0.00    +0.000 C 
ATOM      5  C   UNL     1      16.738 -19.831 178.678  0.00  0.00    +0.000 C 
ATOM      6  C   UNL     1      14.774 -19.404 179.599  0.00  0.00    +0.000 C 
ATOM      7  C   UNL     1      15.049 -23.127 178.911  0.00  0.00    +0.000 C 
ATOM      8  C   UNL     1      14.940 -18.277 178.659  0.00  0.00    +0.000 C 
ATOM      9  C   UNL     1      16.101 -21.157 180.733  0.00  0.00    +0.000 C 
ATOM     10  C   UNL     1      14.953 -21.169 177.169  0.00  0.00    +0.000 C 
ATOM     11  C   UNL     1      15.489 -19.813 176.692  0.00  0.00    +0.000 C 
ATOM     12  C   UNL     1      15.143 -23.461 180.499  0.00  0.00    +0.000 C 
ATOM     13  C   UNL     1      15.848 -22.523 181.286  0.00  0.00    +0.000 C 
ATOM     14  C   UNL     1      16.274 -23.832 178.241  0.00  0.00    +0.000 C 
ATOM     15  C   UNL     1      13.765 -23.730 178.458  0.00  0.00    +0.000 C 
ATOM     16  C   UNL     1      14.110 -24.296 181.069  0.00  0.00    +0.000 A 
ATOM     17  C   UNL     1      12.908 -24.403 178.958  0.00  0.00    +0.000 C 
ATOM     18  C   UNL     1      13.045 -24.741 180.316  0.00  0.00    +0.000 A 
ATOM     19  C   UNL     1      13.872 -24.794 182.366  0.00  0.00    +0.000 A 
ATOM     20  C   UNL     1      12.687 -25.514 182.292  0.00  0.00    +0.000 A 
ENDROOT
BRANCH   8  21
ATOM     21  O   UNL     1      15.496 -17.170 179.347  0.00  0.00    +0.000 OA
ATOM     22  H   UNL     1      15.486 -17.411 180.289  0.00  0.00    +0.000 HD
ENDBRANCH   8  21
BRANCH   8  23
ATOM     23  C   UNL     1      13.724 -17.858 177.951  0.00  0.00    +0.000 C 
BRANCH  23  24
ATOM     24  O   UNL     1      12.626 -17.485 177.292  0.00  0.00    +0.000 OA
ATOM     25  H   UNL     1      12.855 -16.972 176.497  0.00  0.00    +0.000 HD
ENDBRANCH  23  24
ENDBRANCH   8  23
TORSDOF 3
ENDMDL
MODEL 3
REMARK VINA RESULT:      -6.2     28.552     33.668
REMARK  Name = 114778_Kahweol.pdbqt.pdb
REMARK  3 active torsions:
REMARK  status: ('A' for Active; 'I' for Inactive)
REMARK    1  A    between atoms: C_8  and  O_21
REMARK    2  A    between atoms: C_8  and  C_23
REMARK    3  A    between atoms: C_23  and  O_24
REMARK                            x       y       z     vdW  Elec       q    Type
REMARK                         _______ _______ _______ _____ _____    ______ ____
ROOT
ATOM      1  O   UNL     1      49.312  -3.164 182.313  0.00  0.00    +0.000 OA
ATOM      2  C   UNL     1      54.818  -5.715 180.767  0.00  0.00    +0.000 C 
ATOM      3  C   UNL     1      54.504  -4.593 181.850  0.00  0.00    +0.000 C 
ATOM      4  C   UNL     1      56.937  -6.295 181.719  0.00  0.00    +0.000 C 
ATOM      5  C   UNL     1      56.289  -5.689 180.544  0.00  0.00    +0.000 C 
ATOM      6  C   UNL     1      54.778  -7.034 181.436  0.00  0.00    +0.000 C 
ATOM      7  C   UNL     1      53.510  -3.458 181.580  0.00  0.00    +0.000 C 
ATOM      8  C   UNL     1      56.046  -7.585 181.956  0.00  0.00    +0.000 C 
ATOM      9  C   UNL     1      53.931  -5.553 179.645  0.00  0.00    +0.000 C 
ATOM     10  C   UNL     1      55.561  -4.493 182.844  0.00  0.00    +0.000 C 
ATOM     11  C   UNL     1      56.858  -5.309 182.787  0.00  0.00    +0.000 C 
ATOM     12  C   UNL     1      52.372  -3.768 180.461  0.00  0.00    +0.000 C 
ATOM     13  C   UNL     1      52.742  -4.669 179.437  0.00  0.00    +0.000 C 
ATOM     14  C   UNL     1      54.292  -2.203 181.074  0.00  0.00    +0.000 C 
ATOM     15  C   UNL     1      52.759  -3.159 182.830  0.00  0.00    +0.000 C 
ATOM     16  C   UNL     1      50.990  -3.594 180.845  0.00  0.00    +0.000 A 
ATOM     17  C   UNL     1      51.605  -3.042 183.133  0.00  0.00    +0.000 C 
ATOM     18  C   UNL     1      50.638  -3.243 182.132  0.00  0.00    +0.000 A 
ATOM     19  C   UNL     1      49.766  -3.749 180.163  0.00  0.00    +0.000 A 
ATOM     20  C   UNL     1      48.770  -3.467 181.088  0.00  0.00    +0.000 A 
ENDROOT
BRANCH   8  21
ATOM     21  O   UNL     1      56.479  -8.639 181.114  0.00  0.00    +0.000 OA
ATOM     22  H   UNL     1      56.401  -9.450 181.643  0.00  0.00    +0.000 HD
ENDBRANCH   8  21
BRANCH   8  23
ATOM     23  C   UNL     1      56.012  -8.046 183.349  0.00  0.00    +0.000 C 
BRANCH  23  24
ATOM     24  O   UNL     1      55.996  -8.457 184.618  0.00  0.00    +0.000 OA
ATOM     25  H   UNL     1      56.295  -7.748 185.216  0.00  0.00    +0.000 HD
ENDBRANCH  23  24
ENDBRANCH   8  23
TORSDOF 3
ENDMDL
MODEL 4
REMARK VINA RESULT:      -6.1      3.273      4.879
REMARK  Name = 114778_Kahweol.pdbqt.pdb
REMARK  3 active torsions:
REMARK  status: ('A' for Active; 'I' for Inactive)
REMARK    1  A    between atoms: C_8  and  O_21
REMARK    2  A    between atoms: C_8  and  C_23
REMARK    3  A    between atoms: C_23  and  O_24
REMARK                            x       y       z     vdW  Elec       q    Type
REMARK                         _______ _______ _______ _____ _____    ______ ____
ROOT
ATOM      1  O   UNL     1      26.196   2.651 194.415  0.00  0.00    +0.000 OA
ATOM      2  C   UNL     1      22.448   1.803 189.471  0.00  0.00    +0.000 C 
ATOM      3  C   UNL     1      22.381   2.925 190.597  0.00  0.00    +0.000 C 
ATOM      4  C   UNL     1      21.113   3.034 187.911  0.00  0.00    +0.000 C 
ATOM      5  C   UNL     1      21.140   1.833 188.763  0.00  0.00    +0.000 C 
ATOM      6  C   UNL     1      23.255   2.320 188.344  0.00  0.00    +0.000 C 
ATOM      7  C   UNL     1      22.623   2.607 192.076  0.00  0.00    +0.000 C 
ATOM      8  C   UNL     1      22.545   2.987 187.234  0.00  0.00    +0.000 C 
ATOM      9  C   UNL     1      22.905   0.570 190.057  0.00  0.00    +0.000 C 
ATOM     10  C   UNL     1      21.627   4.087 190.154  0.00  0.00    +0.000 C 
ATOM     11  C   UNL     1      20.909   4.167 188.801  0.00  0.00    +0.000 C 
ATOM     12  C   UNL     1      23.523   1.288 192.377  0.00  0.00    +0.000 C 
ATOM     13  C   UNL     1      23.447   0.255 191.415  0.00  0.00    +0.000 C 
ATOM     14  C   UNL     1      21.247   2.368 192.779  0.00  0.00    +0.000 C 
ATOM     15  C   UNL     1      23.360   3.737 192.705  0.00  0.00    +0.000 C 
ATOM     16  C   UNL     1      24.690   1.451 193.214  0.00  0.00    +0.000 A 
ATOM     17  C   UNL     1      24.345   3.852 193.378  0.00  0.00    +0.000 C 
ATOM     18  C   UNL     1      25.071   2.688 193.688  0.00  0.00    +0.000 A 
ATOM     19  C   UNL     1      25.674   0.561 193.690  0.00  0.00    +0.000 A 
ATOM     20  C   UNL     1      26.566   1.329 194.427  0.00  0.00    +0.000 A 
ENDROOT
BRANCH   8  21
ATOM     21  O   UNL     1      22.526   2.128 186.107  0.00  0.00    +0.000 OA
ATOM     22  H   UNL     1      22.216   2.672 185.364  0.00  0.00    +0.000 HD
ENDBRANCH   8  21
BRANCH   8  23
ATOM     23  C   UNL     1      23.072   4.302 186.845  0.00  0.00    +0.000 C 
BRANCH  23  24
ATOM     24  O   UNL     1      23.532   5.501 186.489  0.00  0.00    +0.000 OA
ATOM     25  H   UNL     1      24.078   5.439 185.685  0.00  0.00    +0.000 HD
ENDBRANCH  23  24
ENDBRANCH   8  23
TORSDOF 3
ENDMDL
MODEL 5
REMARK VINA RESULT:      -6.1     30.438     33.615
REMARK  Name = 114778_Kahweol.pdbqt.pdb
REMARK  3 active torsions:
REMARK  status: ('A' for Active; 'I' for Inactive)
REMARK    1  A    between atoms: C_8  and  O_21
REMARK    2  A    between atoms: C_8  and  C_23
REMARK    3  A    between atoms: C_23  and  O_24
REMARK                            x       y       z     vdW  Elec       q    Type
REMARK                         _______ _______ _______ _____ _____    ______ ____
ROOT
ATOM      1  O   UNL     1      38.334  -8.051 161.166  0.00  0.00    +0.000 OA
ATOM      2  C   UNL     1      43.407  -6.970 164.675  0.00  0.00    +0.000 C 
ATOM      3  C   UNL     1      42.390  -5.926 164.038  0.00  0.00    +0.000 C 
ATOM      4  C   UNL     1      44.260  -5.426 166.293  0.00  0.00    +0.000 C 
ATOM      5  C   UNL     1      44.609  -6.195 165.086  0.00  0.00    +0.000 C 
ATOM      6  C   UNL     1      42.947  -7.297 166.042  0.00  0.00    +0.000 C 
ATOM      7  C   UNL     1      41.840  -6.090 162.617  0.00  0.00    +0.000 C 
ATOM      8  C   UNL     1      43.499  -6.510 167.164  0.00  0.00    +0.000 C 
ATOM      9  C   UNL     1      43.561  -8.088 163.780  0.00  0.00    +0.000 C 
ATOM     10  C   UNL     1      42.438  -4.643 164.720  0.00  0.00    +0.000 C 
ATOM     11  C   UNL     1      43.424  -4.320 165.850  0.00  0.00    +0.000 C 
ATOM     12  C   UNL     1      41.828  -7.608 162.035  0.00  0.00    +0.000 C 
ATOM     13  C   UNL     1      42.837  -8.466 162.527  0.00  0.00    +0.000 C 
ATOM     14  C   UNL     1      42.715  -5.249 161.631  0.00  0.00    +0.000 C 
ATOM     15  C   UNL     1      40.419  -5.647 162.589  0.00  0.00    +0.000 C 
ATOM     16  C   UNL     1      40.571  -8.128 161.548  0.00  0.00    +0.000 A 
ATOM     17  C   UNL     1      39.383  -6.108 162.199  0.00  0.00    +0.000 C 
ATOM     18  C   UNL     1      39.406  -7.395 161.632  0.00  0.00    +0.000 A 
ATOM     19  C   UNL     1      40.185  -9.357 160.976  0.00  0.00    +0.000 A 
ATOM     20  C   UNL     1      38.818  -9.266 160.748  0.00  0.00    +0.000 A 
ENDROOT
BRANCH   8  21
ATOM     21  O   UNL     1      44.429  -7.304 167.880  0.00  0.00    +0.000 OA
ATOM     22  H   UNL     1      44.116  -8.220 167.796  0.00  0.00    +0.000 HD
ENDBRANCH   8  21
BRANCH   8  23
ATOM     23  C   UNL     1      42.508  -5.951 168.091  0.00  0.00    +0.000 C 
BRANCH  23  24
ATOM     24  O   UNL     1      41.620  -5.429 168.939  0.00  0.00    +0.000 OA
ATOM     25  H   UNL     1      41.522  -5.990 169.728  0.00  0.00    +0.000 HD
ENDBRANCH  23  24
ENDBRANCH   8  23
TORSDOF 3
ENDMDL
MODEL 6
REMARK VINA RESULT:      -5.9     24.524     26.552
REMARK  Name = 114778_Kahweol.pdbqt.pdb
REMARK  3 active torsions:
REMARK  status: ('A' for Active; 'I' for Inactive)
REMARK    1  A    between atoms: C_8  and  O_21
REMARK    2  A    between atoms: C_8  and  C_23
REMARK    3  A    between atoms: C_23  and  O_24
REMARK                            x       y       z     vdW  Elec       q    Type
REMARK                         _______ _______ _______ _____ _____    ______ ____
ROOT
ATOM      1  O   UNL     1      12.198 -18.444 174.810  0.00  0.00    +0.000 OA
ATOM      2  C   UNL     1      15.508 -21.001 179.470  0.00  0.00    +0.000 C 
ATOM      3  C   UNL     1      14.432 -19.831 179.532  0.00  0.00    +0.000 C 
ATOM      4  C   UNL     1      15.356 -21.509 181.805  0.00  0.00    +0.000 C 
ATOM      5  C   UNL     1      16.245 -20.968 180.763  0.00  0.00    +0.000 C 
ATOM      6  C   UNL     1      14.816 -22.286 179.710  0.00  0.00    +0.000 C 
ATOM      7  C   UNL     1      14.374 -18.723 178.475  0.00  0.00    +0.000 C 
ATOM      8  C   UNL     1      14.763 -22.796 181.095  0.00  0.00    +0.000 C 
ATOM      9  C   UNL     1      16.244 -20.904 178.236  0.00  0.00    +0.000 C 
ATOM     10  C   UNL     1      13.887 -19.671 180.871  0.00  0.00    +0.000 C 
ATOM     11  C   UNL     1      14.372 -20.473 182.085  0.00  0.00    +0.000 C 
ATOM     12  C   UNL     1      14.997 -19.100 177.022  0.00  0.00    +0.000 C 
ATOM     13  C   UNL     1      16.048 -20.046 177.027  0.00  0.00    +0.000 C 
ATOM     14  C   UNL     1      15.178 -17.485 178.989  0.00  0.00    +0.000 C 
ATOM     15  C   UNL     1      12.951 -18.372 178.212  0.00  0.00    +0.000 C 
ATOM     16  C   UNL     1      14.151 -18.924 175.864  0.00  0.00    +0.000 A 
ATOM     17  C   UNL     1      12.260 -18.255 177.240  0.00  0.00    +0.000 C 
ATOM     18  C   UNL     1      12.839 -18.516 175.985  0.00  0.00    +0.000 A 
ATOM     19  C   UNL     1      14.341 -19.127 174.482  0.00  0.00    +0.000 A 
ATOM     20  C   UNL     1      13.133 -18.812 173.875  0.00  0.00    +0.000 A 
ENDROOT
BRANCH   8  21
ATOM     21  O   UNL     1      15.660 -23.885 181.228  0.00  0.00    +0.000 OA
ATOM     22  H   UNL     1      15.372 -24.547 180.577  0.00  0.00    +0.000 HD
ENDBRANCH   8  21
BRANCH   8  23
ATOM     23  C   UNL     1      13.432 -23.189 181.574  0.00  0.00    +0.000 C 
BRANCH  23  24
ATOM     24  O   UNL     1      12.219 -23.554 181.993  0.00  0.00    +0.000 OA
ATOM     25  H   UNL     1      12.271 -24.016 182.848  0.00  0.00    +0.000 HD
ENDBRANCH  23  24
ENDBRANCH   8  23
TORSDOF 3
ENDMDL
MODEL 7
REMARK VINA RESULT:      -5.7     30.954     34.020
REMARK  Name = 114778_Kahweol.pdbqt.pdb
REMARK  3 active torsions:
REMARK  status: ('A' for Active; 'I' for Inactive)
REMARK    1  A    between atoms: C_8  and  O_21
REMARK    2  A    between atoms: C_8  and  C_23
REMARK    3  A    between atoms: C_23  and  O_24
REMARK                            x       y       z     vdW  Elec       q    Type
REMARK                         _______ _______ _______ _____ _____    ______ ____
ROOT
ATOM      1  O   UNL     1      39.070 -10.832 160.093  0.00  0.00    +0.000 OA
ATOM      2  C   UNL     1      42.426  -7.976 164.543  0.00  0.00    +0.000 C 
ATOM      3  C   UNL     1      41.672  -7.340 163.294  0.00  0.00    +0.000 C 
ATOM      4  C   UNL     1      42.548  -5.912 165.749  0.00  0.00    +0.000 C 
ATOM      5  C   UNL     1      43.353  -6.932 165.056  0.00  0.00    +0.000 C 
ATOM      6  C   UNL     1      41.505  -7.960 165.701  0.00  0.00    +0.000 C 
ATOM      7  C   UNL     1      41.698  -7.996 161.909  0.00  0.00    +0.000 C 
ATOM      8  C   UNL     1      41.566  -6.804 166.617  0.00  0.00    +0.000 C 
ATOM      9  C   UNL     1      42.950  -9.266 164.174  0.00  0.00    +0.000 C 
ATOM     10  C   UNL     1      41.409  -5.923 163.489  0.00  0.00    +0.000 C 
ATOM     11  C   UNL     1      41.889  -5.132 164.712  0.00  0.00    +0.000 C 
ATOM     12  C   UNL     1      41.969  -9.599 161.892  0.00  0.00    +0.000 C 
ATOM     13  C   UNL     1      42.759 -10.103 162.950  0.00  0.00    +0.000 C 
ATOM     14  C   UNL     1      42.838  -7.349 161.058  0.00  0.00    +0.000 C 
ATOM     15  C   UNL     1      40.371  -7.816 161.259  0.00  0.00    +0.000 C 
ATOM     16  C   UNL     1      41.006 -10.433 161.210  0.00  0.00    +0.000 A 
ATOM     17  C   UNL     1      39.574  -8.530 160.718  0.00  0.00    +0.000 C 
ATOM     18  C   UNL     1      39.862  -9.905 160.650  0.00  0.00    +0.000 A 
ATOM     19  C   UNL     1      40.914 -11.821 160.981  0.00  0.00    +0.000 A 
ATOM     20  C   UNL     1      39.727 -12.021 160.289  0.00  0.00    +0.000 A 
ENDROOT
BRANCH   8  21
ATOM     21  O   UNL     1      42.197  -7.194 167.824  0.00  0.00    +0.000 OA
ATOM     22  H   UNL     1      43.126  -6.921 167.738  0.00  0.00    +0.000 HD
ENDBRANCH   8  21
BRANCH   8  23
ATOM     23  C   UNL     1      40.278  -6.165 166.916  0.00  0.00    +0.000 C 
BRANCH  23  24
ATOM     24  O   UNL     1      39.114  -5.571 167.178  0.00  0.00    +0.000 OA
ATOM     25  H   UNL     1      38.920  -4.881 166.519  0.00  0.00    +0.000 HD
ENDBRANCH  23  24
ENDBRANCH   8  23
TORSDOF 3
ENDMDL
MODEL 8
REMARK VINA RESULT:      -5.6     23.184     25.485
REMARK  Name = 114778_Kahweol.pdbqt.pdb
REMARK  3 active torsions:
REMARK  status: ('A' for Active; 'I' for Inactive)
REMARK    1  A    between atoms: C_8  and  O_21
REMARK    2  A    between atoms: C_8  and  C_23
REMARK    3  A    between atoms: C_23  and  O_24
REMARK                            x       y       z     vdW  Elec       q    Type
REMARK                         _______ _______ _______ _____ _____    ______ ____
ROOT
ATOM      1  O   UNL     1       9.979 -15.751 180.439  0.00  0.00    +0.000 OA
ATOM      2  C   UNL     1      14.415 -19.032 177.476  0.00  0.00    +0.000 C 
ATOM      3  C   UNL     1      14.426 -18.440 178.953  0.00  0.00    +0.000 C 
ATOM      4  C   UNL     1      16.165 -20.609 177.903  0.00  0.00    +0.000 C 
ATOM      5  C   UNL     1      15.823 -19.389 177.152  0.00  0.00    +0.000 C 
ATOM      6  C   UNL     1      13.903 -20.419 177.534  0.00  0.00    +0.000 C 
ATOM      7  C   UNL     1      13.880 -17.044 179.273  0.00  0.00    +0.000 C 
ATOM      8  C   UNL     1      14.886 -21.514 177.658  0.00  0.00    +0.000 C 
ATOM      9  C   UNL     1      13.698 -18.133 176.610  0.00  0.00    +0.000 C 
ATOM     10  C   UNL     1      15.397 -19.117 179.797  0.00  0.00    +0.000 C 
ATOM     11  C   UNL     1      16.354 -20.202 179.287  0.00  0.00    +0.000 C 
ATOM     12  C   UNL     1      12.771 -16.465 178.235  0.00  0.00    +0.000 C 
ATOM     13  C   UNL     1      12.882 -16.914 176.899  0.00  0.00    +0.000 C 
ATOM     14  C   UNL     1      15.061 -16.020 179.270  0.00  0.00    +0.000 C 
ATOM     15  C   UNL     1      13.198 -17.078 180.596  0.00  0.00    +0.000 C 
ATOM     16  C   UNL     1      11.504 -16.035 178.781  0.00  0.00    +0.000 A 
ATOM     17  C   UNL     1      12.132 -16.735 181.023  0.00  0.00    +0.000 C 
ATOM     18  C   UNL     1      11.213 -16.169 180.122  0.00  0.00    +0.000 A 
ATOM     19  C   UNL     1      10.339 -15.482 178.211  0.00  0.00    +0.000 A 
ATOM     20  C   UNL     1       9.439 -15.314 179.255  0.00  0.00    +0.000 A 
ENDROOT
BRANCH   8  21
ATOM     21  O   UNL     1      14.995 -22.189 176.417  0.00  0.00    +0.000 OA
ATOM     22  H   UNL     1      14.801 -23.123 176.605  0.00  0.00    +0.000 HD
ENDBRANCH   8  21
BRANCH   8  23
ATOM     23  C   UNL     1      14.621 -22.484 178.728  0.00  0.00    +0.000 C 
BRANCH  23  24
ATOM     24  O   UNL     1      14.392 -23.376 179.692  0.00  0.00    +0.000 OA
ATOM     25  H   UNL     1      14.903 -24.191 179.541  0.00  0.00    +0.000 HD
ENDBRANCH  23  24
ENDBRANCH   8  23
TORSDOF 3
ENDMDL
MODEL 9
REMARK VINA RESULT:      -5.5     15.216     17.812
REMARK  Name = 114778_Kahweol.pdbqt.pdb
REMARK  3 active torsions:
REMARK  status: ('A' for Active; 'I' for Inactive)
REMARK    1  A    between atoms: C_8  and  O_21
REMARK    2  A    between atoms: C_8  and  C_23
REMARK    3  A    between atoms: C_23  and  O_24
REMARK                            x       y       z     vdW  Elec       q    Type
REMARK                         _______ _______ _______ _____ _____    ______ ____
ROOT
ATOM      1  O   UNL     1      33.626  -9.266 195.271  0.00  0.00    +0.000 OA
ATOM      2  C   UNL     1      36.646  -4.426 192.687  0.00  0.00    +0.000 C 
ATOM      3  C   UNL     1      36.710  -4.963 194.184  0.00  0.00    +0.000 C 
ATOM      4  C   UNL     1      38.706  -3.218 192.841  0.00  0.00    +0.000 C 
ATOM      5  C   UNL     1      37.249  -3.066 192.698  0.00  0.00    +0.000 C 
ATOM      6  C   UNL     1      37.724  -5.078 191.912  0.00  0.00    +0.000 C 
ATOM      7  C   UNL     1      35.456  -5.421 194.937  0.00  0.00    +0.000 C 
ATOM      8  C   UNL     1      39.019  -4.376 191.804  0.00  0.00    +0.000 C 
ATOM      9  C   UNL     1      35.311  -4.602 192.177  0.00  0.00    +0.000 C 
ATOM     10  C   UNL     1      37.919  -4.523 194.862  0.00  0.00    +0.000 C 
ATOM     11  C   UNL     1      38.949  -3.578 194.231  0.00  0.00    +0.000 C 
ATOM     12  C   UNL     1      34.217  -5.917 194.010  0.00  0.00    +0.000 C 
ATOM     13  C   UNL     1      34.119  -5.312 192.736  0.00  0.00    +0.000 C 
ATOM     14  C   UNL     1      34.914  -4.234 195.797  0.00  0.00    +0.000 C 
ATOM     15  C   UNL     1      35.800  -6.592 195.790  0.00  0.00    +0.000 C 
ATOM     16  C   UNL     1      33.678  -7.234 194.260  0.00  0.00    +0.000 A 
ATOM     17  C   UNL     1      35.352  -7.690 195.965  0.00  0.00    +0.000 C 
ATOM     18  C   UNL     1      34.233  -8.073 195.204  0.00  0.00    +0.000 A 
ATOM     19  C   UNL     1      32.628  -7.978 193.686  0.00  0.00    +0.000 A 
ATOM     20  C   UNL     1      32.622  -9.205 194.337  0.00  0.00    +0.000 A 
ENDROOT
BRANCH   8  21
ATOM     21  O   UNL     1      39.155  -3.840 190.499  0.00  0.00    +0.000 OA
ATOM     22  H   UNL     1      38.250  -3.735 190.160  0.00  0.00    +0.000 HD
ENDBRANCH   8  21
BRANCH   8  23
ATOM     23  C   UNL     1      40.203  -5.179 192.136  0.00  0.00    +0.000 C 
BRANCH  23  24
ATOM     24  O   UNL     1      41.277  -5.902 192.454  0.00  0.00    +0.000 OA
ATOM     25  H   UNL     1      41.337  -6.698 191.896  0.00  0.00    +0.000 HD
ENDBRANCH  23  24
ENDBRANCH   8  23
TORSDOF 3
ENDMDL
