MODEL 1
REMARK VINA RESULT:      -4.8      0.000      0.000
REMARK  Name = 1174_Uracil.pdbqt.pdb
REMARK  0 active torsions:
REMARK  status: ('A' for Active; 'I' for Inactive)
REMARK                            x       y       z     vdW  Elec       q    Type
REMARK                         _______ _______ _______ _____ _____    ______ ____
ROOT
ATOM      1  O   UNL     1      30.822   2.426 168.809  0.00  0.00    +0.000 OA
ATOM      2  O   UNL     1      31.672  -0.807 165.600  0.00  0.00    +0.000 OA
ATOM      3  N   UNL     1      31.294   0.856 167.180  0.00  0.00    +0.000 N 
ATOM      4  N   UNL     1      29.685   0.415 168.826  0.00  0.00    +0.000 N 
ATOM      5  C   UNL     1      30.616   1.325 168.315  0.00  0.00    +0.000 A 
ATOM      6  C   UNL     1      31.088  -0.389 166.589  0.00  0.00    +0.000 A 
ATOM      7  C   UNL     1      29.498  -0.781 168.244  0.00  0.00    +0.000 A 
ATOM      8  C   UNL     1      30.086  -1.159 167.278  0.00  0.00    +0.000 A 
ATOM      9  H   UNL     1      31.980   1.465 166.763  0.00  0.00    +0.000 HD
ATOM     10  H   UNL     1      29.154   0.680 169.646  0.00  0.00    +0.000 HD
ENDROOT
TORSDOF 0
ENDMDL
MODEL 2
REMARK VINA RESULT:      -4.2     21.696     22.685
REMARK  Name = 1174_Uracil.pdbqt.pdb
REMARK  0 active torsions:
REMARK  status: ('A' for Active; 'I' for Inactive)
REMARK                            x       y       z     vdW  Elec       q    Type
REMARK                         _______ _______ _______ _____ _____    ______ ____
ROOT
ATOM      1  O   UNL     1      21.556   5.922 188.168  0.00  0.00    +0.000 OA
ATOM      2  O   UNL     1      18.097   2.844 187.990  0.00  0.00    +0.000 OA
ATOM      3  N   UNL     1      19.810   4.408 188.142  0.00  0.00    +0.000 N 
ATOM      4  N   UNL     1      21.271   4.569 186.317  0.00  0.00    +0.000 N 
ATOM      5  C   UNL     1      20.933   5.041 187.590  0.00  0.00    +0.000 A 
ATOM      6  C   UNL     1      19.075   3.403 187.517  0.00  0.00    +0.000 A 
ATOM      7  C   UNL     1      20.552   3.599 185.728  0.00  0.00    +0.000 A 
ATOM      8  C   UNL     1      19.600   3.074 186.217  0.00  0.00    +0.000 A 
ATOM      9  H   UNL     1      19.515   4.703 189.059  0.00  0.00    +0.000 HD
ATOM     10  H   UNL     1      22.071   4.976 185.850  0.00  0.00    +0.000 HD
ENDROOT
TORSDOF 0
ENDMDL
MODEL 3
REMARK VINA RESULT:      -4.2     20.876     22.093
REMARK  Name = 1174_Uracil.pdbqt.pdb
REMARK  0 active torsions:
REMARK  status: ('A' for Active; 'I' for Inactive)
REMARK                            x       y       z     vdW  Elec       q    Type
REMARK                         _______ _______ _______ _____ _____    ______ ____
ROOT
ATOM      1  O   UNL     1      21.425   3.408 184.371  0.00  0.00    +0.000 OA
ATOM      2  O   UNL     1      18.392   3.087 187.859  0.00  0.00    +0.000 OA
ATOM      3  N   UNL     1      19.879   3.197 186.076  0.00  0.00    +0.000 N 
ATOM      4  N   UNL     1      21.613   4.766 186.231  0.00  0.00    +0.000 N 
ATOM      5  C   UNL     1      21.009   3.762 185.467  0.00  0.00    +0.000 A 
ATOM      6  C   UNL     1      19.375   3.571 187.320  0.00  0.00    +0.000 A 
ATOM      7  C   UNL     1      21.114   5.115 187.428  0.00  0.00    +0.000 A 
ATOM      8  C   UNL     1      20.152   4.621 187.927  0.00  0.00    +0.000 A 
ATOM      9  H   UNL     1      19.398   2.467 185.577  0.00  0.00    +0.000 HD
ATOM     10  H   UNL     1      22.436   5.224 185.859  0.00  0.00    +0.000 HD
ENDROOT
TORSDOF 0
ENDMDL
MODEL 4
REMARK VINA RESULT:      -4.2     21.092     22.212
REMARK  Name = 1174_Uracil.pdbqt.pdb
REMARK  0 active torsions:
REMARK  status: ('A' for Active; 'I' for Inactive)
REMARK                            x       y       z     vdW  Elec       q    Type
REMARK                         _______ _______ _______ _____ _____    ______ ____
ROOT
ATOM      1  O   UNL     1      18.020   2.688 187.692  0.00  0.00    +0.000 OA
ATOM      2  O   UNL     1      21.431   3.416 184.641  0.00  0.00    +0.000 OA
ATOM      3  N   UNL     1      19.694   3.001 186.129  0.00  0.00    +0.000 N 
ATOM      4  N   UNL     1      19.625   4.305 188.075  0.00  0.00    +0.000 N 
ATOM      5  C   UNL     1      19.028   3.283 187.331  0.00  0.00    +0.000 A 
ATOM      6  C   UNL     1      20.842   3.654 185.685  0.00  0.00    +0.000 A 
ATOM      7  C   UNL     1      20.732   4.925 187.632  0.00  0.00    +0.000 A 
ATOM      8  C   UNL     1      21.282   4.669 186.606  0.00  0.00    +0.000 A 
ATOM      9  H   UNL     1      19.314   2.274 185.546  0.00  0.00    +0.000 HD
ATOM     10  H   UNL     1      19.203   4.568 188.957  0.00  0.00    +0.000 HD
ENDROOT
TORSDOF 0
ENDMDL
MODEL 5
REMARK VINA RESULT:      -4.1     19.830     20.645
REMARK  Name = 1174_Uracil.pdbqt.pdb
REMARK  0 active torsions:
REMARK  status: ('A' for Active; 'I' for Inactive)
REMARK                            x       y       z     vdW  Elec       q    Type
REMARK                         _______ _______ _______ _____ _____    ______ ____
ROOT
ATOM      1  O   UNL     1      14.760   3.526 178.154  0.00  0.00    +0.000 OA
ATOM      2  O   UNL     1      12.767   6.932 175.725  0.00  0.00    +0.000 OA
ATOM      3  N   UNL     1      13.828   5.257 176.939  0.00  0.00    +0.000 N 
ATOM      4  N   UNL     1      12.508   3.453 177.642  0.00  0.00    +0.000 N 
ATOM      5  C   UNL     1      13.780   4.034 177.624  0.00  0.00    +0.000 A 
ATOM      6  C   UNL     1      12.737   5.867 176.323  0.00  0.00    +0.000 A 
ATOM      7  C   UNL     1      11.467   4.054 177.043  0.00  0.00    +0.000 A 
ATOM      8  C   UNL     1      11.530   5.095 176.466  0.00  0.00    +0.000 A 
ATOM      9  H   UNL     1      14.717   5.728 176.889  0.00  0.00    +0.000 HD
ATOM     10  H   UNL     1      12.391   2.567 178.118  0.00  0.00    +0.000 HD
ENDROOT
TORSDOF 0
ENDMDL
MODEL 6
REMARK VINA RESULT:      -4.1     20.338     21.414
REMARK  Name = 1174_Uracil.pdbqt.pdb
REMARK  0 active torsions:
REMARK  status: ('A' for Active; 'I' for Inactive)
REMARK                            x       y       z     vdW  Elec       q    Type
REMARK                         _______ _______ _______ _____ _____    ______ ____
ROOT
ATOM      1  O   UNL     1      20.708   5.575 188.631  0.00  0.00    +0.000 OA
ATOM      2  O   UNL     1      23.218   5.337 184.742  0.00  0.00    +0.000 OA
ATOM      3  N   UNL     1      22.001   5.507 186.716  0.00  0.00    +0.000 N 
ATOM      4  N   UNL     1      20.168   4.068 186.965  0.00  0.00    +0.000 N 
ATOM      5  C   UNL     1      20.938   5.090 187.530  0.00  0.00    +0.000 A 
ATOM      6  C   UNL     1      22.295   4.980 185.460  0.00  0.00    +0.000 A 
ATOM      7  C   UNL     1      20.465   3.571 185.752  0.00  0.00    +0.000 A 
ATOM      8  C   UNL     1      21.375   3.941 185.077  0.00  0.00    +0.000 A 
ATOM      9  H   UNL     1      22.595   6.241 187.066  0.00  0.00    +0.000 HD
ATOM     10  H   UNL     1      19.381   3.711 187.491  0.00  0.00    +0.000 HD
ENDROOT
TORSDOF 0
ENDMDL
MODEL 7
REMARK VINA RESULT:      -4.0     12.690     13.410
REMARK  Name = 1174_Uracil.pdbqt.pdb
REMARK  0 active torsions:
REMARK  status: ('A' for Active; 'I' for Inactive)
REMARK                            x       y       z     vdW  Elec       q    Type
REMARK                         _______ _______ _______ _____ _____    ______ ____
ROOT
ATOM      1  O   UNL     1      42.726  -5.775 169.370  0.00  0.00    +0.000 OA
ATOM      2  O   UNL     1      42.738  -8.659 165.743  0.00  0.00    +0.000 OA
ATOM      3  N   UNL     1      42.792  -7.241 167.584  0.00  0.00    +0.000 N 
ATOM      4  N   UNL     1      41.020  -5.725 167.813  0.00  0.00    +0.000 N 
ATOM      5  C   UNL     1      42.221  -6.209 168.343  0.00  0.00    +0.000 A 
ATOM      6  C   UNL     1      42.248  -7.761 166.412  0.00  0.00    +0.000 A 
ATOM      7  C   UNL     1      40.509  -6.237 166.681  0.00  0.00    +0.000 A 
ATOM      8  C   UNL     1      41.013  -7.116 166.052  0.00  0.00    +0.000 A 
ATOM      9  H   UNL     1      43.659  -7.634 167.912  0.00  0.00    +0.000 HD
ATOM     10  H   UNL     1      40.545  -4.977 168.303  0.00  0.00    +0.000 HD
ENDROOT
TORSDOF 0
ENDMDL
MODEL 8
REMARK VINA RESULT:      -3.9     20.922     22.033
REMARK  Name = 1174_Uracil.pdbqt.pdb
REMARK  0 active torsions:
REMARK  status: ('A' for Active; 'I' for Inactive)
REMARK                            x       y       z     vdW  Elec       q    Type
REMARK                         _______ _______ _______ _____ _____    ______ ____
ROOT
ATOM      1  O   UNL     1      21.549   1.498 189.162  0.00  0.00    +0.000 OA
ATOM      2  O   UNL     1      21.678   3.134 184.829  0.00  0.00    +0.000 OA
ATOM      3  N   UNL     1      21.680   2.295 186.996  0.00  0.00    +0.000 N 
ATOM      4  N   UNL     1      19.677   2.453 188.202  0.00  0.00    +0.000 N 
ATOM      5  C   UNL     1      21.012   2.037 188.203  0.00  0.00    +0.000 A 
ATOM      6  C   UNL     1      21.105   2.904 185.883  0.00  0.00    +0.000 A 
ATOM      7  C   UNL     1      19.137   3.039 187.120  0.00  0.00    +0.000 A 
ATOM      8  C   UNL     1      19.725   3.248 186.104  0.00  0.00    +0.000 A 
ATOM      9  H   UNL     1      22.647   2.019 186.932  0.00  0.00    +0.000 HD
ATOM     10  H   UNL     1      19.126   2.302 189.037  0.00  0.00    +0.000 HD
ENDROOT
TORSDOF 0
ENDMDL
MODEL 9
REMARK VINA RESULT:      -3.8     23.085     23.708
REMARK  Name = 1174_Uracil.pdbqt.pdb
REMARK  0 active torsions:
REMARK  status: ('A' for Active; 'I' for Inactive)
REMARK                            x       y       z     vdW  Elec       q    Type
REMARK                         _______ _______ _______ _____ _____    ______ ____
ROOT
ATOM      1  O   UNL     1      45.023 -20.456 172.546  0.00  0.00    +0.000 OA
ATOM      2  O   UNL     1      41.485 -18.145 170.645  0.00  0.00    +0.000 OA
ATOM      3  N   UNL     1      43.296 -19.295 171.539  0.00  0.00    +0.000 N 
ATOM      4  N   UNL     1      43.066 -20.110 173.724  0.00  0.00    +0.000 N 
ATOM      5  C   UNL     1      43.891 -19.994 172.600  0.00  0.00    +0.000 A 
ATOM      6  C   UNL     1      42.012 -18.755 171.562  0.00  0.00    +0.000 A 
ATOM      7  C   UNL     1      41.830 -19.583 173.731  0.00  0.00    +0.000 A 
ATOM      8  C   UNL     1      41.345 -18.993 172.816  0.00  0.00    +0.000 A 
ATOM      9  H   UNL     1      43.838 -19.177 170.699  0.00  0.00    +0.000 HD
ATOM     10  H   UNL     1      43.423 -20.601 174.534  0.00  0.00    +0.000 HD
ENDROOT
TORSDOF 0
ENDMDL
