REMARK  Name = 122178712_SalternamideA.pdbqt.pdb
REMARK  8 active torsions:
REMARK  status: ('A' for Active; 'I' for Inactive)
REMARK    1  A    between atoms: C_3  and  O_24
REMARK    2  A    between atoms: C_3  and  C_26
REMARK    3  A    between atoms: C_6  and  N_10
REMARK    4  A    between atoms: C_11  and  C_14
REMARK    5  A    between atoms: C_13  and  C_15
REMARK    6  A    between atoms: C_27  and  C_28
REMARK    7  A    between atoms: C_29  and  C_31
REMARK    8  A    between atoms: C_31  and  O_32
REMARK                            x       y       z     vdW  Elec       q    Type
REMARK                         _______ _______ _______ _____ _____    ______ ____
ROOT
ATOM      1 CL   UNL     1       5.323   3.402   1.403  0.00  0.00    +0.000 Cl
ATOM      2  O   UNL     1       2.196   3.542   1.783  0.00  0.00    +0.000 OA
ATOM      3  C   UNL     1       3.615   0.809  -1.230  0.00  0.00    +0.000 C 
ATOM      4  C   UNL     1       2.257   1.101  -0.742  0.00  0.00    +0.000 C 
ATOM      5  C   UNL     1       4.358   1.742  -0.367  0.00  0.00    +0.000 C 
ATOM      6  C   UNL     1       1.675   1.879   0.125  0.00  0.00    +0.000 C 
ATOM      7  C   UNL     1       4.084   2.620   0.553  0.00  0.00    +0.000 C 
ATOM      8  C   UNL     1       2.623   2.781   0.924  0.00  0.00    +0.000 C 
ENDROOT
BRANCH   6  10
ATOM      9  O   UNL     1      -0.509   0.391  -1.125  0.00  0.00    +0.000 OA
ATOM     10  N   UNL     1       0.330   1.947   0.379  0.00  0.00    +0.000 N 
ATOM     11  C   UNL     1      -0.657   1.221  -0.240  0.00  0.00    +0.000 C 
ATOM     12  H   UNL     1       0.059   2.611   1.102  0.00  0.00    +0.000 HD
BRANCH  11  14
ATOM     13  C   UNL     1      -3.110   1.708   0.622  0.00  0.00    +0.000 C 
ATOM     14  C   UNL     1      -1.994   1.494   0.232  0.00  0.00    +0.000 C 
BRANCH  13  15
ATOM     15  C   UNL     1      -4.426   1.953   1.085  0.00  0.00    +0.000 C 
ATOM     16  C   UNL     1      -4.594   2.700   2.378  0.00  0.00    +0.000 C 
ATOM     17  C   UNL     1      -5.599   1.502   0.448  0.00  0.00    +0.000 C 
ATOM     18  C   UNL     1      -6.781   1.060  -0.180  0.00  0.00    +0.000 C 
ATOM     19  C   UNL     1      -6.692   0.666  -1.625  0.00  0.00    +0.000 C 
ATOM     20  C   UNL     1      -8.027   0.940   0.457  0.00  0.00    +0.000 C 
ATOM     21  C   UNL     1      -9.170   0.823   1.042  0.00  0.00    +0.000 C 
ATOM     22  C   UNL     1     -10.097   1.998   1.087  0.00  0.00    +0.000 C 
ATOM     23  C   UNL     1      -9.411  -0.346   1.946  0.00  0.00    +0.000 C 
ENDBRANCH  13  15
ENDBRANCH  11  14
ENDBRANCH   6  10
BRANCH   3  24
ATOM     24  O   UNL     1       3.729   1.228  -2.574  0.00  0.00    +0.000 OA
ATOM     25  H   UNL     1       3.132   0.654  -3.084  0.00  0.00    +0.000 HD
ENDBRANCH   3  24
BRANCH   3  26
ATOM     26  C   UNL     1       4.018  -0.585  -1.093  0.00  0.00    +0.000 C 
ATOM     27  C   UNL     1       4.436  -2.051  -0.947  0.00  0.00    +0.000 C 
BRANCH  27  28
ATOM     28  C   UNL     1       4.850  -3.518  -0.800  0.00  0.00    +0.000 C 
ATOM     29  C   UNL     1       5.261  -4.986  -0.652  0.00  0.00    +0.000 C 
BRANCH  29  31
ATOM     30  O   UNL     1       6.279  -6.967  -1.359  0.00  0.00    +0.000 OA
ATOM     31  C   UNL     1       5.645  -6.358  -0.515  0.00  0.00    +0.000 C 
BRANCH  31  32
ATOM     32  O   UNL     1       5.243  -6.926   0.636  0.00  0.00    +0.000 OA
ATOM     33  H   UNL     1       5.580  -7.843   0.571  0.00  0.00    +0.000 HD
ENDBRANCH  31  32
ENDBRANCH  29  31
ENDBRANCH  27  28
ENDBRANCH   3  26
TORSDOF 8
