MODEL 1
REMARK VINA RESULT:      -6.7      0.000      0.000
REMARK  Name = 122178712_SalternamideA.pdbqt.pdb
REMARK  8 active torsions:
REMARK  status: ('A' for Active; 'I' for Inactive)
REMARK    1  A    between atoms: C_3  and  O_24
REMARK    2  A    between atoms: C_3  and  C_26
REMARK    3  A    between atoms: C_6  and  N_10
REMARK    4  A    between atoms: C_11  and  C_14
REMARK    5  A    between atoms: C_13  and  C_15
REMARK    6  A    between atoms: C_27  and  C_28
REMARK    7  A    between atoms: C_29  and  C_31
REMARK    8  A    between atoms: C_31  and  O_32
REMARK                            x       y       z     vdW  Elec       q    Type
REMARK                         _______ _______ _______ _____ _____    ______ ____
ROOT
ATOM      1 CL   UNL     1      54.871 -23.768 173.402  0.00  0.00    +0.000 Cl
ATOM      2  O   UNL     1      51.828 -24.108 172.653  0.00  0.00    +0.000 OA
ATOM      3  C   UNL     1      52.978 -20.251 174.189  0.00  0.00    +0.000 C 
ATOM      4  C   UNL     1      51.687 -20.756 173.693  0.00  0.00    +0.000 C 
ATOM      5  C   UNL     1      53.774 -21.475 173.999  0.00  0.00    +0.000 C 
ATOM      6  C   UNL     1      51.185 -21.861 173.220  0.00  0.00    +0.000 C 
ATOM      7  C   UNL     1      53.578 -22.689 173.575  0.00  0.00    +0.000 C 
ATOM      8  C   UNL     1      52.177 -23.024 173.103  0.00  0.00    +0.000 C 
ENDROOT
BRANCH   6  10
ATOM      9  O   UNL     1      50.067 -21.841 170.519  0.00  0.00    +0.000 OA
ATOM     10  N   UNL     1      49.888 -22.057 172.823  0.00  0.00    +0.000 N 
ATOM     11  C   UNL     1      49.416 -22.038 171.534  0.00  0.00    +0.000 C 
ATOM     12  H   UNL     1      49.226 -22.231 173.577  0.00  0.00    +0.000 HD
BRANCH  11  14
ATOM     13  C   UNL     1      46.817 -22.483 171.315  0.00  0.00    +0.000 C 
ATOM     14  C   UNL     1      47.998 -22.281 171.407  0.00  0.00    +0.000 C 
BRANCH  13  15
ATOM     15  C   UNL     1      45.424 -22.715 171.212  0.00  0.00    +0.000 C 
ATOM     16  C   UNL     1      44.965 -24.043 170.679  0.00  0.00    +0.000 C 
ATOM     17  C   UNL     1      44.427 -21.770 171.526  0.00  0.00    +0.000 C 
ATOM     18  C   UNL     1      43.418 -20.837 171.839  0.00  0.00    +0.000 C 
ATOM     19  C   UNL     1      43.794 -19.679 172.716  0.00  0.00    +0.000 C 
ATOM     20  C   UNL     1      42.096 -20.901 171.368  0.00  0.00    +0.000 C 
ATOM     21  C   UNL     1      40.884 -20.955 170.932  0.00  0.00    +0.000 C 
ATOM     22  C   UNL     1      39.860 -21.732 171.700  0.00  0.00    +0.000 C 
ATOM     23  C   UNL     1      40.597 -20.542 169.522  0.00  0.00    +0.000 C 
ENDBRANCH  13  15
ENDBRANCH  11  14
ENDBRANCH   6  10
BRANCH   3  24
ATOM     24  O   UNL     1      52.873 -19.975 175.570  0.00  0.00    +0.000 OA
ATOM     25  H   UNL     1      53.427 -20.637 176.017  0.00  0.00    +0.000 HD
ENDBRANCH   3  24
BRANCH   3  26
ATOM     26  C   UNL     1      53.486 -19.088 173.472  0.00  0.00    +0.000 C 
ATOM     27  C   UNL     1      54.014 -17.864 172.717  0.00  0.00    +0.000 C 
BRANCH  27  28
ATOM     28  C   UNL     1      54.538 -16.639 171.963  0.00  0.00    +0.000 C 
ATOM     29  C   UNL     1      55.062 -15.412 171.211  0.00  0.00    +0.000 C 
BRANCH  29  31
ATOM     30  O   UNL     1      55.677 -13.166 171.018  0.00  0.00    +0.000 OA
ATOM     31  C   UNL     1      55.552 -14.266 170.508  0.00  0.00    +0.000 C 
BRANCH  31  32
ATOM     32  O   UNL     1      55.868 -14.506 169.223  0.00  0.00    +0.000 OA
ATOM     33  H   UNL     1      56.632 -13.916 169.059  0.00  0.00    +0.000 HD
ENDBRANCH  31  32
ENDBRANCH  29  31
ENDBRANCH  27  28
ENDBRANCH   3  26
TORSDOF 8
ENDMDL
MODEL 2
REMARK VINA RESULT:      -6.5     18.127     22.529
REMARK  Name = 122178712_SalternamideA.pdbqt.pdb
REMARK  8 active torsions:
REMARK  status: ('A' for Active; 'I' for Inactive)
REMARK    1  A    between atoms: C_3  and  O_24
REMARK    2  A    between atoms: C_3  and  C_26
REMARK    3  A    between atoms: C_6  and  N_10
REMARK    4  A    between atoms: C_11  and  C_14
REMARK    5  A    between atoms: C_13  and  C_15
REMARK    6  A    between atoms: C_27  and  C_28
REMARK    7  A    between atoms: C_29  and  C_31
REMARK    8  A    between atoms: C_31  and  O_32
REMARK                            x       y       z     vdW  Elec       q    Type
REMARK                         _______ _______ _______ _____ _____    ______ ____
ROOT
ATOM      1 CL   UNL     1      29.365  -8.127 164.186  0.00  0.00    +0.000 Cl
ATOM      2  O   UNL     1      32.384  -7.225 164.092  0.00  0.00    +0.000 OA
ATOM      3  C   UNL     1      31.611 -11.059 165.899  0.00  0.00    +0.000 C 
ATOM      4  C   UNL     1      32.871 -10.344 165.633  0.00  0.00    +0.000 C 
ATOM      5  C   UNL     1      30.678 -10.059 165.353  0.00  0.00    +0.000 C 
ATOM      6  C   UNL     1      33.264  -9.213 165.122  0.00  0.00    +0.000 C 
ATOM      7  C   UNL     1      30.749  -8.882 164.805  0.00  0.00    +0.000 C 
ATOM      8  C   UNL     1      32.138  -8.306 164.612  0.00  0.00    +0.000 C 
ENDROOT
BRANCH   6  10
ATOM      9  O   UNL     1      35.091  -9.514 162.859  0.00  0.00    +0.000 OA
ATOM     10  N   UNL     1      34.561  -8.786 164.999  0.00  0.00    +0.000 N 
ATOM     11  C   UNL     1      35.377  -8.954 163.908  0.00  0.00    +0.000 C 
ATOM     12  H   UNL     1      34.936  -8.300 165.811  0.00  0.00    +0.000 HD
BRANCH  11  14
ATOM     13  C   UNL     1      37.800  -7.923 164.165  0.00  0.00    +0.000 C 
ATOM     14  C   UNL     1      36.701  -8.397 164.053  0.00  0.00    +0.000 C 
BRANCH  13  15
ATOM     15  C   UNL     1      39.091  -7.357 164.297  0.00  0.00    +0.000 C 
ATOM     16  C   UNL     1      40.013  -7.411 163.111  0.00  0.00    +0.000 C 
ATOM     17  C   UNL     1      39.602  -6.788 165.480  0.00  0.00    +0.000 C 
ATOM     18  C   UNL     1      40.125  -6.213 166.656  0.00  0.00    +0.000 C 
ATOM     19  C   UNL     1      39.149  -5.792 167.715  0.00  0.00    +0.000 C 
ATOM     20  C   UNL     1      41.493  -6.029 166.915  0.00  0.00    +0.000 C 
ATOM     21  C   UNL     1      42.749  -5.866 167.158  0.00  0.00    +0.000 C 
ATOM     22  C   UNL     1      43.428  -4.610 166.707  0.00  0.00    +0.000 C 
ATOM     23  C   UNL     1      43.572  -7.048 167.568  0.00  0.00    +0.000 C 
ENDBRANCH  13  15
ENDBRANCH  11  14
ENDBRANCH   6  10
BRANCH   3  24
ATOM     24  O   UNL     1      31.418 -11.162 167.294  0.00  0.00    +0.000 OA
ATOM     25  H   UNL     1      32.307 -11.229 167.682  0.00  0.00    +0.000 HD
ENDBRANCH   3  24
BRANCH   3  26
ATOM     26  C   UNL     1      31.519 -12.371 165.271  0.00  0.00    +0.000 C 
ATOM     27  C   UNL     1      31.420 -13.747 164.607  0.00  0.00    +0.000 C 
BRANCH  27  28
ATOM     28  C   UNL     1      31.320 -15.122 163.940  0.00  0.00    +0.000 C 
ATOM     29  C   UNL     1      31.222 -16.497 163.272  0.00  0.00    +0.000 C 
BRANCH  29  31
ATOM     30  O   UNL     1      31.031 -17.941 161.444  0.00  0.00    +0.000 OA
ATOM     31  C   UNL     1      31.132 -17.782 162.648  0.00  0.00    +0.000 C 
BRANCH  31  32
ATOM     32  O   UNL     1      31.166 -18.812 163.512  0.00  0.00    +0.000 OA
ATOM     33  H   UNL     1      31.908 -19.362 163.186  0.00  0.00    +0.000 HD
ENDBRANCH  31  32
ENDBRANCH  29  31
ENDBRANCH  27  28
ENDBRANCH   3  26
TORSDOF 8
ENDMDL
MODEL 3
REMARK VINA RESULT:      -6.2     28.294     31.607
REMARK  Name = 122178712_SalternamideA.pdbqt.pdb
REMARK  8 active torsions:
REMARK  status: ('A' for Active; 'I' for Inactive)
REMARK    1  A    between atoms: C_3  and  O_24
REMARK    2  A    between atoms: C_3  and  C_26
REMARK    3  A    between atoms: C_6  and  N_10
REMARK    4  A    between atoms: C_11  and  C_14
REMARK    5  A    between atoms: C_13  and  C_15
REMARK    6  A    between atoms: C_27  and  C_28
REMARK    7  A    between atoms: C_29  and  C_31
REMARK    8  A    between atoms: C_31  and  O_32
REMARK                            x       y       z     vdW  Elec       q    Type
REMARK                         _______ _______ _______ _____ _____    ______ ____
ROOT
ATOM      1 CL   UNL     1      30.495 -14.662 202.025  0.00  0.00    +0.000 Cl
ATOM      2  O   UNL     1      31.713 -17.395 201.030  0.00  0.00    +0.000 OA
ATOM      3  C   UNL     1      29.297 -15.251 198.179  0.00  0.00    +0.000 C 
ATOM      4  C   UNL     1      30.058 -16.506 198.062  0.00  0.00    +0.000 C 
ATOM      5  C   UNL     1      29.613 -14.939 199.582  0.00  0.00    +0.000 C 
ATOM      6  C   UNL     1      30.806 -17.270 198.806  0.00  0.00    +0.000 C 
ATOM      7  C   UNL     1      30.293 -15.476 200.553  0.00  0.00    +0.000 C 
ATOM      8  C   UNL     1      31.013 -16.773 200.241  0.00  0.00    +0.000 C 
ENDROOT
BRANCH   6  10
ATOM      9  O   UNL     1      29.808 -20.011 199.006  0.00  0.00    +0.000 OA
ATOM     10  N   UNL     1      31.410 -18.437 198.419  0.00  0.00    +0.000 N 
ATOM     11  C   UNL     1      30.894 -19.704 198.535  0.00  0.00    +0.000 C 
ATOM     12  H   UNL     1      32.336 -18.330 198.008  0.00  0.00    +0.000 HD
BRANCH  11  14
ATOM     13  C   UNL     1      32.465 -21.622 197.613  0.00  0.00    +0.000 C 
ATOM     14  C   UNL     1      31.751 -20.754 198.039  0.00  0.00    +0.000 C 
BRANCH  13  15
ATOM     15  C   UNL     1      33.309 -22.640 197.107  0.00  0.00    +0.000 C 
ATOM     16  C   UNL     1      33.824 -23.676 198.066  0.00  0.00    +0.000 C 
ATOM     17  C   UNL     1      33.750 -22.729 195.771  0.00  0.00    +0.000 C 
ATOM     18  C   UNL     1      34.195 -22.831 194.438  0.00  0.00    +0.000 C 
ATOM     19  C   UNL     1      33.426 -22.081 193.391  0.00  0.00    +0.000 C 
ATOM     20  C   UNL     1      35.320 -23.565 194.026  0.00  0.00    +0.000 C 
ATOM     21  C   UNL     1      36.356 -24.233 193.648  0.00  0.00    +0.000 C 
ATOM     22  C   UNL     1      36.210 -25.682 193.300  0.00  0.00    +0.000 C 
ATOM     23  C   UNL     1      37.719 -23.661 193.884  0.00  0.00    +0.000 C 
ENDBRANCH  13  15
ENDBRANCH  11  14
ENDBRANCH   6  10
BRANCH   3  24
ATOM     24  O   UNL     1      27.917 -15.529 198.064  0.00  0.00    +0.000 OA
ATOM     25  H   UNL     1      27.845 -16.272 197.441  0.00  0.00    +0.000 HD
ENDBRANCH   3  24
BRANCH   3  26
ATOM     26  C   UNL     1      29.691 -14.217 197.231  0.00  0.00    +0.000 C 
ATOM     27  C   UNL     1      30.100 -13.127 196.236  0.00  0.00    +0.000 C 
BRANCH  27  28
ATOM     28  C   UNL     1      30.507 -12.035 195.242  0.00  0.00    +0.000 C 
ATOM     29  C   UNL     1      30.910 -10.941 194.249  0.00  0.00    +0.000 C 
BRANCH  29  31
ATOM     30  O   UNL     1      32.186  -9.121 193.528  0.00  0.00    +0.000 OA
ATOM     31  C   UNL     1      31.287  -9.918 193.322  0.00  0.00    +0.000 C 
BRANCH  31  32
ATOM     32  O   UNL     1      30.560  -9.909 192.191  0.00  0.00    +0.000 OA
ATOM     33  H   UNL     1      31.157  -9.496 191.535  0.00  0.00    +0.000 HD
ENDBRANCH  31  32
ENDBRANCH  29  31
ENDBRANCH  27  28
ENDBRANCH   3  26
TORSDOF 8
ENDMDL
MODEL 4
REMARK VINA RESULT:      -6.2     34.352     38.347
REMARK  Name = 122178712_SalternamideA.pdbqt.pdb
REMARK  8 active torsions:
REMARK  status: ('A' for Active; 'I' for Inactive)
REMARK    1  A    between atoms: C_3  and  O_24
REMARK    2  A    between atoms: C_3  and  C_26
REMARK    3  A    between atoms: C_6  and  N_10
REMARK    4  A    between atoms: C_11  and  C_14
REMARK    5  A    between atoms: C_13  and  C_15
REMARK    6  A    between atoms: C_27  and  C_28
REMARK    7  A    between atoms: C_29  and  C_31
REMARK    8  A    between atoms: C_31  and  O_32
REMARK                            x       y       z     vdW  Elec       q    Type
REMARK                         _______ _______ _______ _____ _____    ______ ____
ROOT
ATOM      1 CL   UNL     1      12.121 -20.773 180.421  0.00  0.00    +0.000 Cl
ATOM      2  O   UNL     1      11.486 -17.686 180.508  0.00  0.00    +0.000 OA
ATOM      3  C   UNL     1      15.067 -18.822 178.399  0.00  0.00    +0.000 C 
ATOM      4  C   UNL     1      14.431 -17.510 178.601  0.00  0.00    +0.000 C 
ATOM      5  C   UNL     1      14.099 -19.646 179.142  0.00  0.00    +0.000 C 
ATOM      6  C   UNL     1      13.389 -17.010 179.201  0.00  0.00    +0.000 C 
ATOM      7  C   UNL     1      13.009 -19.459 179.828  0.00  0.00    +0.000 C 
ATOM      8  C   UNL     1      12.505 -18.033 179.924  0.00  0.00    +0.000 C 
ENDROOT
BRANCH   6  10
ATOM      9  O   UNL     1      13.514 -15.115 181.423  0.00  0.00    +0.000 OA
ATOM     10  N   UNL     1      13.025 -15.689 179.228  0.00  0.00    +0.000 N 
ATOM     11  C   UNL     1      13.107 -14.840 180.304  0.00  0.00    +0.000 C 
ATOM     12  H   UNL     1      12.659 -15.322 178.351  0.00  0.00    +0.000 HD
BRANCH  11  14
ATOM     13  C   UNL     1      12.290 -12.371 179.821  0.00  0.00    +0.000 C 
ATOM     14  C   UNL     1      12.656 -13.493 180.046  0.00  0.00    +0.000 C 
BRANCH  13  15
ATOM     15  C   UNL     1      11.859 -11.050 179.547  0.00  0.00    +0.000 C 
ATOM     16  C   UNL     1      12.441 -10.348 178.353  0.00  0.00    +0.000 C 
ATOM     17  C   UNL     1      10.957 -10.318 180.345  0.00  0.00    +0.000 C 
ATOM     18  C   UNL     1      10.053  -9.574 181.131  0.00  0.00    +0.000 C 
ATOM     19  C   UNL     1       9.172 -10.334 182.079  0.00  0.00    +0.000 C 
ATOM     20  C   UNL     1       9.938  -8.175 181.108  0.00  0.00    +0.000 C 
ATOM     21  C   UNL     1       9.836  -6.890 181.092  0.00  0.00    +0.000 C 
ATOM     22  C   UNL     1       8.912  -6.237 180.111  0.00  0.00    +0.000 C 
ATOM     23  C   UNL     1      10.868  -6.066 181.797  0.00  0.00    +0.000 C 
ENDBRANCH  13  15
ENDBRANCH  11  14
ENDBRANCH   6  10
BRANCH   3  24
ATOM     24  O   UNL     1      16.310 -18.847 179.070  0.00  0.00    +0.000 OA
ATOM     25  H   UNL     1      16.988 -18.868 178.373  0.00  0.00    +0.000 HD
ENDBRANCH   3  24
BRANCH   3  26
ATOM     26  C   UNL     1      15.232 -19.204 177.002  0.00  0.00    +0.000 C 
ATOM     27  C   UNL     1      15.410 -19.603 175.535  0.00  0.00    +0.000 C 
BRANCH  27  28
ATOM     28  C   UNL     1      15.593 -20.002 174.068  0.00  0.00    +0.000 C 
ATOM     29  C   UNL     1      15.773 -20.401 172.600  0.00  0.00    +0.000 C 
BRANCH  29  31
ATOM     30  O   UNL     1      15.186 -20.422 170.338  0.00  0.00    +0.000 OA
ATOM     31  C   UNL     1      15.942 -20.772 171.228  0.00  0.00    +0.000 C 
BRANCH  31  32
ATOM     32  O   UNL     1      17.016 -21.549 170.999  0.00  0.00    +0.000 OA
ATOM     33  H   UNL     1      17.550 -21.450 171.814  0.00  0.00    +0.000 HD
ENDBRANCH  31  32
ENDBRANCH  29  31
ENDBRANCH  27  28
ENDBRANCH   3  26
TORSDOF 8
ENDMDL
MODEL 5
REMARK VINA RESULT:      -5.7     35.507     38.789
REMARK  Name = 122178712_SalternamideA.pdbqt.pdb
REMARK  8 active torsions:
REMARK  status: ('A' for Active; 'I' for Inactive)
REMARK    1  A    between atoms: C_3  and  O_24
REMARK    2  A    between atoms: C_3  and  C_26
REMARK    3  A    between atoms: C_6  and  N_10
REMARK    4  A    between atoms: C_11  and  C_14
REMARK    5  A    between atoms: C_13  and  C_15
REMARK    6  A    between atoms: C_27  and  C_28
REMARK    7  A    between atoms: C_29  and  C_31
REMARK    8  A    between atoms: C_31  and  O_32
REMARK                            x       y       z     vdW  Elec       q    Type
REMARK                         _______ _______ _______ _____ _____    ______ ____
ROOT
ATOM      1 CL   UNL     1       8.236 -10.566 178.156  0.00  0.00    +0.000 Cl
ATOM      2  O   UNL     1       9.459  -9.422 175.484  0.00  0.00    +0.000 OA
ATOM      3  C   UNL     1      12.287 -10.915 178.372  0.00  0.00    +0.000 C 
ATOM      4  C   UNL     1      12.474 -10.367 177.018  0.00  0.00    +0.000 C 
ATOM      5  C   UNL     1      10.821 -10.802 178.447  0.00  0.00    +0.000 C 
ATOM      6  C   UNL     1      11.752  -9.878 176.052  0.00  0.00    +0.000 C 
ATOM      7  C   UNL     1       9.854 -10.371 177.691  0.00  0.00    +0.000 C 
ATOM      8  C   UNL     1      10.244  -9.841 176.326  0.00  0.00    +0.000 C 
ENDROOT
BRANCH   6  10
ATOM      9  O   UNL     1      11.945 -11.288 173.498  0.00  0.00    +0.000 OA
ATOM     10  N   UNL     1      12.214  -9.418 174.846  0.00  0.00    +0.000 N 
ATOM     11  C   UNL     1      12.282 -10.126 173.672  0.00  0.00    +0.000 C 
ATOM     12  H   UNL     1      12.536  -8.452 174.846  0.00  0.00    +0.000 HD
BRANCH  11  14
ATOM     13  C   UNL     1      13.244  -8.760 171.621  0.00  0.00    +0.000 C 
ATOM     14  C   UNL     1      12.810  -9.387 172.550  0.00  0.00    +0.000 C 
BRANCH  13  15
ATOM     15  C   UNL     1      13.755  -8.015 170.531  0.00  0.00    +0.000 C 
ATOM     16  C   UNL     1      12.803  -7.150 169.756  0.00  0.00    +0.000 C 
ATOM     17  C   UNL     1      15.089  -8.063 170.081  0.00  0.00    +0.000 C 
ATOM     18  C   UNL     1      16.422  -8.098 169.621  0.00  0.00    +0.000 C 
ATOM     19  C   UNL     1      17.466  -8.621 170.563  0.00  0.00    +0.000 C 
ATOM     20  C   UNL     1      16.835  -7.702 168.338  0.00  0.00    +0.000 C 
ATOM     21  C   UNL     1      17.215  -7.345 167.159  0.00  0.00    +0.000 C 
ATOM     22  C   UNL     1      17.576  -5.915 166.904  0.00  0.00    +0.000 C 
ATOM     23  C   UNL     1      16.967  -8.264 166.003  0.00  0.00    +0.000 C 
ENDBRANCH  13  15
ENDBRANCH  11  14
ENDBRANCH   6  10
BRANCH   3  24
ATOM     24  O   UNL     1      12.869 -10.040 179.316  0.00  0.00    +0.000 OA
ATOM     25  H   UNL     1      13.191  -9.275 178.808  0.00  0.00    +0.000 HD
ENDBRANCH   3  24
BRANCH   3  26
ATOM     26  C   UNL     1      12.794 -12.270 178.549  0.00  0.00    +0.000 C 
ATOM     27  C   UNL     1      13.324 -13.694 178.741  0.00  0.00    +0.000 C 
BRANCH  27  28
ATOM     28  C   UNL     1      13.851 -15.118 178.935  0.00  0.00    +0.000 C 
ATOM     29  C   UNL     1      14.379 -16.542 179.133  0.00  0.00    +0.000 C 
BRANCH  29  31
ATOM     30  O   UNL     1      14.684 -18.525 180.331  0.00  0.00    +0.000 OA
ATOM     31  C   UNL     1      14.870 -17.874 179.318  0.00  0.00    +0.000 C 
BRANCH  31  32
ATOM     32  O   UNL     1      15.563 -18.351 178.269  0.00  0.00    +0.000 OA
ATOM     33  H   UNL     1      15.895 -17.544 177.824  0.00  0.00    +0.000 HD
ENDBRANCH  31  32
ENDBRANCH  29  31
ENDBRANCH  27  28
ENDBRANCH   3  26
TORSDOF 8
ENDMDL
MODEL 6
REMARK VINA RESULT:      -5.6     19.188     22.412
REMARK  Name = 122178712_SalternamideA.pdbqt.pdb
REMARK  8 active torsions:
REMARK  status: ('A' for Active; 'I' for Inactive)
REMARK    1  A    between atoms: C_3  and  O_24
REMARK    2  A    between atoms: C_3  and  C_26
REMARK    3  A    between atoms: C_6  and  N_10
REMARK    4  A    between atoms: C_11  and  C_14
REMARK    5  A    between atoms: C_13  and  C_15
REMARK    6  A    between atoms: C_27  and  C_28
REMARK    7  A    between atoms: C_29  and  C_31
REMARK    8  A    between atoms: C_31  and  O_32
REMARK                            x       y       z     vdW  Elec       q    Type
REMARK                         _______ _______ _______ _____ _____    ______ ____
ROOT
ATOM      1 CL   UNL     1      54.411  -0.473 178.565  0.00  0.00    +0.000 Cl
ATOM      2  O   UNL     1      52.412   0.234 180.900  0.00  0.00    +0.000 OA
ATOM      3  C   UNL     1      52.495  -3.893 179.664  0.00  0.00    +0.000 C 
ATOM      4  C   UNL     1      51.747  -3.211 180.733  0.00  0.00    +0.000 C 
ATOM      5  C   UNL     1      53.222  -2.727 179.135  0.00  0.00    +0.000 C 
ATOM      6  C   UNL     1      51.604  -2.010 181.215  0.00  0.00    +0.000 C 
ATOM      7  C   UNL     1      53.292  -1.451 179.378  0.00  0.00    +0.000 C 
ATOM      8  C   UNL     1      52.445  -0.931 180.523  0.00  0.00    +0.000 C 
ENDROOT
BRANCH   6  10
ATOM      9  O   UNL     1      49.045  -0.599 181.160  0.00  0.00    +0.000 OA
ATOM     10  N   UNL     1      50.798  -1.647 182.262  0.00  0.00    +0.000 N 
ATOM     11  C   UNL     1      49.599  -0.983 182.180  0.00  0.00    +0.000 C 
ATOM     12  H   UNL     1      51.145  -1.904 183.185  0.00  0.00    +0.000 HD
BRANCH  11  14
ATOM     13  C   UNL     1      48.425  -0.537 184.508  0.00  0.00    +0.000 C 
ATOM     14  C   UNL     1      48.959  -0.732 183.449  0.00  0.00    +0.000 C 
BRANCH  13  15
ATOM     15  C   UNL     1      47.800  -0.313 185.759  0.00  0.00    +0.000 C 
ATOM     16  C   UNL     1      48.207  -1.179 186.918  0.00  0.00    +0.000 C 
ATOM     17  C   UNL     1      46.781   0.631 185.990  0.00  0.00    +0.000 C 
ATOM     18  C   UNL     1      45.762   1.574 186.237  0.00  0.00    +0.000 C 
ATOM     19  C   UNL     1      45.600   2.693 185.251  0.00  0.00    +0.000 C 
ATOM     20  C   UNL     1      44.876   1.526 187.326  0.00  0.00    +0.000 C 
ATOM     21  C   UNL     1      44.058   1.479 188.321  0.00  0.00    +0.000 C 
ATOM     22  C   UNL     1      44.436   2.130 189.616  0.00  0.00    +0.000 C 
ATOM     23  C   UNL     1      42.920   0.507 188.285  0.00  0.00    +0.000 C 
ENDBRANCH  13  15
ENDBRANCH  11  14
ENDBRANCH   6  10
BRANCH   3  24
ATOM     24  O   UNL     1      51.591  -4.361 178.686  0.00  0.00    +0.000 OA
ATOM     25  H   UNL     1      51.018  -3.606 178.468  0.00  0.00    +0.000 HD
ENDBRANCH   3  24
BRANCH   3  26
ATOM     26  C   UNL     1      53.355  -4.976 180.127  0.00  0.00    +0.000 C 
ATOM     27  C   UNL     1      54.259  -6.110 180.617  0.00  0.00    +0.000 C 
BRANCH  27  28
ATOM     28  C   UNL     1      55.164  -7.242 181.111  0.00  0.00    +0.000 C 
ATOM     29  C   UNL     1      56.068  -8.374 181.608  0.00  0.00    +0.000 C 
BRANCH  29  31
ATOM     30  O   UNL     1      56.609 -10.186 182.981  0.00  0.00    +0.000 OA
ATOM     31  C   UNL     1      56.912  -9.433 182.072  0.00  0.00    +0.000 C 
BRANCH  31  32
ATOM     32  O   UNL     1      58.080  -9.530 181.413  0.00  0.00    +0.000 OA
ATOM     33  H   UNL     1      57.852 -10.043 180.611  0.00  0.00    +0.000 HD
ENDBRANCH  31  32
ENDBRANCH  29  31
ENDBRANCH  27  28
ENDBRANCH   3  26
TORSDOF 8
ENDMDL
MODEL 7
REMARK VINA RESULT:      -5.5     34.657     38.336
REMARK  Name = 122178712_SalternamideA.pdbqt.pdb
REMARK  8 active torsions:
REMARK  status: ('A' for Active; 'I' for Inactive)
REMARK    1  A    between atoms: C_3  and  O_24
REMARK    2  A    between atoms: C_3  and  C_26
REMARK    3  A    between atoms: C_6  and  N_10
REMARK    4  A    between atoms: C_11  and  C_14
REMARK    5  A    between atoms: C_13  and  C_15
REMARK    6  A    between atoms: C_27  and  C_28
REMARK    7  A    between atoms: C_29  and  C_31
REMARK    8  A    between atoms: C_31  and  O_32
REMARK                            x       y       z     vdW  Elec       q    Type
REMARK                         _______ _______ _______ _____ _____    ______ ____
ROOT
ATOM      1 CL   UNL     1       8.365 -14.045 178.645  0.00  0.00    +0.000 Cl
ATOM      2  O   UNL     1       9.303 -12.310 176.185  0.00  0.00    +0.000 OA
ATOM      3  C   UNL     1      12.378 -13.446 178.981  0.00  0.00    +0.000 C 
ATOM      4  C   UNL     1      12.441 -12.699 177.713  0.00  0.00    +0.000 C 
ATOM      5  C   UNL     1      10.927 -13.695 179.010  0.00  0.00    +0.000 C 
ATOM      6  C   UNL     1      11.632 -12.277 176.785  0.00  0.00    +0.000 C 
ATOM      7  C   UNL     1       9.892 -13.413 178.273  0.00  0.00    +0.000 C 
ATOM      8  C   UNL     1      10.157 -12.635 177.000  0.00  0.00    +0.000 C 
ENDROOT
BRANCH   6  10
ATOM      9  O   UNL     1      12.642  -9.541 176.579  0.00  0.00    +0.000 OA
ATOM     10  N   UNL     1      11.982 -11.569 175.664  0.00  0.00    +0.000 N 
ATOM     11  C   UNL     1      12.455 -10.281 175.625  0.00  0.00    +0.000 C 
ATOM     12  H   UNL     1      11.871 -12.070 174.784  0.00  0.00    +0.000 HD
BRANCH  11  14
ATOM     13  C   UNL     1      12.987  -9.385 173.194  0.00  0.00    +0.000 C 
ATOM     14  C   UNL     1      12.749  -9.786 174.301  0.00  0.00    +0.000 C 
BRANCH  13  15
ATOM     15  C   UNL     1      13.259  -8.913 171.886  0.00  0.00    +0.000 C 
ATOM     16  C   UNL     1      12.193  -8.122 171.182  0.00  0.00    +0.000 C 
ATOM     17  C   UNL     1      14.443  -9.175 171.168  0.00  0.00    +0.000 C 
ATOM     18  C   UNL     1      15.623  -9.426 170.439  0.00  0.00    +0.000 C 
ATOM     19  C   UNL     1      16.835  -9.859 171.211  0.00  0.00    +0.000 C 
ATOM     20  C   UNL     1      15.737  -9.322 169.043  0.00  0.00    +0.000 C 
ATOM     21  C   UNL     1      15.841  -9.234 167.761  0.00  0.00    +0.000 C 
ATOM     22  C   UNL     1      16.202  -7.920 167.141  0.00  0.00    +0.000 C 
ATOM     23  C   UNL     1      15.279 -10.327 166.906  0.00  0.00    +0.000 C 
ENDBRANCH  13  15
ENDBRANCH  11  14
ENDBRANCH   6  10
BRANCH   3  24
ATOM     24  O   UNL     1      12.722 -12.586 180.047  0.00  0.00    +0.000 OA
ATOM     25  H   UNL     1      11.966 -12.603 180.659  0.00  0.00    +0.000 HD
ENDBRANCH   3  24
BRANCH   3  26
ATOM     26  C   UNL     1      13.195 -14.652 179.012  0.00  0.00    +0.000 C 
ATOM     27  C   UNL     1      14.050 -15.922 179.040  0.00  0.00    +0.000 C 
BRANCH  27  28
ATOM     28  C   UNL     1      14.905 -17.193 179.063  0.00  0.00    +0.000 C 
ATOM     29  C   UNL     1      15.756 -18.465 179.087  0.00  0.00    +0.000 C 
BRANCH  29  31
ATOM     30  O   UNL     1      17.227 -20.030 178.166  0.00  0.00    +0.000 OA
ATOM     31  C   UNL     1      16.552 -19.655 179.108  0.00  0.00    +0.000 C 
BRANCH  31  32
ATOM     32  O   UNL     1      16.492 -20.332 180.269  0.00  0.00    +0.000 OA
ATOM     33  H   UNL     1      15.900 -21.085 180.066  0.00  0.00    +0.000 HD
ENDBRANCH  31  32
ENDBRANCH  29  31
ENDBRANCH  27  28
ENDBRANCH   3  26
TORSDOF 8
ENDMDL
MODEL 8
REMARK VINA RESULT:      -5.5     12.707     16.770
REMARK  Name = 122178712_SalternamideA.pdbqt.pdb
REMARK  8 active torsions:
REMARK  status: ('A' for Active; 'I' for Inactive)
REMARK    1  A    between atoms: C_3  and  O_24
REMARK    2  A    between atoms: C_3  and  C_26
REMARK    3  A    between atoms: C_6  and  N_10
REMARK    4  A    between atoms: C_11  and  C_14
REMARK    5  A    between atoms: C_13  and  C_15
REMARK    6  A    between atoms: C_27  and  C_28
REMARK    7  A    between atoms: C_29  and  C_31
REMARK    8  A    between atoms: C_31  and  O_32
REMARK                            x       y       z     vdW  Elec       q    Type
REMARK                         _______ _______ _______ _____ _____    ______ ____
ROOT
ATOM      1 CL   UNL     1      58.528 -22.053 186.013  0.00  0.00    +0.000 Cl
ATOM      2  O   UNL     1      57.054 -19.442 186.989  0.00  0.00    +0.000 OA
ATOM      3  C   UNL     1      56.183 -20.714 182.966  0.00  0.00    +0.000 C 
ATOM      4  C   UNL     1      55.657 -19.599 183.770  0.00  0.00    +0.000 C 
ATOM      5  C   UNL     1      57.109 -21.278 183.962  0.00  0.00    +0.000 C 
ATOM      6  C   UNL     1      55.818 -19.087 184.956  0.00  0.00    +0.000 C 
ATOM      7  C   UNL     1      57.488 -21.009 185.177  0.00  0.00    +0.000 C 
ATOM      8  C   UNL     1      56.832 -19.817 185.845  0.00  0.00    +0.000 C 
ENDROOT
BRANCH   6  10
ATOM      9  O   UNL     1      56.671 -16.291 184.976  0.00  0.00    +0.000 OA
ATOM     10  N   UNL     1      55.168 -17.991 185.461  0.00  0.00    +0.000 N 
ATOM     11  C   UNL     1      55.616 -16.694 185.443  0.00  0.00    +0.000 C 
ATOM     12  H   UNL     1      54.264 -18.183 185.890  0.00  0.00    +0.000 HD
BRANCH  11  14
ATOM     13  C   UNL     1      53.962 -14.948 186.547  0.00  0.00    +0.000 C 
ATOM     14  C   UNL     1      54.719 -15.736 186.046  0.00  0.00    +0.000 C 
BRANCH  13  15
ATOM     15  C   UNL     1      53.067 -14.026 187.142  0.00  0.00    +0.000 C 
ATOM     16  C   UNL     1      51.617 -14.408 187.238  0.00  0.00    +0.000 C 
ATOM     17  C   UNL     1      53.425 -12.746 187.609  0.00  0.00    +0.000 C 
ATOM     18  C   UNL     1      53.770 -11.464 188.083  0.00  0.00    +0.000 C 
ATOM     19  C   UNL     1      55.219 -11.195 188.362  0.00  0.00    +0.000 C 
ATOM     20  C   UNL     1      52.857 -10.416 188.288  0.00  0.00    +0.000 C 
ATOM     21  C   UNL     1      52.021  -9.452 188.470  0.00  0.00    +0.000 C 
ATOM     22  C   UNL     1      51.322  -9.323 189.788  0.00  0.00    +0.000 C 
ATOM     23  C   UNL     1      51.511  -8.694 187.283  0.00  0.00    +0.000 C 
ENDBRANCH  13  15
ENDBRANCH  11  14
ENDBRANCH   6  10
BRANCH   3  24
ATOM     24  O   UNL     1      56.926 -20.199 181.880  0.00  0.00    +0.000 OA
ATOM     25  H   UNL     1      57.484 -19.494 182.250  0.00  0.00    +0.000 HD
ENDBRANCH   3  24
BRANCH   3  26
ATOM     26  C   UNL     1      55.169 -21.648 182.495  0.00  0.00    +0.000 C 
ATOM     27  C   UNL     1      54.107 -22.634 181.998  0.00  0.00    +0.000 C 
BRANCH  27  28
ATOM     28  C   UNL     1      53.048 -23.622 181.501  0.00  0.00    +0.000 C 
ATOM     29  C   UNL     1      51.990 -24.613 181.006  0.00  0.00    +0.000 C 
BRANCH  29  31
ATOM     30  O   UNL     1      51.190 -26.738 180.455  0.00  0.00    +0.000 OA
ATOM     31  C   UNL     1      51.000 -25.538 180.544  0.00  0.00    +0.000 C 
BRANCH  31  32
ATOM     32  O   UNL     1      49.829 -24.965 180.213  0.00  0.00    +0.000 OA
ATOM     33  H   UNL     1      49.181 -25.693 180.306  0.00  0.00    +0.000 HD
ENDBRANCH  31  32
ENDBRANCH  29  31
ENDBRANCH  27  28
ENDBRANCH   3  26
TORSDOF 8
ENDMDL
MODEL 9
REMARK VINA RESULT:      -5.4     49.996     53.239
REMARK  Name = 122178712_SalternamideA.pdbqt.pdb
REMARK  8 active torsions:
REMARK  status: ('A' for Active; 'I' for Inactive)
REMARK    1  A    between atoms: C_3  and  O_24
REMARK    2  A    between atoms: C_3  and  C_26
REMARK    3  A    between atoms: C_6  and  N_10
REMARK    4  A    between atoms: C_11  and  C_14
REMARK    5  A    between atoms: C_13  and  C_15
REMARK    6  A    between atoms: C_27  and  C_28
REMARK    7  A    between atoms: C_29  and  C_31
REMARK    8  A    between atoms: C_31  and  O_32
REMARK                            x       y       z     vdW  Elec       q    Type
REMARK                         _______ _______ _______ _____ _____    ______ ____
ROOT
ATOM      1 CL   UNL     1       7.902   9.549 176.096  0.00  0.00    +0.000 Cl
ATOM      2  O   UNL     1      10.116  11.781 176.345  0.00  0.00    +0.000 OA
ATOM      3  C   UNL     1       7.064  11.797 179.385  0.00  0.00    +0.000 C 
ATOM      4  C   UNL     1       8.263  12.632 179.205  0.00  0.00    +0.000 C 
ATOM      5  C   UNL     1       7.220  10.938 178.200  0.00  0.00    +0.000 C 
ATOM      6  C   UNL     1       9.248  12.760 178.364  0.00  0.00    +0.000 C 
ATOM      7  C   UNL     1       8.051  10.820 177.206  0.00  0.00    +0.000 C 
ATOM      8  C   UNL     1       9.230  11.772 177.191  0.00  0.00    +0.000 C 
ENDROOT
BRANCH   6  10
ATOM      9  O   UNL     1       9.296  15.555 177.508  0.00  0.00    +0.000 OA
ATOM     10  N   UNL     1      10.271  13.668 178.445  0.00  0.00    +0.000 N 
ATOM     11  C   UNL     1      10.239  14.975 178.026  0.00  0.00    +0.000 C 
ATOM     12  H   UNL     1      11.132  13.315 178.859  0.00  0.00    +0.000 HD
BRANCH  11  14
ATOM     13  C   UNL     1      12.486  16.319 178.403  0.00  0.00    +0.000 C 
ATOM     14  C   UNL     1      11.465  15.708 178.240  0.00  0.00    +0.000 C 
BRANCH  13  15
ATOM     15  C   UNL     1      13.688  17.045 178.590  0.00  0.00    +0.000 C 
ATOM     16  C   UNL     1      13.661  18.235 179.508  0.00  0.00    +0.000 C 
ATOM     17  C   UNL     1      14.905  16.767 177.937  0.00  0.00    +0.000 C 
ATOM     18  C   UNL     1      16.129  16.498 177.293  0.00  0.00    +0.000 C 
ATOM     19  C   UNL     1      16.311  15.136 176.691  0.00  0.00    +0.000 C 
ATOM     20  C   UNL     1      17.179  17.422 177.154  0.00  0.00    +0.000 C 
ATOM     21  C   UNL     1      18.140  18.271 177.021  0.00  0.00    +0.000 C 
ATOM     22  C   UNL     1      19.177  18.383 178.095  0.00  0.00    +0.000 C 
ATOM     23  C   UNL     1      18.024  19.348 175.987  0.00  0.00    +0.000 C 
ENDBRANCH  13  15
ENDBRANCH  11  14
ENDBRANCH   6  10
BRANCH   3  24
ATOM     24  O   UNL     1       5.910  12.596 179.231  0.00  0.00    +0.000 OA
ATOM     25  H   UNL     1       5.290  12.306 179.922  0.00  0.00    +0.000 HD
ENDBRANCH   3  24
BRANCH   3  26
ATOM     26  C   UNL     1       7.019  11.072 180.649  0.00  0.00    +0.000 C 
ATOM     27  C   UNL     1       6.970  10.305 181.974  0.00  0.00    +0.000 C 
BRANCH  27  28
ATOM     28  C   UNL     1       6.921   9.535 183.297  0.00  0.00    +0.000 C 
ATOM     29  C   UNL     1       6.874   8.763 184.619  0.00  0.00    +0.000 C 
BRANCH  29  31
ATOM     30  O   UNL     1       5.830   7.494 186.280  0.00  0.00    +0.000 OA
ATOM     31  C   UNL     1       6.832   8.042 185.855  0.00  0.00    +0.000 C 
BRANCH  31  32
ATOM     32  O   UNL     1       8.003   8.021 186.516  0.00  0.00    +0.000 OA
ATOM     33  H   UNL     1       8.672   8.020 185.801  0.00  0.00    +0.000 HD
ENDBRANCH  31  32
ENDBRANCH  29  31
ENDBRANCH  27  28
ENDBRANCH   3  26
TORSDOF 8
ENDMDL
