MODEL 1
REMARK VINA RESULT:      -6.5      0.000      0.000
REMARK  Name = 122180587_TripolinolateA.pdbqt.pdb
REMARK  9 active torsions:
REMARK  status: ('A' for Active; 'I' for Inactive)
REMARK    1  A    between atoms: C_1  and  O_16
REMARK    2  A    between atoms: C_2  and  O_7
REMARK    3  A    between atoms: C_3  and  C_9
REMARK    4  A    between atoms: C_10  and  C_11
REMARK    5  A    between atoms: C_11  and  O_12
REMARK    6  A    between atoms: O_12  and  C_14
REMARK    7  A    between atoms: O_16  and  C_18
REMARK    8  A    between atoms: C_18  and  C_19
REMARK    9  A    between atoms: C_19  and  C_21
REMARK                            x       y       z     vdW  Elec       q    Type
REMARK                         _______ _______ _______ _____ _____    ______ ____
ROOT
ATOM      1  C   UNL     1      20.600   4.170 188.354  0.00  0.00    +0.000 A 
ATOM      2  C   UNL     1      21.530   3.976 189.380  0.00  0.00    +0.000 A 
ATOM      3  C   UNL     1      19.853   2.697 190.579  0.00  0.00    +0.000 A 
ATOM      4  C   UNL     1      19.301   3.667 188.441  0.00  0.00    +0.000 A 
ATOM      5  C   UNL     1      21.141   3.227 190.493  0.00  0.00    +0.000 A 
ATOM      6  C   UNL     1      18.933   2.919 189.556  0.00  0.00    +0.000 A 
ENDROOT
BRANCH   2   7
ATOM      7  O   UNL     1      22.764   4.556 189.230  0.00  0.00    +0.000 OA
ATOM      8  C   UNL     1      23.781   4.039 190.042  0.00  0.00    +0.000 C 
ENDBRANCH   2   7
BRANCH   3   9
ATOM      9  C   UNL     1      19.476   1.931 191.721  0.00  0.00    +0.000 C 
ATOM     10  C   UNL     1      19.159   1.285 192.683  0.00  0.00    +0.000 C 
BRANCH  10  11
ATOM     11  C   UNL     1      18.758   0.458 193.909  0.00  0.00    +0.000 C 
BRANCH  11  12
ATOM     12  O   UNL     1      18.409  -0.259 194.974  0.00  0.00    +0.000 OA
BRANCH  12  14
ATOM     13  O   UNL     1      17.741   0.720 196.990  0.00  0.00    +0.000 OA
ATOM     14  C   UNL     1      18.557   0.367 196.158  0.00  0.00    +0.000 C 
ATOM     15  C   UNL     1      19.970   0.686 196.514  0.00  0.00    +0.000 C 
ENDBRANCH  12  14
ENDBRANCH  11  12
ENDBRANCH  10  11
ENDBRANCH   3   9
BRANCH   1  16
ATOM     16  O   UNL     1      20.939   4.960 187.246  0.00  0.00    +0.000 OA
BRANCH  16  18
ATOM     17  O   UNL     1      20.118   3.453 185.676  0.00  0.00    +0.000 OA
ATOM     18  C   UNL     1      20.968   4.251 186.051  0.00  0.00    +0.000 C 
BRANCH  18  19
ATOM     19  C   UNL     1      22.191   4.578 185.278  0.00  0.00    +0.000 C 
ATOM     20  C   UNL     1      23.529   4.909 185.926  0.00  0.00    +0.000 C 
BRANCH  19  21
ATOM     21  C   UNL     1      22.130   4.582 183.860  0.00  0.00    +0.000 C 
ATOM     22  C   UNL     1      22.061   4.577 182.321  0.00  0.00    +0.000 C 
ENDBRANCH  19  21
ENDBRANCH  18  19
ENDBRANCH  16  18
ENDBRANCH   1  16
TORSDOF 9
ENDMDL
MODEL 2
REMARK VINA RESULT:      -6.5      4.147      5.054
REMARK  Name = 122180587_TripolinolateA.pdbqt.pdb
REMARK  9 active torsions:
REMARK  status: ('A' for Active; 'I' for Inactive)
REMARK    1  A    between atoms: C_1  and  O_16
REMARK    2  A    between atoms: C_2  and  O_7
REMARK    3  A    between atoms: C_3  and  C_9
REMARK    4  A    between atoms: C_10  and  C_11
REMARK    5  A    between atoms: C_11  and  O_12
REMARK    6  A    between atoms: O_12  and  C_14
REMARK    7  A    between atoms: O_16  and  C_18
REMARK    8  A    between atoms: C_18  and  C_19
REMARK    9  A    between atoms: C_19  and  C_21
REMARK                            x       y       z     vdW  Elec       q    Type
REMARK                         _______ _______ _______ _____ _____    ______ ____
ROOT
ATOM      1  C   UNL     1      20.597   2.286 188.725  0.00  0.00    +0.000 A 
ATOM      2  C   UNL     1      20.459   2.164 190.112  0.00  0.00    +0.000 A 
ATOM      3  C   UNL     1      22.493   0.842 190.140  0.00  0.00    +0.000 A 
ATOM      4  C   UNL     1      21.647   1.671 188.040  0.00  0.00    +0.000 A 
ATOM      5  C   UNL     1      21.426   1.438 190.812  0.00  0.00    +0.000 A 
ATOM      6  C   UNL     1      22.602   0.955 188.755  0.00  0.00    +0.000 A 
ENDROOT
BRANCH   2   7
ATOM      7  O   UNL     1      19.365   2.756 190.690  0.00  0.00    +0.000 OA
ATOM      8  C   UNL     1      18.718   2.002 191.677  0.00  0.00    +0.000 C 
ENDBRANCH   2   7
BRANCH   3   9
ATOM      9  C   UNL     1      23.472   0.109 190.872  0.00  0.00    +0.000 C 
ATOM     10  C   UNL     1      24.296  -0.509 191.490  0.00  0.00    +0.000 C 
BRANCH  10  11
ATOM     11  C   UNL     1      25.345  -1.297 192.282  0.00  0.00    +0.000 C 
BRANCH  11  12
ATOM     12  O   UNL     1      26.254  -1.984 192.969  0.00  0.00    +0.000 OA
BRANCH  12  14
ATOM     13  O   UNL     1      25.427  -1.275 195.038  0.00  0.00    +0.000 OA
ATOM     14  C   UNL     1      26.066  -2.005 194.303  0.00  0.00    +0.000 C 
ATOM     15  C   UNL     1      26.764  -3.121 195.006  0.00  0.00    +0.000 C 
ENDBRANCH  12  14
ENDBRANCH  11  12
ENDBRANCH  10  11
ENDBRANCH   3   9
BRANCH   1  16
ATOM     16  O   UNL     1      19.619   2.963 187.984  0.00  0.00    +0.000 OA
BRANCH  16  18
ATOM     17  O   UNL     1      20.254   3.898 185.951  0.00  0.00    +0.000 OA
ATOM     18  C   UNL     1      20.137   3.961 187.169  0.00  0.00    +0.000 C 
BRANCH  18  19
ATOM     19  C   UNL     1      20.555   5.133 187.978  0.00  0.00    +0.000 C 
ATOM     20  C   UNL     1      19.584   5.979 188.792  0.00  0.00    +0.000 C 
BRANCH  19  21
ATOM     21  C   UNL     1      21.927   5.495 188.011  0.00  0.00    +0.000 C 
ATOM     22  C   UNL     1      23.416   5.886 188.054  0.00  0.00    +0.000 C 
ENDBRANCH  19  21
ENDBRANCH  18  19
ENDBRANCH  16  18
ENDBRANCH   1  16
TORSDOF 9
ENDMDL
MODEL 3
REMARK VINA RESULT:      -6.5      2.300      3.814
REMARK  Name = 122180587_TripolinolateA.pdbqt.pdb
REMARK  9 active torsions:
REMARK  status: ('A' for Active; 'I' for Inactive)
REMARK    1  A    between atoms: C_1  and  O_16
REMARK    2  A    between atoms: C_2  and  O_7
REMARK    3  A    between atoms: C_3  and  C_9
REMARK    4  A    between atoms: C_10  and  C_11
REMARK    5  A    between atoms: C_11  and  O_12
REMARK    6  A    between atoms: O_12  and  C_14
REMARK    7  A    between atoms: O_16  and  C_18
REMARK    8  A    between atoms: C_18  and  C_19
REMARK    9  A    between atoms: C_19  and  C_21
REMARK                            x       y       z     vdW  Elec       q    Type
REMARK                         _______ _______ _______ _____ _____    ______ ____
ROOT
ATOM      1  C   UNL     1      20.104   1.186 190.586  0.00  0.00    +0.000 A 
ATOM      2  C   UNL     1      21.098   0.762 191.474  0.00  0.00    +0.000 A 
ATOM      3  C   UNL     1      19.455   0.834 193.258  0.00  0.00    +0.000 A 
ATOM      4  C   UNL     1      18.807   1.465 191.022  0.00  0.00    +0.000 A 
ATOM      5  C   UNL     1      20.755   0.584 192.817  0.00  0.00    +0.000 A 
ATOM      6  C   UNL     1      18.483   1.278 192.363  0.00  0.00    +0.000 A 
ENDROOT
BRANCH   2   7
ATOM      7  O   UNL     1      22.357   0.567 190.964  0.00  0.00    +0.000 OA
ATOM      8  C   UNL     1      23.071  -0.509 191.506  0.00  0.00    +0.000 C 
ENDBRANCH   2   7
BRANCH   3   9
ATOM      9  C   UNL     1      19.122   0.642 194.631  0.00  0.00    +0.000 C 
ATOM     10  C   UNL     1      18.843   0.480 195.788  0.00  0.00    +0.000 C 
BRANCH  10  11
ATOM     11  C   UNL     1      18.488   0.268 197.263  0.00  0.00    +0.000 C 
BRANCH  11  12
ATOM     12  O   UNL     1      18.178   0.083 198.544  0.00  0.00    +0.000 OA
BRANCH  12  14
ATOM     13  O   UNL     1      16.206  -0.906 199.318  0.00  0.00    +0.000 OA
ATOM     14  C   UNL     1      16.860  -0.017 198.805  0.00  0.00    +0.000 C 
ATOM     15  C   UNL     1      16.058   1.171 198.391  0.00  0.00    +0.000 C 
ENDBRANCH  12  14
ENDBRANCH  11  12
ENDBRANCH  10  11
ENDBRANCH   3   9
BRANCH   1  16
ATOM     16  O   UNL     1      20.425   1.425 189.243  0.00  0.00    +0.000 OA
BRANCH  16  18
ATOM     17  O   UNL     1      20.826   3.702 189.495  0.00  0.00    +0.000 OA
ATOM     18  C   UNL     1      20.331   2.764 188.883  0.00  0.00    +0.000 C 
BRANCH  18  19
ATOM     19  C   UNL     1      19.525   2.918 187.646  0.00  0.00    +0.000 C 
ATOM     20  C   UNL     1      18.015   2.727 187.600  0.00  0.00    +0.000 C 
BRANCH  19  21
ATOM     21  C   UNL     1      20.180   3.266 186.436  0.00  0.00    +0.000 C 
ATOM     22  C   UNL     1      20.895   3.637 185.123  0.00  0.00    +0.000 C 
ENDBRANCH  19  21
ENDBRANCH  18  19
ENDBRANCH  16  18
ENDBRANCH   1  16
TORSDOF 9
ENDMDL
MODEL 4
REMARK VINA RESULT:      -6.4      3.911      7.839
REMARK  Name = 122180587_TripolinolateA.pdbqt.pdb
REMARK  9 active torsions:
REMARK  status: ('A' for Active; 'I' for Inactive)
REMARK    1  A    between atoms: C_1  and  O_16
REMARK    2  A    between atoms: C_2  and  O_7
REMARK    3  A    between atoms: C_3  and  C_9
REMARK    4  A    between atoms: C_10  and  C_11
REMARK    5  A    between atoms: C_11  and  O_12
REMARK    6  A    between atoms: O_12  and  C_14
REMARK    7  A    between atoms: O_16  and  C_18
REMARK    8  A    between atoms: C_18  and  C_19
REMARK    9  A    between atoms: C_19  and  C_21
REMARK                            x       y       z     vdW  Elec       q    Type
REMARK                         _______ _______ _______ _____ _____    ______ ____
ROOT
ATOM      1  C   UNL     1      21.972   3.785 189.558  0.00  0.00    +0.000 A 
ATOM      2  C   UNL     1      22.514   2.543 189.906  0.00  0.00    +0.000 A 
ATOM      3  C   UNL     1      24.717   3.433 189.419  0.00  0.00    +0.000 A 
ATOM      4  C   UNL     1      22.779   4.834 189.114  0.00  0.00    +0.000 A 
ATOM      5  C   UNL     1      23.900   2.383 189.836  0.00  0.00    +0.000 A 
ATOM      6  C   UNL     1      24.158   4.656 189.054  0.00  0.00    +0.000 A 
ENDROOT
BRANCH   2   7
ATOM      7  O   UNL     1      21.637   1.555 190.278  0.00  0.00    +0.000 OA
ATOM      8  C   UNL     1      21.680   1.181 191.627  0.00  0.00    +0.000 C 
ENDBRANCH   2   7
BRANCH   3   9
ATOM      9  C   UNL     1      26.130   3.252 189.358  0.00  0.00    +0.000 C 
ATOM     10  C   UNL     1      27.321   3.098 189.309  0.00  0.00    +0.000 C 
BRANCH  10  11
ATOM     11  C   UNL     1      28.839   2.903 189.250  0.00  0.00    +0.000 C 
BRANCH  11  12
ATOM     12  O   UNL     1      30.158   2.732 189.197  0.00  0.00    +0.000 OA
BRANCH  12  14
ATOM     13  O   UNL     1      31.408   2.420 187.246  0.00  0.00    +0.000 OA
ATOM     14  C   UNL     1      30.731   3.067 188.025  0.00  0.00    +0.000 C 
ATOM     15  C   UNL     1      30.497   4.478 187.604  0.00  0.00    +0.000 C 
ENDBRANCH  12  14
ENDBRANCH  11  12
ENDBRANCH  10  11
ENDBRANCH   3   9
BRANCH   1  16
ATOM     16  O   UNL     1      20.582   3.966 189.567  0.00  0.00    +0.000 OA
BRANCH  16  18
ATOM     17  O   UNL     1      20.017   5.884 188.379  0.00  0.00    +0.000 OA
ATOM     18  C   UNL     1      20.110   4.666 188.463  0.00  0.00    +0.000 C 
BRANCH  18  19
ATOM     19  C   UNL     1      19.710   3.731 187.383  0.00  0.00    +0.000 C 
ATOM     20  C   UNL     1      18.542   2.760 187.504  0.00  0.00    +0.000 C 
BRANCH  19  21
ATOM     21  C   UNL     1      20.439   3.732 186.164  0.00  0.00    +0.000 C 
ATOM     22  C   UNL     1      21.236   3.732 184.847  0.00  0.00    +0.000 C 
ENDBRANCH  19  21
ENDBRANCH  18  19
ENDBRANCH  16  18
ENDBRANCH   1  16
TORSDOF 9
ENDMDL
MODEL 5
REMARK VINA RESULT:      -6.1     29.566     33.060
REMARK  Name = 122180587_TripolinolateA.pdbqt.pdb
REMARK  9 active torsions:
REMARK  status: ('A' for Active; 'I' for Inactive)
REMARK    1  A    between atoms: C_1  and  O_16
REMARK    2  A    between atoms: C_2  and  O_7
REMARK    3  A    between atoms: C_3  and  C_9
REMARK    4  A    between atoms: C_10  and  C_11
REMARK    5  A    between atoms: C_11  and  O_12
REMARK    6  A    between atoms: O_12  and  C_14
REMARK    7  A    between atoms: O_16  and  C_18
REMARK    8  A    between atoms: C_18  and  C_19
REMARK    9  A    between atoms: C_19  and  C_21
REMARK                            x       y       z     vdW  Elec       q    Type
REMARK                         _______ _______ _______ _____ _____    ______ ____
ROOT
ATOM      1  C   UNL     1      40.749  -7.439 164.643  0.00  0.00    +0.000 A 
ATOM      2  C   UNL     1      40.144  -8.326 163.747  0.00  0.00    +0.000 A 
ATOM      3  C   UNL     1      38.010  -7.834 164.791  0.00  0.00    +0.000 A 
ATOM      4  C   UNL     1      40.010  -6.776 165.625  0.00  0.00    +0.000 A 
ATOM      5  C   UNL     1      38.761  -8.511 163.831  0.00  0.00    +0.000 A 
ATOM      6  C   UNL     1      38.634  -6.970 165.690  0.00  0.00    +0.000 A 
ENDROOT
BRANCH   2   7
ATOM      7  O   UNL     1      40.960  -8.973 162.854  0.00  0.00    +0.000 OA
ATOM      8  C   UNL     1      40.954  -8.465 161.549  0.00  0.00    +0.000 C 
ENDBRANCH   2   7
BRANCH   3   9
ATOM      9  C   UNL     1      36.600  -8.032 164.858  0.00  0.00    +0.000 C 
ATOM     10  C   UNL     1      35.411  -8.197 164.915  0.00  0.00    +0.000 C 
BRANCH  10  11
ATOM     11  C   UNL     1      33.896  -8.406 164.991  0.00  0.00    +0.000 C 
BRANCH  11  12
ATOM     12  O   UNL     1      32.578  -8.585 165.058  0.00  0.00    +0.000 OA
BRANCH  12  14
ATOM     13  O   UNL     1      31.487  -9.610 166.854  0.00  0.00    +0.000 OA
ATOM     14  C   UNL     1      32.179  -9.597 165.853  0.00  0.00    +0.000 C 
ATOM     15  C   UNL     1      32.670 -10.942 165.433  0.00  0.00    +0.000 C 
ENDBRANCH  12  14
ENDBRANCH  11  12
ENDBRANCH  10  11
ENDBRANCH   3   9
BRANCH   1  16
ATOM     16  O   UNL     1      42.140  -7.268 164.622  0.00  0.00    +0.000 OA
BRANCH  16  18
ATOM     17  O   UNL     1      42.680  -9.186 165.820  0.00  0.00    +0.000 OA
ATOM     18  C   UNL     1      42.799  -7.985 165.613  0.00  0.00    +0.000 C 
BRANCH  18  19
ATOM     19  C   UNL     1      43.671  -7.091 166.414  0.00  0.00    +0.000 C 
ATOM     20  C   UNL     1      45.030  -6.596 165.936  0.00  0.00    +0.000 C 
BRANCH  19  21
ATOM     21  C   UNL     1      43.228  -6.661 167.693  0.00  0.00    +0.000 C 
ATOM     22  C   UNL     1      42.753  -6.188 169.079  0.00  0.00    +0.000 C 
ENDBRANCH  19  21
ENDBRANCH  18  19
ENDBRANCH  16  18
ENDBRANCH   1  16
TORSDOF 9
ENDMDL
MODEL 6
REMARK VINA RESULT:      -6.0     34.977     37.722
REMARK  Name = 122180587_TripolinolateA.pdbqt.pdb
REMARK  9 active torsions:
REMARK  status: ('A' for Active; 'I' for Inactive)
REMARK    1  A    between atoms: C_1  and  O_16
REMARK    2  A    between atoms: C_2  and  O_7
REMARK    3  A    between atoms: C_3  and  C_9
REMARK    4  A    between atoms: C_10  and  C_11
REMARK    5  A    between atoms: C_11  and  O_12
REMARK    6  A    between atoms: O_12  and  C_14
REMARK    7  A    between atoms: O_16  and  C_18
REMARK    8  A    between atoms: C_18  and  C_19
REMARK    9  A    between atoms: C_19  and  C_21
REMARK                            x       y       z     vdW  Elec       q    Type
REMARK                         _______ _______ _______ _____ _____    ______ ____
ROOT
ATOM      1  C   UNL     1      41.345 -20.189 172.412  0.00  0.00    +0.000 A 
ATOM      2  C   UNL     1      42.091 -19.178 171.797  0.00  0.00    +0.000 A 
ATOM      3  C   UNL     1      44.106 -20.226 172.650  0.00  0.00    +0.000 A 
ATOM      4  C   UNL     1      41.958 -21.193 173.164  0.00  0.00    +0.000 A 
ATOM      5  C   UNL     1      43.482 -19.213 171.922  0.00  0.00    +0.000 A 
ATOM      6  C   UNL     1      43.345 -21.213 173.273  0.00  0.00    +0.000 A 
ENDROOT
BRANCH   2   7
ATOM      7  O   UNL     1      41.397 -18.203 171.126  0.00  0.00    +0.000 OA
ATOM      8  C   UNL     1      41.488 -18.247 169.729  0.00  0.00    +0.000 C 
ENDBRANCH   2   7
BRANCH   3   9
ATOM      9  C   UNL     1      45.527 -20.247 172.761  0.00  0.00    +0.000 C 
ATOM     10  C   UNL     1      46.725 -20.265 172.854  0.00  0.00    +0.000 C 
BRANCH  10  11
ATOM     11  C   UNL     1      48.252 -20.287 172.968  0.00  0.00    +0.000 C 
BRANCH  11  12
ATOM     12  O   UNL     1      49.580 -20.305 173.067  0.00  0.00    +0.000 OA
BRANCH  12  14
ATOM     13  O   UNL     1      51.165 -21.135 171.562  0.00  0.00    +0.000 OA
ATOM     14  C   UNL     1      50.198 -21.221 172.297  0.00  0.00    +0.000 C 
ATOM     15  C   UNL     1      49.593 -22.584 172.352  0.00  0.00    +0.000 C 
ENDBRANCH  12  14
ENDBRANCH  11  12
ENDBRANCH  10  11
ENDBRANCH   3   9
BRANCH   1  16
ATOM     16  O   UNL     1      39.945 -20.157 172.352  0.00  0.00    +0.000 OA
BRANCH  16  18
ATOM     17  O   UNL     1      39.353 -19.759 174.565  0.00  0.00    +0.000 OA
ATOM     18  C   UNL     1      39.334 -20.461 173.562  0.00  0.00    +0.000 C 
BRANCH  18  19
ATOM     19  C   UNL     1      38.655 -21.779 173.489  0.00  0.00    +0.000 C 
ATOM     20  C   UNL     1      38.903 -22.906 174.483  0.00  0.00    +0.000 C 
BRANCH  19  21
ATOM     21  C   UNL     1      37.718 -22.015 172.449  0.00  0.00    +0.000 C 
ATOM     22  C   UNL     1      36.699 -22.277 171.325  0.00  0.00    +0.000 C 
ENDBRANCH  19  21
ENDBRANCH  18  19
ENDBRANCH  16  18
ENDBRANCH   1  16
TORSDOF 9
ENDMDL
MODEL 7
REMARK VINA RESULT:      -5.8     33.869     35.511
REMARK  Name = 122180587_TripolinolateA.pdbqt.pdb
REMARK  9 active torsions:
REMARK  status: ('A' for Active; 'I' for Inactive)
REMARK    1  A    between atoms: C_1  and  O_16
REMARK    2  A    between atoms: C_2  and  O_7
REMARK    3  A    between atoms: C_3  and  C_9
REMARK    4  A    between atoms: C_10  and  C_11
REMARK    5  A    between atoms: C_11  and  O_12
REMARK    6  A    between atoms: O_12  and  C_14
REMARK    7  A    between atoms: O_16  and  C_18
REMARK    8  A    between atoms: C_18  and  C_19
REMARK    9  A    between atoms: C_19  and  C_21
REMARK                            x       y       z     vdW  Elec       q    Type
REMARK                         _______ _______ _______ _____ _____    ______ ____
ROOT
ATOM      1  C   UNL     1      39.333 -20.832 173.997  0.00  0.00    +0.000 A 
ATOM      2  C   UNL     1      39.385 -21.994 173.221  0.00  0.00    +0.000 A 
ATOM      3  C   UNL     1      38.883 -23.279 175.217  0.00  0.00    +0.000 A 
ATOM      4  C   UNL     1      39.092 -20.882 175.372  0.00  0.00    +0.000 A 
ATOM      5  C   UNL     1      39.150 -23.220 173.849  0.00  0.00    +0.000 A 
ATOM      6  C   UNL     1      38.857 -22.112 175.979  0.00  0.00    +0.000 A 
ENDROOT
BRANCH   2   7
ATOM      7  O   UNL     1      39.683 -21.850 171.890  0.00  0.00    +0.000 OA
ATOM      8  C   UNL     1      38.610 -22.020 171.006  0.00  0.00    +0.000 C 
ENDBRANCH   2   7
BRANCH   3   9
ATOM      9  C   UNL     1      38.642 -24.540 175.839  0.00  0.00    +0.000 C 
ATOM     10  C   UNL     1      38.437 -25.600 176.364  0.00  0.00    +0.000 C 
BRANCH  10  11
ATOM     11  C   UNL     1      38.176 -26.951 177.038  0.00  0.00    +0.000 C 
BRANCH  11  12
ATOM     12  O   UNL     1      37.949 -28.126 177.621  0.00  0.00    +0.000 OA
BRANCH  12  14
ATOM     13  O   UNL     1      37.746 -28.440 179.929  0.00  0.00    +0.000 OA
ATOM     14  C   UNL     1      37.370 -28.058 178.836  0.00  0.00    +0.000 C 
ATOM     15  C   UNL     1      36.032 -27.400 178.846  0.00  0.00    +0.000 C 
ENDBRANCH  12  14
ENDBRANCH  11  12
ENDBRANCH  10  11
ENDBRANCH   3   9
BRANCH   1  16
ATOM     16  O   UNL     1      39.614 -19.589 173.412  0.00  0.00    +0.000 OA
BRANCH  16  18
ATOM     17  O   UNL     1      41.337 -18.709 174.702  0.00  0.00    +0.000 OA
ATOM     18  C   UNL     1      40.912 -19.152 173.642  0.00  0.00    +0.000 C 
BRANCH  18  19
ATOM     19  C   UNL     1      41.732 -19.277 172.411  0.00  0.00    +0.000 C 
ATOM     20  C   UNL     1      41.226 -18.904 171.024  0.00  0.00    +0.000 C 
BRANCH  19  21
ATOM     21  C   UNL     1      43.062 -19.763 172.516  0.00  0.00    +0.000 C 
ATOM     22  C   UNL     1      44.505 -20.291 172.621  0.00  0.00    +0.000 C 
ENDBRANCH  19  21
ENDBRANCH  18  19
ENDBRANCH  16  18
ENDBRANCH   1  16
TORSDOF 9
ENDMDL
MODEL 8
REMARK VINA RESULT:      -5.6     21.454     22.725
REMARK  Name = 122180587_TripolinolateA.pdbqt.pdb
REMARK  9 active torsions:
REMARK  status: ('A' for Active; 'I' for Inactive)
REMARK    1  A    between atoms: C_1  and  O_16
REMARK    2  A    between atoms: C_2  and  O_7
REMARK    3  A    between atoms: C_3  and  C_9
REMARK    4  A    between atoms: C_10  and  C_11
REMARK    5  A    between atoms: C_11  and  O_12
REMARK    6  A    between atoms: O_12  and  C_14
REMARK    7  A    between atoms: O_16  and  C_18
REMARK    8  A    between atoms: C_18  and  C_19
REMARK    9  A    between atoms: C_19  and  C_21
REMARK                            x       y       z     vdW  Elec       q    Type
REMARK                         _______ _______ _______ _____ _____    ______ ____
ROOT
ATOM      1  C   UNL     1      12.282 -13.077 179.117  0.00  0.00    +0.000 A 
ATOM      2  C   UNL     1      12.642 -13.644 180.344  0.00  0.00    +0.000 A 
ATOM      3  C   UNL     1      13.779 -15.409 179.128  0.00  0.00    +0.000 A 
ATOM      4  C   UNL     1      12.633 -13.675 177.905  0.00  0.00    +0.000 A 
ATOM      5  C   UNL     1      13.401 -14.817 180.333  0.00  0.00    +0.000 A 
ATOM      6  C   UNL     1      13.393 -14.841 177.915  0.00  0.00    +0.000 A 
ENDROOT
BRANCH   2   7
ATOM      7  O   UNL     1      12.204 -13.015 181.481  0.00  0.00    +0.000 OA
ATOM      8  C   UNL     1      11.571 -13.835 182.423  0.00  0.00    +0.000 C 
ENDBRANCH   2   7
BRANCH   3   9
ATOM      9  C   UNL     1      14.558 -16.603 179.137  0.00  0.00    +0.000 C 
ATOM     10  C   UNL     1      15.216 -17.608 179.144  0.00  0.00    +0.000 C 
BRANCH  10  11
ATOM     11  C   UNL     1      16.055 -18.890 179.148  0.00  0.00    +0.000 C 
BRANCH  11  12
ATOM     12  O   UNL     1      16.783 -20.004 179.154  0.00  0.00    +0.000 OA
BRANCH  12  14
ATOM     13  O   UNL     1      16.572 -21.980 177.922  0.00  0.00    +0.000 OA
ATOM     14  C   UNL     1      16.659 -20.773 178.054  0.00  0.00    +0.000 C 
ATOM     15  C   UNL     1      16.622 -20.013 176.771  0.00  0.00    +0.000 C 
ENDBRANCH  12  14
ENDBRANCH  11  12
ENDBRANCH  10  11
ENDBRANCH   3   9
BRANCH   1  16
ATOM     16  O   UNL     1      11.477 -11.929 179.089  0.00  0.00    +0.000 OA
BRANCH  16  18
ATOM     17  O   UNL     1      13.001 -10.206 179.431  0.00  0.00    +0.000 OA
ATOM     18  C   UNL     1      12.170 -10.778 178.737  0.00  0.00    +0.000 C 
BRANCH  18  19
ATOM     19  C   UNL     1      11.755 -10.309 177.391  0.00  0.00    +0.000 C 
ATOM     20  C   UNL     1      12.696 -10.254 176.195  0.00  0.00    +0.000 C 
BRANCH  19  21
ATOM     21  C   UNL     1      10.413  -9.891 177.190  0.00  0.00    +0.000 C 
ATOM     22  C   UNL     1       8.955  -9.445 176.969  0.00  0.00    +0.000 C 
ENDBRANCH  19  21
ENDBRANCH  18  19
ENDBRANCH  16  18
ENDBRANCH   1  16
TORSDOF 9
ENDMDL
MODEL 9
REMARK VINA RESULT:      -5.5     32.244     35.505
REMARK  Name = 122180587_TripolinolateA.pdbqt.pdb
REMARK  9 active torsions:
REMARK  status: ('A' for Active; 'I' for Inactive)
REMARK    1  A    between atoms: C_1  and  O_16
REMARK    2  A    between atoms: C_2  and  O_7
REMARK    3  A    between atoms: C_3  and  C_9
REMARK    4  A    between atoms: C_10  and  C_11
REMARK    5  A    between atoms: C_11  and  O_12
REMARK    6  A    between atoms: O_12  and  C_14
REMARK    7  A    between atoms: O_16  and  C_18
REMARK    8  A    between atoms: C_18  and  C_19
REMARK    9  A    between atoms: C_19  and  C_21
REMARK                            x       y       z     vdW  Elec       q    Type
REMARK                         _______ _______ _______ _____ _____    ______ ____
ROOT
ATOM      1  C   UNL     1      42.936  -7.444 165.487  0.00  0.00    +0.000 A 
ATOM      2  C   UNL     1      43.294  -6.891 166.721  0.00  0.00    +0.000 A 
ATOM      3  C   UNL     1      44.798  -5.393 165.547  0.00  0.00    +0.000 A 
ATOM      4  C   UNL     1      43.518  -7.007 164.295  0.00  0.00    +0.000 A 
ATOM      5  C   UNL     1      44.231  -5.854 166.735  0.00  0.00    +0.000 A 
ATOM      6  C   UNL     1      44.446  -5.970 164.329  0.00  0.00    +0.000 A 
ENDROOT
BRANCH   2   7
ATOM      7  O   UNL     1      42.711  -7.424 167.842  0.00  0.00    +0.000 OA
ATOM      8  C   UNL     1      42.259  -6.496 168.790  0.00  0.00    +0.000 C 
ENDBRANCH   2   7
BRANCH   3   9
ATOM      9  C   UNL     1      45.748  -4.330 165.581  0.00  0.00    +0.000 C 
ATOM     10  C   UNL     1      46.548  -3.434 165.608  0.00  0.00    +0.000 C 
BRANCH  10  11
ATOM     11  C   UNL     1      47.566  -2.290 165.639  0.00  0.00    +0.000 C 
BRANCH  11  12
ATOM     12  O   UNL     1      48.452  -1.296 165.664  0.00  0.00    +0.000 OA
BRANCH  12  14
ATOM     13  O   UNL     1      48.338   0.758 166.775  0.00  0.00    +0.000 OA
ATOM     14  C   UNL     1      48.341  -0.458 166.713  0.00  0.00    +0.000 C 
ATOM     15  C   UNL     1      48.196  -1.137 168.033  0.00  0.00    +0.000 C 
ENDBRANCH  12  14
ENDBRANCH  11  12
ENDBRANCH  10  11
ENDBRANCH   3   9
BRANCH   1  16
ATOM     16  O   UNL     1      42.040  -8.521 165.439  0.00  0.00    +0.000 OA
BRANCH  16  18
ATOM     17  O   UNL     1      40.071  -7.326 165.766  0.00  0.00    +0.000 OA
ATOM     18  C   UNL     1      40.737  -8.141 165.139  0.00  0.00    +0.000 C 
BRANCH  18  19
ATOM     19  C   UNL     1      40.239  -8.874 163.949  0.00  0.00    +0.000 C 
ATOM     20  C   UNL     1      38.913  -8.563 163.267  0.00  0.00    +0.000 C 
BRANCH  19  21
ATOM     21  C   UNL     1      41.030  -9.919 163.402  0.00  0.00    +0.000 C 
ATOM     22  C   UNL     1      41.881 -11.055 162.806  0.00  0.00    +0.000 C 
ENDBRANCH  19  21
ENDBRANCH  18  19
ENDBRANCH  16  18
ENDBRANCH   1  16
TORSDOF 9
ENDMDL
