MODEL 1
REMARK VINA RESULT:      -7.5      0.000      0.000
REMARK  Name = 135403648_CalciumFolinate.pdbqt.pdb
REMARK  10 active torsions:
REMARK  status: ('A' for Active; 'I' for Inactive)
REMARK    1  A    between atoms: N_1  and  C_3
REMARK    2  A    between atoms: N_1  and  C_24
REMARK    3  A    between atoms: C_6  and  C_11
REMARK    4  A    between atoms: CA_13  and  C_15
REMARK    5  A    between atoms: CA_13  and  CB_18
REMARK    6  A    between atoms: C_15  and  O_16
REMARK    7  A    between atoms: CG_19  and  CD_21
REMARK    8  A    between atoms: CD_21  and  OE1_22
REMARK    9  A    between atoms: C_24  and  C_32
REMARK   10  A    between atoms: N_27  and  C_37
REMARK                            x       y       z     vdW  Elec       q    Type
REMARK                         _______ _______ _______ _____ _____    ______ ____
ROOT
ATOM      1  N   UNL     1      28.397   0.021 191.519  0.00  0.00    +0.000 N 
ATOM      2  H   UNL     1      28.430  -0.494 192.398  0.00  0.00    +0.000 HD
ENDROOT
BRANCH   1   3
ATOM      3  C   UNL     1      27.074   0.239 191.080  0.00  0.00    +0.000 A 
ATOM      4  C   UNL     1      26.837   1.179 190.072  0.00  0.00    +0.000 A 
ATOM      5  C   UNL     1      25.970  -0.317 191.735  0.00  0.00    +0.000 A 
ATOM      6  C   UNL     1      24.450   0.905 190.311  0.00  0.00    +0.000 A 
ATOM      7  C   UNL     1      25.538   1.500 189.678  0.00  0.00    +0.000 A 
ATOM      8  C   UNL     1      24.669  -0.003 191.347  0.00  0.00    +0.000 A 
BRANCH   6  11
ATOM      9  O   UNL     1      22.140   0.795 190.631  0.00  0.00    +0.000 OA
ATOM     10  N   UNL     1      22.886   1.955 188.770  0.00  0.00    +0.000 N 
ATOM     11  C   ACE A   0      23.050   1.211 189.923  0.00  0.00    +0.000 C 
ATOM     12  H   UNL     1      23.705   2.251 188.246  0.00  0.00    +0.000 HD
ATOM     13  CA  UNL     1      21.691   2.363 188.204  0.00  0.00    +0.000 C 
BRANCH  13  15
ATOM     14  OXT UNL     1      22.427   2.780 185.968  0.00  0.00    +0.000 OA
ATOM     15  C   UNL     1      21.807   3.153 186.954  0.00  0.00    +0.000 C 
BRANCH  15  16
ATOM     16  O   UNL     1      21.165   4.330 186.984  0.00  0.00    +0.000 OA
ATOM     17  H   UNL     1      20.239   4.118 186.744  0.00  0.00    +0.000 HD
ENDBRANCH  15  16
ENDBRANCH  13  15
BRANCH  13  18
ATOM     18  CB  UNL     1      20.432   2.050 188.781  0.00  0.00    +0.000 C 
ATOM     19  CG  UNL     1      19.078   1.713 189.415  0.00  0.00    +0.000 C 
BRANCH  19  21
ATOM     20  OE2 UNL     1      17.583   1.575 191.206  0.00  0.00    +0.000 OA
ATOM     21  CD  UNL     1      17.821   1.400 190.024  0.00  0.00    +0.000 C 
BRANCH  21  22
ATOM     22  OE1 UNL     1      16.919   0.871 189.179  0.00  0.00    +0.000 OA
ATOM     23  HE1 UNL     1      16.081   1.301 189.445  0.00  0.00    +0.000 HD
ENDBRANCH  21  22
ENDBRANCH  19  21
ENDBRANCH  13  18
ENDBRANCH   6  11
ENDBRANCH   1   3
BRANCH   1  24
ATOM     24  C   UNL     1      29.368   1.099 191.376  0.00  0.00    +0.000 C 
BRANCH  24  31
ATOM     25  O   UNL     1      31.862   3.547 187.444  0.00  0.00    +0.000 OA
ATOM     26  N   UNL     1      30.690   2.601 189.930  0.00  0.00    +0.000 N 
ATOM     27  N   UNL     1      31.777   4.016 192.238  0.00  0.00    +0.000 N 
ATOM     28  N   UNL     1      33.211   5.232 190.815  0.00  0.00    +0.000 NA
ATOM     29  N   UNL     1      33.108   5.068 188.510  0.00  0.00    +0.000 N 
ATOM     30  N   UNL     1      34.581   6.530 189.506  0.00  0.00    +0.000 N 
ATOM     31  C   UNL     1      30.297   2.156 191.188  0.00  0.00    +0.000 C 
ATOM     32  C   UNL     1      30.904   2.885 192.224  0.00  0.00    +0.000 C 
ATOM     33  C   UNL     1      31.662   3.636 189.846  0.00  0.00    +0.000 A 
ATOM     34  C   UNL     1      32.209   4.292 190.928  0.00  0.00    +0.000 A 
ATOM     35  C   UNL     1      32.193   4.061 188.509  0.00  0.00    +0.000 A 
ATOM     36  C   UNL     1      33.616   5.592 189.646  0.00  0.00    +0.000 A 
ATOM     37  H   UNL     1      32.545   4.109 192.896  0.00  0.00    +0.000 HD
ATOM     38  H   UNL     1      33.494   5.316 187.613  0.00  0.00    +0.000 HD
ATOM     39  H   UNL     1      34.764   7.025 190.375  0.00  0.00    +0.000 HD
ATOM     40  H   UNL     1      34.502   7.154 188.714  0.00  0.00    +0.000 HD
BRANCH  26  42
ATOM     41  O   UNL     1      29.670   1.442 187.932  0.00  0.00    +0.000 OA
ATOM     42  C   UNL     1      30.162   2.007 188.838  0.00  0.00    +0.000 C 
ENDBRANCH  26  42
ENDBRANCH  24  31
ENDBRANCH   1  24
TORSDOF 10
ENDMDL
MODEL 2
REMARK VINA RESULT:      -7.4     25.904     27.558
REMARK  Name = 135403648_CalciumFolinate.pdbqt.pdb
REMARK  10 active torsions:
REMARK  status: ('A' for Active; 'I' for Inactive)
REMARK    1  A    between atoms: N_1  and  C_3
REMARK    2  A    between atoms: N_1  and  C_24
REMARK    3  A    between atoms: C_6  and  C_11
REMARK    4  A    between atoms: CA_13  and  C_15
REMARK    5  A    between atoms: CA_13  and  CB_18
REMARK    6  A    between atoms: C_15  and  O_16
REMARK    7  A    between atoms: CG_19  and  CD_21
REMARK    8  A    between atoms: CD_21  and  OE1_22
REMARK    9  A    between atoms: C_24  and  C_32
REMARK   10  A    between atoms: N_27  and  C_37
REMARK                            x       y       z     vdW  Elec       q    Type
REMARK                         _______ _______ _______ _____ _____    ______ ____
ROOT
ATOM      1  N   UNL     1      35.934  -8.756 162.425  0.00  0.00    +0.000 N 
ATOM      2  H   UNL     1      36.057  -9.553 161.801  0.00  0.00    +0.000 HD
ENDROOT
BRANCH   1   3
ATOM      3  C   UNL     1      34.643  -8.718 162.992  0.00  0.00    +0.000 A 
ATOM      4  C   UNL     1      33.666  -7.904 162.408  0.00  0.00    +0.000 A 
ATOM      5  C   UNL     1      34.350  -9.323 164.219  0.00  0.00    +0.000 A 
ATOM      6  C   UNL     1      32.117  -8.402 164.193  0.00  0.00    +0.000 A 
ATOM      7  C   UNL     1      32.409  -7.759 162.993  0.00  0.00    +0.000 A 
ATOM      8  C   UNL     1      33.095  -9.183 164.809  0.00  0.00    +0.000 A 
BRANCH   6  11
ATOM      9  O   UNL     1      30.489  -9.091 165.718  0.00  0.00    +0.000 OA
ATOM     10  N   UNL     1      29.990  -7.241 164.417  0.00  0.00    +0.000 N 
ATOM     11  C   ACE A   0      30.792  -8.280 164.850  0.00  0.00    +0.000 C 
ATOM     12  H   UNL     1      30.328  -6.621 163.685  0.00  0.00    +0.000 HD
ATOM     13  CA  UNL     1      28.722  -6.921 164.869  0.00  0.00    +0.000 C 
BRANCH  13  15
ATOM     14  OXT UNL     1      27.995  -5.603 163.012  0.00  0.00    +0.000 OA
ATOM     15  C   UNL     1      28.084  -5.749 164.223  0.00  0.00    +0.000 C 
BRANCH  15  16
ATOM     16  O   UNL     1      27.600  -4.841 165.084  0.00  0.00    +0.000 OA
ATOM     17  H   UNL     1      27.742  -3.977 164.645  0.00  0.00    +0.000 HD
ENDBRANCH  15  16
ENDBRANCH  13  15
BRANCH  13  18
ATOM     18  CB  UNL     1      28.070  -7.666 165.887  0.00  0.00    +0.000 C 
ATOM     19  CG  UNL     1      27.373  -8.464 166.995  0.00  0.00    +0.000 C 
BRANCH  19  21
ATOM     20  OE2 UNL     1      27.142  -9.235 169.189  0.00  0.00    +0.000 OA
ATOM     21  CD  UNL     1      26.733  -9.201 168.042  0.00  0.00    +0.000 C 
BRANCH  21  22
ATOM     22  OE1 UNL     1      25.642  -9.880 167.646  0.00  0.00    +0.000 OA
ATOM     23  HE1 UNL     1      25.027  -9.174 167.362  0.00  0.00    +0.000 HD
ENDBRANCH  21  22
ENDBRANCH  19  21
ENDBRANCH  13  18
ENDBRANCH   6  11
ENDBRANCH   1   3
BRANCH   1  24
ATOM     24  C   UNL     1      37.077  -8.424 163.267  0.00  0.00    +0.000 C 
BRANCH  24  31
ATOM     25  O   UNL     1      38.098  -5.468 167.497  0.00  0.00    +0.000 OA
ATOM     26  N   UNL     1      38.056  -7.274 165.220  0.00  0.00    +0.000 N 
ATOM     27  N   UNL     1      40.730  -8.237 164.563  0.00  0.00    +0.000 N 
ATOM     28  N   UNL     1      41.632  -6.900 166.283  0.00  0.00    +0.000 NA
ATOM     29  N   UNL     1      40.306  -5.702 167.753  0.00  0.00    +0.000 N 
ATOM     30  N   UNL     1      42.596  -5.705 167.991  0.00  0.00    +0.000 N 
ATOM     31  C   UNL     1      38.185  -8.051 164.074  0.00  0.00    +0.000 C 
ATOM     32  C   UNL     1      39.515  -8.431 163.836  0.00  0.00    +0.000 C 
ATOM     33  C   UNL     1      39.231  -6.915 165.936  0.00  0.00    +0.000 A 
ATOM     34  C   UNL     1      40.505  -7.335 165.619  0.00  0.00    +0.000 A 
ATOM     35  C   UNL     1      39.141  -5.985 167.110  0.00  0.00    +0.000 A 
ATOM     36  C   UNL     1      41.508  -6.127 167.307  0.00  0.00    +0.000 A 
ATOM     37  H   UNL     1      41.617  -8.043 164.108  0.00  0.00    +0.000 HD
ATOM     38  H   UNL     1      40.245  -5.040 168.510  0.00  0.00    +0.000 HD
ATOM     39  H   UNL     1      43.434  -6.222 167.737  0.00  0.00    +0.000 HD
ATOM     40  H   UNL     1      42.495  -5.599 168.992  0.00  0.00    +0.000 HD
BRANCH  26  42
ATOM     41  O   UNL     1      35.751  -6.551 165.955  0.00  0.00    +0.000 OA
ATOM     42  C   UNL     1      36.824  -6.859 165.587  0.00  0.00    +0.000 C 
ENDBRANCH  26  42
ENDBRANCH  24  31
ENDBRANCH   1  24
TORSDOF 10
ENDMDL
MODEL 3
REMARK VINA RESULT:      -7.4      6.609     10.402
REMARK  Name = 135403648_CalciumFolinate.pdbqt.pdb
REMARK  10 active torsions:
REMARK  status: ('A' for Active; 'I' for Inactive)
REMARK    1  A    between atoms: N_1  and  C_3
REMARK    2  A    between atoms: N_1  and  C_24
REMARK    3  A    between atoms: C_6  and  C_11
REMARK    4  A    between atoms: CA_13  and  C_15
REMARK    5  A    between atoms: CA_13  and  CB_18
REMARK    6  A    between atoms: C_15  and  O_16
REMARK    7  A    between atoms: CG_19  and  CD_21
REMARK    8  A    between atoms: CD_21  and  OE1_22
REMARK    9  A    between atoms: C_24  and  C_32
REMARK   10  A    between atoms: N_27  and  C_37
REMARK                            x       y       z     vdW  Elec       q    Type
REMARK                         _______ _______ _______ _____ _____    ______ ____
ROOT
ATOM      1  N   UNL     1      18.292   0.728 192.110  0.00  0.00    +0.000 N 
ATOM      2  H   UNL     1      17.433   0.181 192.142  0.00  0.00    +0.000 HD
ENDROOT
BRANCH   1   3
ATOM      3  C   UNL     1      19.307   0.173 192.917  0.00  0.00    +0.000 A 
ATOM      4  C   UNL     1      20.034   1.010 193.770  0.00  0.00    +0.000 A 
ATOM      5  C   UNL     1      19.736  -1.151 192.769  0.00  0.00    +0.000 A 
ATOM      6  C   UNL     1      21.500  -0.809 194.383  0.00  0.00    +0.000 A 
ATOM      7  C   UNL     1      21.111   0.522 194.509  0.00  0.00    +0.000 A 
ATOM      8  C   UNL     1      20.811  -1.646 193.505  0.00  0.00    +0.000 A 
BRANCH   6  11
ATOM      9  O   UNL     1      22.415  -1.865 196.253  0.00  0.00    +0.000 OA
ATOM     10  N   UNL     1      23.879  -1.295 194.551  0.00  0.00    +0.000 N 
ATOM     11  C   ACE A   0      22.637  -1.374 195.152  0.00  0.00    +0.000 C 
ATOM     12  H   UNL     1      23.963  -0.863 193.634  0.00  0.00    +0.000 HD
ATOM     13  CA  UNL     1      25.084  -1.744 195.062  0.00  0.00    +0.000 C 
BRANCH  13  15
ATOM     14  OXT UNL     1      26.660  -2.326 193.362  0.00  0.00    +0.000 OA
ATOM     15  C   UNL     1      26.271  -1.526 194.200  0.00  0.00    +0.000 C 
BRANCH  15  16
ATOM     16  O   UNL     1      26.899  -0.359 194.413  0.00  0.00    +0.000 OA
ATOM     17  H   UNL     1      26.223   0.327 194.234  0.00  0.00    +0.000 HD
ENDBRANCH  15  16
ENDBRANCH  13  15
BRANCH  13  18
ATOM     18  CB  UNL     1      25.181  -2.375 196.330  0.00  0.00    +0.000 C 
ATOM     19  CG  UNL     1      25.289  -3.046 197.704  0.00  0.00    +0.000 C 
BRANCH  19  21
ATOM     20  OE2 UNL     1      25.348  -4.860 199.177  0.00  0.00    +0.000 OA
ATOM     21  CD  UNL     1      25.392  -3.656 198.994  0.00  0.00    +0.000 C 
BRANCH  21  22
ATOM     22  OE1 UNL     1      25.522  -2.779 200.006  0.00  0.00    +0.000 OA
ATOM     23  HE1 UNL     1      25.854  -3.331 200.742  0.00  0.00    +0.000 HD
ENDBRANCH  21  22
ENDBRANCH  19  21
ENDBRANCH  13  18
ENDBRANCH   6  11
ENDBRANCH   1   3
BRANCH   1  24
ATOM     24  C   UNL     1      18.654   1.270 190.806  0.00  0.00    +0.000 C 
BRANCH  24  31
ATOM     25  O   UNL     1      23.078   2.182 188.110  0.00  0.00    +0.000 OA
ATOM     26  N   UNL     1      20.381   1.800 189.123  0.00  0.00    +0.000 N 
ATOM     27  N   UNL     1      18.378   2.779 187.242  0.00  0.00    +0.000 N 
ATOM     28  N   UNL     1      20.093   3.505 185.796  0.00  0.00    +0.000 NA
ATOM     29  N   UNL     1      22.328   3.064 186.197  0.00  0.00    +0.000 N 
ATOM     30  N   UNL     1      21.687   4.165 184.280  0.00  0.00    +0.000 N 
ATOM     31  C   UNL     1      19.055   1.784 189.545  0.00  0.00    +0.000 C 
ATOM     32  C   UNL     1      18.183   2.306 188.576  0.00  0.00    +0.000 C 
ATOM     33  C   UNL     1      20.688   2.379 187.860  0.00  0.00    +0.000 A 
ATOM     34  C   UNL     1      19.756   2.874 186.975  0.00  0.00    +0.000 A 
ATOM     35  C   UNL     1      22.117   2.516 187.425  0.00  0.00    +0.000 A 
ATOM     36  C   UNL     1      21.330   3.573 185.443  0.00  0.00    +0.000 A 
ATOM     37  H   UNL     1      17.883   3.583 186.866  0.00  0.00    +0.000 HD
ATOM     38  H   UNL     1      23.291   3.196 185.932  0.00  0.00    +0.000 HD
ATOM     39  H   UNL     1      20.888   4.334 183.675  0.00  0.00    +0.000 HD
ATOM     40  H   UNL     1      22.472   3.764 183.783  0.00  0.00    +0.000 HD
BRANCH  26  42
ATOM     41  O   UNL     1      22.152   0.929 190.698  0.00  0.00    +0.000 OA
ATOM     42  C   UNL     1      21.329   1.301 189.946  0.00  0.00    +0.000 C 
ENDBRANCH  26  42
ENDBRANCH  24  31
ENDBRANCH   1  24
TORSDOF 10
ENDMDL
MODEL 4
REMARK VINA RESULT:      -7.0     26.532     30.022
REMARK  Name = 135403648_CalciumFolinate.pdbqt.pdb
REMARK  10 active torsions:
REMARK  status: ('A' for Active; 'I' for Inactive)
REMARK    1  A    between atoms: N_1  and  C_3
REMARK    2  A    between atoms: N_1  and  C_24
REMARK    3  A    between atoms: C_6  and  C_11
REMARK    4  A    between atoms: CA_13  and  C_15
REMARK    5  A    between atoms: CA_13  and  CB_18
REMARK    6  A    between atoms: C_15  and  O_16
REMARK    7  A    between atoms: CG_19  and  CD_21
REMARK    8  A    between atoms: CD_21  and  OE1_22
REMARK    9  A    between atoms: C_24  and  C_32
REMARK   10  A    between atoms: N_27  and  C_37
REMARK                            x       y       z     vdW  Elec       q    Type
REMARK                         _______ _______ _______ _____ _____    ______ ____
ROOT
ATOM      1  N   UNL     1      33.581  -8.570 163.128  0.00  0.00    +0.000 N 
ATOM      2  H   UNL     1      33.559  -8.955 162.184  0.00  0.00    +0.000 HD
ENDROOT
BRANCH   1   3
ATOM      3  C   UNL     1      34.896  -8.465 163.629  0.00  0.00    +0.000 A 
ATOM      4  C   UNL     1      35.090  -8.041 164.948  0.00  0.00    +0.000 A 
ATOM      5  C   UNL     1      36.020  -8.596 162.806  0.00  0.00    +0.000 A 
ATOM      6  C   UNL     1      37.484  -8.003 164.633  0.00  0.00    +0.000 A 
ATOM      7  C   UNL     1      36.372  -7.827 165.453  0.00  0.00    +0.000 A 
ATOM      8  C   UNL     1      37.304  -8.385 163.303  0.00  0.00    +0.000 A 
BRANCH   6  11
ATOM      9  O   UNL     1      39.080  -6.867 165.904  0.00  0.00    +0.000 OA
ATOM     10  N   UNL     1      39.824  -8.671 164.657  0.00  0.00    +0.000 N 
ATOM     11  C   ACE A   0      38.868  -7.791 165.127  0.00  0.00    +0.000 C 
ATOM     12  H   UNL     1      39.551  -9.405 164.008  0.00  0.00    +0.000 HD
ATOM     13  CA  UNL     1      41.173  -8.680 164.964  0.00  0.00    +0.000 C 
BRANCH  13  15
ATOM     14  OXT UNL     1      42.174  -9.801 163.105  0.00  0.00    +0.000 OA
ATOM     15  C   UNL     1      41.977  -9.741 164.310  0.00  0.00    +0.000 C 
BRANCH  15  16
ATOM     16  O   UNL     1      42.483 -10.650 165.158  0.00  0.00    +0.000 OA
ATOM     17  H   UNL     1      42.097 -10.423 166.030  0.00  0.00    +0.000 HD
ENDBRANCH  15  16
ENDBRANCH  13  15
BRANCH  13  18
ATOM     18  CB  UNL     1      41.755  -7.736 165.851  0.00  0.00    +0.000 C 
ATOM     19  CG  UNL     1      42.375  -6.720 166.816  0.00  0.00    +0.000 C 
BRANCH  19  21
ATOM     20  OE2 UNL     1      42.971  -5.942 168.938  0.00  0.00    +0.000 OA
ATOM     21  CD  UNL     1      42.943  -5.777 167.732  0.00  0.00    +0.000 C 
BRANCH  21  22
ATOM     22  OE1 UNL     1      43.431  -4.669 167.145  0.00  0.00    +0.000 OA
ATOM     23  HE1 UNL     1      43.123  -4.749 166.220  0.00  0.00    +0.000 HD
ENDBRANCH  21  22
ENDBRANCH  19  21
ENDBRANCH  13  18
ENDBRANCH   6  11
ENDBRANCH   1   3
BRANCH   1  24
ATOM     24  C   UNL     1      32.642  -7.487 163.396  0.00  0.00    +0.000 C 
BRANCH  24  31
ATOM     25  O   UNL     1      27.658  -6.877 164.964  0.00  0.00    +0.000 OA
ATOM     26  N   UNL     1      30.452  -6.670 164.190  0.00  0.00    +0.000 N 
ATOM     27  N   UNL     1      31.293  -3.889 163.933  0.00  0.00    +0.000 N 
ATOM     28  N   UNL     1      29.101  -3.182 164.440  0.00  0.00    +0.000 NA
ATOM     29  N   UNL     1      27.432  -4.655 165.066  0.00  0.00    +0.000 N 
ATOM     30  N   UNL     1      27.022  -2.390 165.011  0.00  0.00    +0.000 N 
ATOM     31  C   UNL     1      31.736  -6.439 163.707  0.00  0.00    +0.000 C 
ATOM     32  C   UNL     1      32.023  -5.070 163.593  0.00  0.00    +0.000 C 
ATOM     33  C   UNL     1      29.602  -5.555 164.429  0.00  0.00    +0.000 A 
ATOM     34  C   UNL     1      29.975  -4.236 164.281  0.00  0.00    +0.000 A 
ATOM     35  C   UNL     1      28.176  -5.772 164.840  0.00  0.00    +0.000 A 
ATOM     36  C   UNL     1      27.893  -3.410 164.825  0.00  0.00    +0.000 A 
ATOM     37  H   UNL     1      31.303  -3.052 163.358  0.00  0.00    +0.000 HD
ATOM     38  H   UNL     1      26.463  -4.809 165.295  0.00  0.00    +0.000 HD
ATOM     39  H   UNL     1      27.486  -1.486 165.018  0.00  0.00    +0.000 HD
ATOM     40  H   UNL     1      26.356  -2.490 165.766  0.00  0.00    +0.000 HD
BRANCH  26  42
ATOM     41  O   UNL     1      29.760  -9.078 164.507  0.00  0.00    +0.000 OA
ATOM     42  C   UNL     1      30.049  -7.946 164.377  0.00  0.00    +0.000 C 
ENDBRANCH  26  42
ENDBRANCH  24  31
ENDBRANCH   1  24
TORSDOF 10
ENDMDL
MODEL 5
REMARK VINA RESULT:      -7.0     26.703     30.088
REMARK  Name = 135403648_CalciumFolinate.pdbqt.pdb
REMARK  10 active torsions:
REMARK  status: ('A' for Active; 'I' for Inactive)
REMARK    1  A    between atoms: N_1  and  C_3
REMARK    2  A    between atoms: N_1  and  C_24
REMARK    3  A    between atoms: C_6  and  C_11
REMARK    4  A    between atoms: CA_13  and  C_15
REMARK    5  A    between atoms: CA_13  and  CB_18
REMARK    6  A    between atoms: C_15  and  O_16
REMARK    7  A    between atoms: CG_19  and  CD_21
REMARK    8  A    between atoms: CD_21  and  OE1_22
REMARK    9  A    between atoms: C_24  and  C_32
REMARK   10  A    between atoms: N_27  and  C_37
REMARK                            x       y       z     vdW  Elec       q    Type
REMARK                         _______ _______ _______ _____ _____    ______ ____
ROOT
ATOM      1  N   UNL     1      33.585  -8.861 162.811  0.00  0.00    +0.000 N 
ATOM      2  H   UNL     1      33.607  -9.094 161.818  0.00  0.00    +0.000 HD
ENDROOT
BRANCH   1   3
ATOM      3  C   UNL     1      34.879  -8.707 163.351  0.00  0.00    +0.000 A 
ATOM      4  C   UNL     1      35.018  -8.335 164.691  0.00  0.00    +0.000 A 
ATOM      5  C   UNL     1      36.028  -8.737 162.552  0.00  0.00    +0.000 A 
ATOM      6  C   UNL     1      37.413  -8.150 164.442  0.00  0.00    +0.000 A 
ATOM      7  C   UNL     1      36.274  -8.074 165.239  0.00  0.00    +0.000 A 
ATOM      8  C   UNL     1      37.286  -8.478 163.092  0.00  0.00    +0.000 A 
BRANCH   6  11
ATOM      9  O   UNL     1      38.924  -6.944 165.750  0.00  0.00    +0.000 OA
ATOM     10  N   UNL     1      39.771  -8.740 164.558  0.00  0.00    +0.000 N 
ATOM     11  C   ACE A   0      38.771  -7.885 164.980  0.00  0.00    +0.000 C 
ATOM     12  H   UNL     1      39.546  -9.492 163.911  0.00  0.00    +0.000 HD
ATOM     13  CA  UNL     1      41.108  -8.699 164.913  0.00  0.00    +0.000 C 
BRANCH  13  15
ATOM     14  OXT UNL     1      42.228  -9.800 163.111  0.00  0.00    +0.000 OA
ATOM     15  C   UNL     1      41.969  -9.743 164.304  0.00  0.00    +0.000 C 
BRANCH  15  16
ATOM     16  O   UNL     1      42.454 -10.636 165.180  0.00  0.00    +0.000 OA
ATOM     17  H   UNL     1      41.754 -11.318 165.257  0.00  0.00    +0.000 HD
ENDBRANCH  15  16
ENDBRANCH  13  15
BRANCH  13  18
ATOM     18  CB  UNL     1      41.627  -7.724 165.804  0.00  0.00    +0.000 C 
ATOM     19  CG  UNL     1      42.178  -6.662 166.763  0.00  0.00    +0.000 C 
BRANCH  19  21
ATOM     20  OE2 UNL     1      42.910  -5.860 168.833  0.00  0.00    +0.000 OA
ATOM     21  CD  UNL     1      42.678  -5.660 167.654  0.00  0.00    +0.000 C 
BRANCH  21  22
ATOM     22  OE1 UNL     1      42.855  -4.456 167.081  0.00  0.00    +0.000 OA
ATOM     23  HE1 UNL     1      43.440  -4.651 166.321  0.00  0.00    +0.000 HD
ENDBRANCH  21  22
ENDBRANCH  19  21
ENDBRANCH  13  18
ENDBRANCH   6  11
ENDBRANCH   1   3
BRANCH   1  24
ATOM     24  C   UNL     1      32.540  -7.932 163.224  0.00  0.00    +0.000 C 
BRANCH  24  31
ATOM     25  O   UNL     1      31.740  -2.779 163.921  0.00  0.00    +0.000 OA
ATOM     26  N   UNL     1      31.633  -5.665 163.592  0.00  0.00    +0.000 N 
ATOM     27  N   UNL     1      29.006  -6.729 164.282  0.00  0.00    +0.000 N 
ATOM     28  N   UNL     1      28.287  -4.563 164.874  0.00  0.00    +0.000 NA
ATOM     29  N   UNL     1      29.595  -2.684 164.545  0.00  0.00    +0.000 N 
ATOM     30  N   UNL     1      27.463  -2.481 165.389  0.00  0.00    +0.000 N 
ATOM     31  C   UNL     1      31.491  -7.049 163.592  0.00  0.00    +0.000 C 
ATOM     32  C   UNL     1      30.199  -7.451 163.969  0.00  0.00    +0.000 C 
ATOM     33  C   UNL     1      30.537  -4.867 164.022  0.00  0.00    +0.000 A 
ATOM     34  C   UNL     1      29.301  -5.357 164.382  0.00  0.00    +0.000 A 
ATOM     35  C   UNL     1      30.694  -3.380 164.144  0.00  0.00    +0.000 A 
ATOM     36  C   UNL     1      28.451  -3.286 164.932  0.00  0.00    +0.000 A 
ATOM     37  H   UNL     1      28.369  -7.014 165.021  0.00  0.00    +0.000 HD
ATOM     38  H   UNL     1      29.722  -1.692 164.670  0.00  0.00    +0.000 HD
ATOM     39  H   UNL     1      26.574  -2.969 165.461  0.00  0.00    +0.000 HD
ATOM     40  H   UNL     1      27.373  -1.574 164.951  0.00  0.00    +0.000 HD
BRANCH  26  42
ATOM     41  O   UNL     1      33.858  -4.728 162.851  0.00  0.00    +0.000 OA
ATOM     42  C   UNL     1      32.820  -5.136 163.222  0.00  0.00    +0.000 C 
ENDBRANCH  26  42
ENDBRANCH  24  31
ENDBRANCH   1  24
TORSDOF 10
ENDMDL
MODEL 6
REMARK VINA RESULT:      -7.0      7.031     10.564
REMARK  Name = 135403648_CalciumFolinate.pdbqt.pdb
REMARK  10 active torsions:
REMARK  status: ('A' for Active; 'I' for Inactive)
REMARK    1  A    between atoms: N_1  and  C_3
REMARK    2  A    between atoms: N_1  and  C_24
REMARK    3  A    between atoms: C_6  and  C_11
REMARK    4  A    between atoms: CA_13  and  C_15
REMARK    5  A    between atoms: CA_13  and  CB_18
REMARK    6  A    between atoms: C_15  and  O_16
REMARK    7  A    between atoms: CG_19  and  CD_21
REMARK    8  A    between atoms: CD_21  and  OE1_22
REMARK    9  A    between atoms: C_24  and  C_32
REMARK   10  A    between atoms: N_27  and  C_37
REMARK                            x       y       z     vdW  Elec       q    Type
REMARK                         _______ _______ _______ _____ _____    ______ ____
ROOT
ATOM      1  N   UNL     1      18.293   0.461 191.862  0.00  0.00    +0.000 N 
ATOM      2  H   UNL     1      17.916  -0.472 191.701  0.00  0.00    +0.000 HD
ENDROOT
BRANCH   1   3
ATOM      3  C   UNL     1      19.003   0.546 193.078  0.00  0.00    +0.000 A 
ATOM      4  C   UNL     1      18.478  -0.071 194.218  0.00  0.00    +0.000 A 
ATOM      5  C   UNL     1      20.122   1.373 193.232  0.00  0.00    +0.000 A 
ATOM      6  C   UNL     1      20.232   0.864 195.591  0.00  0.00    +0.000 A 
ATOM      7  C   UNL     1      19.094   0.072 195.461  0.00  0.00    +0.000 A 
ATOM      8  C   UNL     1      20.743   1.520 194.470  0.00  0.00    +0.000 A 
BRANCH   6  11
ATOM      9  O   UNL     1      20.291   0.856 197.925  0.00  0.00    +0.000 OA
ATOM     10  N   UNL     1      22.254   1.413 196.828  0.00  0.00    +0.000 N 
ATOM     11  C   ACE A   0      20.924   1.042 196.892  0.00  0.00    +0.000 C 
ATOM     12  H   UNL     1      22.692   1.549 195.921  0.00  0.00    +0.000 HD
ATOM     13  CA  UNL     1      23.107   1.642 197.893  0.00  0.00    +0.000 C 
BRANCH  13  15
ATOM     14  OXT UNL     1      25.390   2.182 198.352  0.00  0.00    +0.000 OA
ATOM     15  C   UNL     1      24.492   2.036 197.536  0.00  0.00    +0.000 C 
BRANCH  15  16
ATOM     16  O   UNL     1      24.690   2.222 196.222  0.00  0.00    +0.000 OA
ATOM     17  H   UNL     1      23.981   2.840 195.946  0.00  0.00    +0.000 HD
ENDBRANCH  15  16
ENDBRANCH  13  15
BRANCH  13  18
ATOM     18  CB  UNL     1      22.689   1.508 199.243  0.00  0.00    +0.000 C 
ATOM     19  CG  UNL     1      22.235   1.375 200.701  0.00  0.00    +0.000 C 
BRANCH  19  21
ATOM     20  OE2 UNL     1      20.824   1.833 202.507  0.00  0.00    +0.000 OA
ATOM     21  CD  UNL     1      21.809   1.269 202.063  0.00  0.00    +0.000 C 
BRANCH  21  22
ATOM     22  OE1 UNL     1      22.606   0.504 202.830  0.00  0.00    +0.000 OA
ATOM     23  HE1 UNL     1      22.078  -0.309 202.965  0.00  0.00    +0.000 HD
ENDBRANCH  21  22
ENDBRANCH  19  21
ENDBRANCH  13  18
ENDBRANCH   6  11
ENDBRANCH   1   3
BRANCH   1  24
ATOM     24  C   UNL     1      18.830   1.143 190.690  0.00  0.00    +0.000 C 
BRANCH  24  31
ATOM     25  O   UNL     1      23.401   2.158 188.292  0.00  0.00    +0.000 OA
ATOM     26  N   UNL     1      20.648   1.796 189.153  0.00  0.00    +0.000 N 
ATOM     27  N   UNL     1      18.775   3.129 187.357  0.00  0.00    +0.000 N 
ATOM     28  N   UNL     1      20.583   3.945 186.081  0.00  0.00    +0.000 NA
ATOM     29  N   UNL     1      22.774   3.329 186.493  0.00  0.00    +0.000 N 
ATOM     30  N   UNL     1      22.269   4.712 184.723  0.00  0.00    +0.000 N 
ATOM     31  C   UNL     1      19.308   1.798 189.524  0.00  0.00    +0.000 C 
ATOM     32  C   UNL     1      18.503   2.493 188.608  0.00  0.00    +0.000 C 
ATOM     33  C   UNL     1      21.035   2.520 187.992  0.00  0.00    +0.000 A 
ATOM     34  C   UNL     1      20.166   3.182 187.151  0.00  0.00    +0.000 A 
ATOM     35  C   UNL     1      22.486   2.634 187.627  0.00  0.00    +0.000 A 
ATOM     36  C   UNL     1      21.835   3.990 185.783  0.00  0.00    +0.000 A 
ATOM     37  H   UNL     1      18.338   4.002 187.078  0.00  0.00    +0.000 HD
ATOM     38  H   UNL     1      23.753   3.442 186.280  0.00  0.00    +0.000 HD
ATOM     39  H   UNL     1      21.504   5.005 184.120  0.00  0.00    +0.000 HD
ATOM     40  H   UNL     1      23.051   4.338 184.203  0.00  0.00    +0.000 HD
BRANCH  26  42
ATOM     41  O   UNL     1      22.290   0.611 190.663  0.00  0.00    +0.000 OA
ATOM     42  C   UNL     1      21.535   1.138 189.931  0.00  0.00    +0.000 C 
ENDBRANCH  26  42
ENDBRANCH  24  31
ENDBRANCH   1  24
TORSDOF 10
ENDMDL
MODEL 7
REMARK VINA RESULT:      -6.9      1.886      2.901
REMARK  Name = 135403648_CalciumFolinate.pdbqt.pdb
REMARK  10 active torsions:
REMARK  status: ('A' for Active; 'I' for Inactive)
REMARK    1  A    between atoms: N_1  and  C_3
REMARK    2  A    between atoms: N_1  and  C_24
REMARK    3  A    between atoms: C_6  and  C_11
REMARK    4  A    between atoms: CA_13  and  C_15
REMARK    5  A    between atoms: CA_13  and  CB_18
REMARK    6  A    between atoms: C_15  and  O_16
REMARK    7  A    between atoms: CG_19  and  CD_21
REMARK    8  A    between atoms: CD_21  and  OE1_22
REMARK    9  A    between atoms: C_24  and  C_32
REMARK   10  A    between atoms: N_27  and  C_37
REMARK                            x       y       z     vdW  Elec       q    Type
REMARK                         _______ _______ _______ _____ _____    ______ ____
ROOT
ATOM      1  N   UNL     1      28.611   0.237 190.791  0.00  0.00    +0.000 N 
ATOM      2  H   UNL     1      28.813  -0.364 191.590  0.00  0.00    +0.000 HD
ENDROOT
BRANCH   1   3
ATOM      3  C   UNL     1      27.225   0.378 190.567  0.00  0.00    +0.000 A 
ATOM      4  C   UNL     1      26.785   1.112 189.462  0.00  0.00    +0.000 A 
ATOM      5  C   UNL     1      26.273  -0.036 191.506  0.00  0.00    +0.000 A 
ATOM      6  C   UNL     1      24.488   0.906 190.179  0.00  0.00    +0.000 A 
ATOM      7  C   UNL     1      25.428   1.361 189.259  0.00  0.00    +0.000 A 
ATOM      8  C   UNL     1      24.916   0.209 191.310  0.00  0.00    +0.000 A 
BRANCH   6  11
ATOM      9  O   UNL     1      22.640   1.622 188.946  0.00  0.00    +0.000 OA
ATOM     10  N   UNL     1      22.227   0.799 191.072  0.00  0.00    +0.000 N 
ATOM     11  C   ACE A   0      23.034   1.143 190.004  0.00  0.00    +0.000 C 
ATOM     12  H   UNL     1      22.649   0.411 191.912  0.00  0.00    +0.000 HD
ATOM     13  CA  UNL     1      20.851   0.925 191.153  0.00  0.00    +0.000 C 
BRANCH  13  15
ATOM     14  OXT UNL     1      19.085   0.729 192.751  0.00  0.00    +0.000 OA
ATOM     15  C   UNL     1      20.237   0.479 192.427  0.00  0.00    +0.000 C 
BRANCH  15  16
ATOM     16  O   UNL     1      21.056  -0.236 193.212  0.00  0.00    +0.000 OA
ATOM     17  H   UNL     1      21.849  -0.404 192.662  0.00  0.00    +0.000 HD
ENDBRANCH  15  16
ENDBRANCH  13  15
BRANCH  13  18
ATOM     18  CB  UNL     1      20.074   1.447 190.086  0.00  0.00    +0.000 C 
ATOM     19  CG  UNL     1      19.244   2.015 188.928  0.00  0.00    +0.000 C 
BRANCH  19  21
ATOM     20  OE2 UNL     1      18.977   3.181 186.920  0.00  0.00    +0.000 OA
ATOM     21  CD  UNL     1      18.485   2.549 187.838  0.00  0.00    +0.000 C 
BRANCH  21  22
ATOM     22  OE1 UNL     1      17.164   2.312 187.922  0.00  0.00    +0.000 OA
ATOM     23  HE1 UNL     1      16.769   3.064 187.435  0.00  0.00    +0.000 HD
ENDBRANCH  21  22
ENDBRANCH  19  21
ENDBRANCH  13  18
ENDBRANCH   6  11
ENDBRANCH   1   3
BRANCH   1  24
ATOM     24  C   UNL     1      29.466   1.409 190.643  0.00  0.00    +0.000 C 
BRANCH  24  31
ATOM     25  O   UNL     1      34.583   2.453 190.008  0.00  0.00    +0.000 OA
ATOM     26  N   UNL     1      31.685   2.410 190.233  0.00  0.00    +0.000 N 
ATOM     27  N   UNL     1      30.564   5.103 190.192  0.00  0.00    +0.000 N 
ATOM     28  N   UNL     1      32.739   6.005 190.070  0.00  0.00    +0.000 NA
ATOM     29  N   UNL     1      34.623   4.682 189.840  0.00  0.00    +0.000 N 
ATOM     30  N   UNL     1      34.810   6.977 189.859  0.00  0.00    +0.000 N 
ATOM     31  C   UNL     1      30.317   2.530 190.456  0.00  0.00    +0.000 C 
ATOM     32  C   UNL     1      29.892   3.868 190.446  0.00  0.00    +0.000 C 
ATOM     33  C   UNL     1      32.461   3.595 190.103  0.00  0.00    +0.000 A 
ATOM     34  C   UNL     1      31.950   4.875 190.114  0.00  0.00    +0.000 A 
ATOM     35  C   UNL     1      33.953   3.506 189.977  0.00  0.00    +0.000 A 
ATOM     36  C   UNL     1      34.014   5.884 189.929  0.00  0.00    +0.000 A 
ATOM     37  H   UNL     1      30.369   5.953 190.713  0.00  0.00    +0.000 HD
ATOM     38  H   UNL     1      35.628   4.617 189.804  0.00  0.00    +0.000 HD
ATOM     39  H   UNL     1      34.276   7.831 189.721  0.00  0.00    +0.000 HD
ATOM     40  H   UNL     1      35.614   6.919 189.248  0.00  0.00    +0.000 HD
BRANCH  26  42
ATOM     41  O   UNL     1      32.635   0.072 190.148  0.00  0.00    +0.000 OA
ATOM     42  C   UNL     1      32.229   1.174 190.189  0.00  0.00    +0.000 C 
ENDBRANCH  26  42
ENDBRANCH  24  31
ENDBRANCH   1  24
TORSDOF 10
ENDMDL
MODEL 8
REMARK VINA RESULT:      -6.8     28.374     30.322
REMARK  Name = 135403648_CalciumFolinate.pdbqt.pdb
REMARK  10 active torsions:
REMARK  status: ('A' for Active; 'I' for Inactive)
REMARK    1  A    between atoms: N_1  and  C_3
REMARK    2  A    between atoms: N_1  and  C_24
REMARK    3  A    between atoms: C_6  and  C_11
REMARK    4  A    between atoms: CA_13  and  C_15
REMARK    5  A    between atoms: CA_13  and  CB_18
REMARK    6  A    between atoms: C_15  and  O_16
REMARK    7  A    between atoms: CG_19  and  CD_21
REMARK    8  A    between atoms: CD_21  and  OE1_22
REMARK    9  A    between atoms: C_24  and  C_32
REMARK   10  A    between atoms: N_27  and  C_37
REMARK                            x       y       z     vdW  Elec       q    Type
REMARK                         _______ _______ _______ _____ _____    ______ ____
ROOT
ATOM      1  N   UNL     1      47.255  -3.394 165.905  0.00  0.00    +0.000 N 
ATOM      2  H   UNL     1      48.061  -4.004 166.037  0.00  0.00    +0.000 HD
ENDROOT
BRANCH   1   3
ATOM      3  C   UNL     1      46.048  -4.119 165.817  0.00  0.00    +0.000 A 
ATOM      4  C   UNL     1      46.091  -5.476 165.481  0.00  0.00    +0.000 A 
ATOM      5  C   UNL     1      44.797  -3.494 165.877  0.00  0.00    +0.000 A 
ATOM      6  C   UNL     1      43.680  -5.579 165.391  0.00  0.00    +0.000 A 
ATOM      7  C   UNL     1      44.919  -6.205 165.285  0.00  0.00    +0.000 A 
ATOM      8  C   UNL     1      43.622  -4.216 165.683  0.00  0.00    +0.000 A 
BRANCH   6  11
ATOM      9  O   UNL     1      41.350  -5.732 165.412  0.00  0.00    +0.000 OA
ATOM     10  N   UNL     1      42.519  -7.628 164.775  0.00  0.00    +0.000 N 
ATOM     11  C   ACE A   0      42.406  -6.315 165.194  0.00  0.00    +0.000 C 
ATOM     12  H   UNL     1      43.443  -8.026 164.625  0.00  0.00    +0.000 HD
ATOM     13  CA  UNL     1      41.487  -8.515 164.526  0.00  0.00    +0.000 C 
BRANCH  13  15
ATOM     14  OXT UNL     1      41.449 -10.431 163.097  0.00  0.00    +0.000 OA
ATOM     15  C   UNL     1      41.896  -9.872 164.088  0.00  0.00    +0.000 C 
BRANCH  15  16
ATOM     16  O   UNL     1      42.814 -10.452 164.877  0.00  0.00    +0.000 OA
ATOM     17  H   UNL     1      42.623 -10.113 165.776  0.00  0.00    +0.000 HD
ENDBRANCH  15  16
ENDBRANCH  13  15
BRANCH  13  18
ATOM     18  CB  UNL     1      40.123  -8.154 164.678  0.00  0.00    +0.000 C 
ATOM     19  CG  UNL     1      38.646  -7.775 164.837  0.00  0.00    +0.000 C 
BRANCH  19  21
ATOM     20  OE2 UNL     1      36.845  -6.293 164.994  0.00  0.00    +0.000 OA
ATOM     21  CD  UNL     1      37.262  -7.438 164.980  0.00  0.00    +0.000 C 
BRANCH  21  22
ATOM     22  OE1 UNL     1      36.451  -8.501 165.121  0.00  0.00    +0.000 OA
ATOM     23  HE1 UNL     1      35.591  -8.175 164.786  0.00  0.00    +0.000 HD
ENDBRANCH  21  22
ENDBRANCH  19  21
ENDBRANCH  13  18
ENDBRANCH   6  11
ENDBRANCH   1   3
BRANCH   1  24
ATOM     24  C   UNL     1      47.269  -2.148 166.661  0.00  0.00    +0.000 C 
BRANCH  24  31
ATOM     25  O   UNL     1      46.372   2.953 165.732  0.00  0.00    +0.000 OA
ATOM     26  N   UNL     1      46.868   0.286 166.778  0.00  0.00    +0.000 N 
ATOM     27  N   UNL     1      47.516   0.350 169.621  0.00  0.00    +0.000 N 
ATOM     28  N   UNL     1      47.378   2.703 169.598  0.00  0.00    +0.000 NA
ATOM     29  N   UNL     1      46.685   3.891 167.738  0.00  0.00    +0.000 N 
ATOM     30  N   UNL     1      47.178   4.989 169.700  0.00  0.00    +0.000 N 
ATOM     31  C   UNL     1      47.244  -0.916 167.368  0.00  0.00    +0.000 C 
ATOM     32  C   UNL     1      47.564  -0.764 168.727  0.00  0.00    +0.000 C 
ATOM     33  C   UNL     1      46.920   1.474 167.558  0.00  0.00    +0.000 A 
ATOM     34  C   UNL     1      47.255   1.525 168.893  0.00  0.00    +0.000 A 
ATOM     35  C   UNL     1      46.631   2.802 166.922  0.00  0.00    +0.000 A 
ATOM     36  C   UNL     1      47.090   3.820 169.024  0.00  0.00    +0.000 A 
ATOM     37  H   UNL     1      48.225   0.516 170.330  0.00  0.00    +0.000 HD
ATOM     38  H   UNL     1      46.537   4.783 167.294  0.00  0.00    +0.000 HD
ATOM     39  H   UNL     1      47.281   4.847 170.701  0.00  0.00    +0.000 HD
ATOM     40  H   UNL     1      46.494   5.700 169.477  0.00  0.00    +0.000 HD
BRANCH  26  42
ATOM     41  O   UNL     1      46.198   0.209 164.344  0.00  0.00    +0.000 OA
ATOM     42  C   UNL     1      46.505   0.283 165.477  0.00  0.00    +0.000 C 
ENDBRANCH  26  42
ENDBRANCH  24  31
ENDBRANCH   1  24
TORSDOF 10
ENDMDL
MODEL 9
REMARK VINA RESULT:      -6.8     26.048     27.673
REMARK  Name = 135403648_CalciumFolinate.pdbqt.pdb
REMARK  10 active torsions:
REMARK  status: ('A' for Active; 'I' for Inactive)
REMARK    1  A    between atoms: N_1  and  C_3
REMARK    2  A    between atoms: N_1  and  C_24
REMARK    3  A    between atoms: C_6  and  C_11
REMARK    4  A    between atoms: CA_13  and  C_15
REMARK    5  A    between atoms: CA_13  and  CB_18
REMARK    6  A    between atoms: C_15  and  O_16
REMARK    7  A    between atoms: CG_19  and  CD_21
REMARK    8  A    between atoms: CD_21  and  OE1_22
REMARK    9  A    between atoms: C_24  and  C_32
REMARK   10  A    between atoms: N_27  and  C_37
REMARK                            x       y       z     vdW  Elec       q    Type
REMARK                         _______ _______ _______ _____ _____    ______ ____
ROOT
ATOM      1  N   UNL     1      36.309  -8.755 163.512  0.00  0.00    +0.000 N 
ATOM      2  H   UNL     1      36.487  -9.657 163.072  0.00  0.00    +0.000 HD
ENDROOT
BRANCH   1   3
ATOM      3  C   UNL     1      34.996  -8.661 164.020  0.00  0.00    +0.000 A 
ATOM      4  C   UNL     1      34.180  -9.798 164.013  0.00  0.00    +0.000 A 
ATOM      5  C   UNL     1      34.415  -7.435 164.365  0.00  0.00    +0.000 A 
ATOM      6  C   UNL     1      32.294  -8.507 164.793  0.00  0.00    +0.000 A 
ATOM      7  C   UNL     1      32.846  -9.727 164.411  0.00  0.00    +0.000 A 
ATOM      8  C   UNL     1      33.083  -7.357 164.764  0.00  0.00    +0.000 A 
BRANCH   6  11
ATOM      9  O   UNL     1      30.478  -9.105 166.134  0.00  0.00    +0.000 OA
ATOM     10  N   UNL     1      30.116  -7.446 164.558  0.00  0.00    +0.000 N 
ATOM     11  C   ACE A   0      30.880  -8.384 165.227  0.00  0.00    +0.000 C 
ATOM     12  H   UNL     1      30.539  -6.897 163.814  0.00  0.00    +0.000 HD
ATOM     13  CA  UNL     1      28.783  -7.147 164.775  0.00  0.00    +0.000 C 
BRANCH  13  15
ATOM     14  OXT UNL     1      28.578  -5.881 162.758  0.00  0.00    +0.000 OA
ATOM     15  C   UNL     1      28.208  -6.094 163.903  0.00  0.00    +0.000 C 
BRANCH  15  16
ATOM     16  O   UNL     1      27.229  -5.378 164.477  0.00  0.00    +0.000 OA
ATOM     17  H   UNL     1      26.531  -6.032 164.691  0.00  0.00    +0.000 HD
ENDBRANCH  15  16
ENDBRANCH  13  15
BRANCH  13  18
ATOM     18  CB  UNL     1      28.010  -7.804 165.768  0.00  0.00    +0.000 C 
ATOM     19  CG  UNL     1      27.168  -8.516 166.833  0.00  0.00    +0.000 C 
BRANCH  19  21
ATOM     20  OE2 UNL     1      26.632  -9.197 169.004  0.00  0.00    +0.000 OA
ATOM     21  CD  UNL     1      26.369  -9.186 167.814  0.00  0.00    +0.000 C 
BRANCH  21  22
ATOM     22  OE1 UNL     1      25.303  -9.829 167.306  0.00  0.00    +0.000 OA
ATOM     23  HE1 UNL     1      25.575 -10.030 166.388  0.00  0.00    +0.000 HD
ENDBRANCH  21  22
ENDBRANCH  19  21
ENDBRANCH  13  18
ENDBRANCH   6  11
ENDBRANCH   1   3
BRANCH   1  24
ATOM     24  C   UNL     1      37.404  -8.203 164.301  0.00  0.00    +0.000 C 
BRANCH  24  31
ATOM     25  O   UNL     1      42.547  -8.867 165.185  0.00  0.00    +0.000 OA
ATOM     26  N   UNL     1      39.769  -8.034 164.988  0.00  0.00    +0.000 N 
ATOM     27  N   UNL     1      39.187  -5.802 166.774  0.00  0.00    +0.000 N 
ATOM     28  N   UNL     1      41.401  -5.873 167.580  0.00  0.00    +0.000 NA
ATOM     29  N   UNL     1      43.010  -7.270 166.680  0.00  0.00    +0.000 N 
ATOM     30  N   UNL     1      43.559  -5.801 168.366  0.00  0.00    +0.000 N 
ATOM     31  C   UNL     1      38.444  -7.622 165.074  0.00  0.00    +0.000 C 
ATOM     32  C   UNL     1      38.273  -6.566 165.984  0.00  0.00    +0.000 C 
ATOM     33  C   UNL     1      40.731  -7.421 165.838  0.00  0.00    +0.000 A 
ATOM     34  C   UNL     1      40.465  -6.388 166.710  0.00  0.00    +0.000 A 
ATOM     35  C   UNL     1      42.146  -7.919 165.853  0.00  0.00    +0.000 A 
ATOM     36  C   UNL     1      42.614  -6.306 167.539  0.00  0.00    +0.000 A 
ATOM     37  H   UNL     1      38.977  -5.501 167.720  0.00  0.00    +0.000 HD
ATOM     38  H   UNL     1      43.946  -7.640 166.720  0.00  0.00    +0.000 HD
ATOM     39  H   UNL     1      43.249  -4.950 168.827  0.00  0.00    +0.000 HD
ATOM     40  H   UNL     1      44.497  -5.722 167.995  0.00  0.00    +0.000 HD
BRANCH  26  42
ATOM     41  O   UNL     1      40.385  -9.840 163.334  0.00  0.00    +0.000 OA
ATOM     42  C   UNL     1      40.085  -9.027 164.127  0.00  0.00    +0.000 C 
ENDBRANCH  26  42
ENDBRANCH  24  31
ENDBRANCH   1  24
TORSDOF 10
ENDMDL
