MODEL 1
REMARK VINA RESULT:      -9.4      0.000      0.000
REMARK  Name = 135423438_Nintedanib.pdbqt.pdb
REMARK  9 active torsions:
REMARK  status: ('A' for Active; 'I' for Inactive)
REMARK    1  A    between atoms: N_1  and  C_22
REMARK    2  A    between atoms: C_2  and  C_4
REMARK    3  A    between atoms: C_2  and  C_37
REMARK    4  A    between atoms: C_7  and  O_13
REMARK    5  A    between atoms: C_10  and  C_16
REMARK    6  A    between atoms: C_16  and  O_17
REMARK    7  A    between atoms: C_19  and  N_26
REMARK    8  A    between atoms: C_27  and  C_29
REMARK    9  A    between atoms: C_29  and  N_30
REMARK                            x       y       z     vdW  Elec       q    Type
REMARK                         _______ _______ _______ _____ _____    ______ ____
ROOT
ATOM      1  N   UNL     1      18.839   0.778 191.302  0.00  0.00    +0.000 NA
ATOM      2  C   UNL     1      19.707   1.502 190.655  0.00  0.00    +0.000 C 
ENDROOT
BRANCH   2   4
ATOM      3  N   UNL     1      18.124   2.378 187.469  0.00  0.00    +0.000 N 
ATOM      4  C   UNL     1      19.318   1.951 189.312  0.00  0.00    +0.000 A 
ATOM      5  C   UNL     1      20.168   2.568 188.327  0.00  0.00    +0.000 A 
ATOM      6  C   UNL     1      19.394   2.822 187.196  0.00  0.00    +0.000 A 
ATOM      7  C   UNL     1      18.060   1.847 188.733  0.00  0.00    +0.000 A 
ATOM      8  C   UNL     1      21.527   2.941 188.299  0.00  0.00    +0.000 A 
ATOM      9  C   UNL     1      19.905   3.422 186.041  0.00  0.00    +0.000 A 
ATOM     10  C   UNL     1      21.260   3.777 186.044  0.00  0.00    +0.000 A 
ATOM     11  C   UNL     1      22.059   3.541 187.157  0.00  0.00    +0.000 A 
ATOM     12  H   UNL     1      17.354   2.434 186.819  0.00  0.00    +0.000 HD
BRANCH   7  13
ATOM     13  O   UNL     1      16.930   1.337 189.211  0.00  0.00    +0.000 OA
ATOM     14  H   UNL     1      16.678   1.777 190.042  0.00  0.00    +0.000 HD
ENDBRANCH   7  13
BRANCH  10  16
ATOM     15  O   UNL     1      22.476   5.487 184.934  0.00  0.00    +0.000 OA
ATOM     16  C   UNL     1      21.888   4.417 184.867  0.00  0.00    +0.000 C 
BRANCH  16  17
ATOM     17  O   UNL     1      21.685   3.622 183.778  0.00  0.00    +0.000 OA
ATOM     18  C   UNL     1      21.718   4.219 182.507  0.00  0.00    +0.000 C 
ENDBRANCH  16  17
ENDBRANCH  10  16
ENDBRANCH   2   4
BRANCH   1  22
ATOM     19  C   UNL     1      19.609  -0.767 195.165  0.00  0.00    +0.000 A 
ATOM     20  C   UNL     1      19.082   0.514 194.981  0.00  0.00    +0.000 A 
ATOM     21  C   UNL     1      19.874  -1.521 194.013  0.00  0.00    +0.000 A 
ATOM     22  C   UNL     1      19.133   0.275 192.575  0.00  0.00    +0.000 A 
ATOM     23  C   UNL     1      18.836   1.029 193.709  0.00  0.00    +0.000 A 
ATOM     24  C   UNL     1      19.631  -1.016 192.737  0.00  0.00    +0.000 A 
BRANCH  19  26
ATOM     25  O   UNL     1      17.674  -0.964 197.309  0.00  0.00    +0.000 OA
ATOM     26  N   UNL     1      19.873  -1.303 196.481  0.00  0.00    +0.000 N 
ATOM     27  C   UNL     1      18.834  -1.342 197.445  0.00  0.00    +0.000 C 
ATOM     28  C   UNL     1      21.246  -1.765 196.704  0.00  0.00    +0.000 C 
BRANCH  27  29
ATOM     29  C   UNL     1      19.178  -1.888 198.750  0.00  0.00    +0.000 C 
BRANCH  29  30
ATOM     30  N   UNL     1      19.533  -2.408 200.069  0.00  0.00    +0.000 N 
ATOM     31  N   UNL     1      20.332   0.042 202.510  0.00  0.00    +0.000 N 
ATOM     32  C   UNL     1      20.820  -1.764 200.453  0.00  0.00    +0.000 C 
ATOM     33  C   UNL     1      18.693  -1.671 201.054  0.00  0.00    +0.000 C 
ATOM     34  C   UNL     1      21.170  -0.688 201.521  0.00  0.00    +0.000 C 
ATOM     35  C   UNL     1      19.044  -0.594 202.122  0.00  0.00    +0.000 C 
ATOM     36  C   UNL     1      20.269   1.429 202.069  0.00  0.00    +0.000 C 
ENDBRANCH  29  30
ENDBRANCH  27  29
ENDBRANCH  19  26
ENDBRANCH   1  22
BRANCH   2  37
ATOM     37  C   UNL     1      21.032   1.891 191.169  0.00  0.00    +0.000 A 
ATOM     38  C   UNL     1      21.179   3.102 191.843  0.00  0.00    +0.000 A 
ATOM     39  C   UNL     1      22.109   1.021 190.999  0.00  0.00    +0.000 A 
ATOM     40  C   UNL     1      22.428   3.449 192.348  0.00  0.00    +0.000 A 
ATOM     41  C   UNL     1      23.353   1.378 191.507  0.00  0.00    +0.000 A 
ATOM     42  C   UNL     1      23.513   2.589 192.181  0.00  0.00    +0.000 A 
ENDBRANCH   2  37
TORSDOF 9
ENDMDL
MODEL 2
REMARK VINA RESULT:      -8.6      2.272      2.840
REMARK  Name = 135423438_Nintedanib.pdbqt.pdb
REMARK  9 active torsions:
REMARK  status: ('A' for Active; 'I' for Inactive)
REMARK    1  A    between atoms: N_1  and  C_22
REMARK    2  A    between atoms: C_2  and  C_4
REMARK    3  A    between atoms: C_2  and  C_37
REMARK    4  A    between atoms: C_7  and  O_13
REMARK    5  A    between atoms: C_10  and  C_16
REMARK    6  A    between atoms: C_16  and  O_17
REMARK    7  A    between atoms: C_19  and  N_26
REMARK    8  A    between atoms: C_27  and  C_29
REMARK    9  A    between atoms: C_29  and  N_30
REMARK                            x       y       z     vdW  Elec       q    Type
REMARK                         _______ _______ _______ _____ _____    ______ ____
ROOT
ATOM      1  N   UNL     1      18.948   0.464 192.090  0.00  0.00    +0.000 NA
ATOM      2  C   UNL     1      19.702   1.235 191.361  0.00  0.00    +0.000 C 
ENDROOT
BRANCH   2   4
ATOM      3  N   UNL     1      17.788   1.988 188.329  0.00  0.00    +0.000 N 
ATOM      4  C   UNL     1      19.175   1.618 190.045  0.00  0.00    +0.000 A 
ATOM      5  C   UNL     1      19.926   2.127 188.927  0.00  0.00    +0.000 A 
ATOM      6  C   UNL     1      19.034   2.348 187.880  0.00  0.00    +0.000 A 
ATOM      7  C   UNL     1      17.853   1.542 189.625  0.00  0.00    +0.000 A 
ATOM      8  C   UNL     1      21.288   2.426 188.715  0.00  0.00    +0.000 A 
ATOM      9  C   UNL     1      19.428   2.847 186.634  0.00  0.00    +0.000 A 
ATOM     10  C   UNL     1      20.788   3.131 186.454  0.00  0.00    +0.000 A 
ATOM     11  C   UNL     1      21.704   2.926 187.480  0.00  0.00    +0.000 A 
ATOM     12  H   UNL     1      16.949   2.043 187.771  0.00  0.00    +0.000 HD
BRANCH   7  13
ATOM     13  O   UNL     1      16.768   1.122 190.267  0.00  0.00    +0.000 OA
ATOM     14  H   UNL     1      16.316   0.425 189.760  0.00  0.00    +0.000 HD
ENDBRANCH   7  13
BRANCH  10  16
ATOM     15  O   UNL     1      21.243   3.028 184.127  0.00  0.00    +0.000 OA
ATOM     16  C   UNL     1      21.297   3.663 185.171  0.00  0.00    +0.000 C 
BRANCH  16  17
ATOM     17  O   UNL     1      21.799   4.912 185.384  0.00  0.00    +0.000 OA
ATOM     18  C   UNL     1      23.071   5.211 184.870  0.00  0.00    +0.000 C 
ENDBRANCH  16  17
ENDBRANCH  10  16
ENDBRANCH   2   4
BRANCH   1  22
ATOM     19  C   UNL     1      20.363  -0.862 195.850  0.00  0.00    +0.000 A 
ATOM     20  C   UNL     1      20.429  -1.675 194.716  0.00  0.00    +0.000 A 
ATOM     21  C   UNL     1      19.807   0.414 195.691  0.00  0.00    +0.000 A 
ATOM     22  C   UNL     1      19.379   0.018 193.345  0.00  0.00    +0.000 A 
ATOM     23  C   UNL     1      19.955  -1.244 193.477  0.00  0.00    +0.000 A 
ATOM     24  C   UNL     1      19.331   0.856 194.457  0.00  0.00    +0.000 A 
BRANCH  19  26
ATOM     25  O   UNL     1      23.080  -0.573 196.809  0.00  0.00    +0.000 OA
ATOM     26  N   UNL     1      20.847  -1.307 197.138  0.00  0.00    +0.000 N 
ATOM     27  C   UNL     1      22.206  -1.105 197.486  0.00  0.00    +0.000 C 
ATOM     28  C   UNL     1      19.846  -1.956 197.990  0.00  0.00    +0.000 C 
BRANCH  27  29
ATOM     29  C   UNL     1      22.620  -1.587 198.797  0.00  0.00    +0.000 C 
BRANCH  29  30
ATOM     30  N   UNL     1      23.010  -2.088 200.113  0.00  0.00    +0.000 N 
ATOM     31  N   UNL     1      26.300  -1.248 201.149  0.00  0.00    +0.000 N 
ATOM     32  C   UNL     1      24.318  -2.778 199.939  0.00  0.00    +0.000 C 
ATOM     33  C   UNL     1      23.552  -0.922 200.865  0.00  0.00    +0.000 C 
ATOM     34  C   UNL     1      25.761  -2.409 200.391  0.00  0.00    +0.000 C 
ATOM     35  C   UNL     1      24.996  -0.553 201.316  0.00  0.00    +0.000 C 
ATOM     36  C   UNL     1      27.084  -0.458 200.210  0.00  0.00    +0.000 C 
ENDBRANCH  29  30
ENDBRANCH  27  29
ENDBRANCH  19  26
ENDBRANCH   1  22
BRANCH   2  37
ATOM     37  C   UNL     1      21.029   1.738 191.759  0.00  0.00    +0.000 A 
ATOM     38  C   UNL     1      21.145   3.018 192.298  0.00  0.00    +0.000 A 
ATOM     39  C   UNL     1      22.140   0.907 191.618  0.00  0.00    +0.000 A 
ATOM     40  C   UNL     1      22.397   3.474 192.696  0.00  0.00    +0.000 A 
ATOM     41  C   UNL     1      23.388   1.374 192.018  0.00  0.00    +0.000 A 
ATOM     42  C   UNL     1      23.517   2.655 192.556  0.00  0.00    +0.000 A 
ENDBRANCH   2  37
TORSDOF 9
ENDMDL
MODEL 3
REMARK VINA RESULT:      -8.4      2.234      3.197
REMARK  Name = 135423438_Nintedanib.pdbqt.pdb
REMARK  9 active torsions:
REMARK  status: ('A' for Active; 'I' for Inactive)
REMARK    1  A    between atoms: N_1  and  C_22
REMARK    2  A    between atoms: C_2  and  C_4
REMARK    3  A    between atoms: C_2  and  C_37
REMARK    4  A    between atoms: C_7  and  O_13
REMARK    5  A    between atoms: C_10  and  C_16
REMARK    6  A    between atoms: C_16  and  O_17
REMARK    7  A    between atoms: C_19  and  N_26
REMARK    8  A    between atoms: C_27  and  C_29
REMARK    9  A    between atoms: C_29  and  N_30
REMARK                            x       y       z     vdW  Elec       q    Type
REMARK                         _______ _______ _______ _____ _____    ______ ____
ROOT
ATOM      1  N   UNL     1      21.925   0.569 192.080  0.00  0.00    +0.000 NA
ATOM      2  C   UNL     1      21.303   0.954 191.003  0.00  0.00    +0.000 C 
ENDROOT
BRANCH   2   4
ATOM      3  N   UNL     1      23.747   0.942 188.274  0.00  0.00    +0.000 N 
ATOM      4  C   UNL     1      22.125   1.144 189.801  0.00  0.00    +0.000 A 
ATOM      5  C   UNL     1      21.898   2.089 188.739  0.00  0.00    +0.000 A 
ATOM      6  C   UNL     1      22.922   1.935 187.807  0.00  0.00    +0.000 A 
ATOM      7  C   UNL     1      23.287   0.458 189.472  0.00  0.00    +0.000 A 
ATOM      8  C   UNL     1      20.908   3.059 188.485  0.00  0.00    +0.000 A 
ATOM      9  C   UNL     1      23.012   2.700 186.639  0.00  0.00    +0.000 A 
ATOM     10  C   UNL     1      22.014   3.658 186.417  0.00  0.00    +0.000 A 
ATOM     11  C   UNL     1      20.977   3.834 187.325  0.00  0.00    +0.000 A 
ATOM     12  H   UNL     1      24.577   0.625 187.794  0.00  0.00    +0.000 HD
BRANCH   7  13
ATOM     13  O   UNL     1      23.935  -0.502 190.124  0.00  0.00    +0.000 OA
ATOM     14  H   UNL     1      23.708  -1.377 189.764  0.00  0.00    +0.000 HD
ENDBRANCH   7  13
BRANCH  10  16
ATOM     15  O   UNL     1      22.264   5.711 185.252  0.00  0.00    +0.000 OA
ATOM     16  C   UNL     1      22.027   4.512 185.209  0.00  0.00    +0.000 C 
BRANCH  16  17
ATOM     17  O   UNL     1      21.741   3.738 184.124  0.00  0.00    +0.000 OA
ATOM     18  C   UNL     1      21.796   4.332 182.853  0.00  0.00    +0.000 C 
ENDBRANCH  16  17
ENDBRANCH  10  16
ENDBRANCH   2   4
BRANCH   1  22
ATOM     19  C   UNL     1      19.916  -0.037 195.755  0.00  0.00    +0.000 A 
ATOM     20  C   UNL     1      19.844  -0.971 194.719  0.00  0.00    +0.000 A 
ATOM     21  C   UNL     1      20.683   1.114 195.525  0.00  0.00    +0.000 A 
ATOM     22  C   UNL     1      21.232   0.394 193.284  0.00  0.00    +0.000 A 
ATOM     23  C   UNL     1      20.497  -0.771 193.504  0.00  0.00    +0.000 A 
ATOM     24  C   UNL     1      21.341   1.325 194.315  0.00  0.00    +0.000 A 
BRANCH  19  26
ATOM     25  O   UNL     1      20.911  -1.625 197.961  0.00  0.00    +0.000 OA
ATOM     26  N   UNL     1      19.235  -0.237 197.014  0.00  0.00    +0.000 N 
ATOM     27  C   UNL     1      19.833  -1.042 198.016  0.00  0.00    +0.000 C 
ATOM     28  C   UNL     1      17.936   0.432 197.134  0.00  0.00    +0.000 C 
BRANCH  27  29
ATOM     29  C   UNL     1      19.082  -1.204 199.253  0.00  0.00    +0.000 C 
BRANCH  29  30
ATOM     30  N   UNL     1      18.305  -1.355 200.481  0.00  0.00    +0.000 N 
ATOM     31  N   UNL     1      18.119   1.534 202.535  0.00  0.00    +0.000 N 
ATOM     32  C   UNL     1      19.162  -0.866 201.596  0.00  0.00    +0.000 C 
ATOM     33  C   UNL     1      17.344  -0.217 200.517  0.00  0.00    +0.000 C 
ATOM     34  C   UNL     1      19.083   0.402 202.495  0.00  0.00    +0.000 C 
ATOM     35  C   UNL     1      17.265   1.052 201.416  0.00  0.00    +0.000 C 
ATOM     36  C   UNL     1      18.828   2.710 202.049  0.00  0.00    +0.000 C 
ENDBRANCH  29  30
ENDBRANCH  27  29
ENDBRANCH  19  26
ENDBRANCH   1  22
BRANCH   2  37
ATOM     37  C   UNL     1      19.855   1.211 190.911  0.00  0.00    +0.000 A 
ATOM     38  C   UNL     1      19.049   0.344 190.176  0.00  0.00    +0.000 A 
ATOM     39  C   UNL     1      19.314   2.302 191.591  0.00  0.00    +0.000 A 
ATOM     40  C   UNL     1      17.679   0.580 190.116  0.00  0.00    +0.000 A 
ATOM     41  C   UNL     1      17.944   2.529 191.524  0.00  0.00    +0.000 A 
ATOM     42  C   UNL     1      17.127   1.669 190.788  0.00  0.00    +0.000 A 
ENDBRANCH   2  37
TORSDOF 9
ENDMDL
MODEL 4
REMARK VINA RESULT:      -8.1      4.427      6.042
REMARK  Name = 135423438_Nintedanib.pdbqt.pdb
REMARK  9 active torsions:
REMARK  status: ('A' for Active; 'I' for Inactive)
REMARK    1  A    between atoms: N_1  and  C_22
REMARK    2  A    between atoms: C_2  and  C_4
REMARK    3  A    between atoms: C_2  and  C_37
REMARK    4  A    between atoms: C_7  and  O_13
REMARK    5  A    between atoms: C_10  and  C_16
REMARK    6  A    between atoms: C_16  and  O_17
REMARK    7  A    between atoms: C_19  and  N_26
REMARK    8  A    between atoms: C_27  and  C_29
REMARK    9  A    between atoms: C_29  and  N_30
REMARK                            x       y       z     vdW  Elec       q    Type
REMARK                         _______ _______ _______ _____ _____    ______ ____
ROOT
ATOM      1  N   UNL     1      24.417   0.527 191.714  0.00  0.00    +0.000 NA
ATOM      2  C   UNL     1      24.342   1.260 190.641  0.00  0.00    +0.000 C 
ENDROOT
BRANCH   2   4
ATOM      3  N   UNL     1      27.144   1.364 188.283  0.00  0.00    +0.000 N 
ATOM      4  C   UNL     1      25.588   1.452 189.887  0.00  0.00    +0.000 A 
ATOM      5  C   UNL     1      26.762   2.162 190.324  0.00  0.00    +0.000 A 
ATOM      6  C   UNL     1      27.707   2.090 189.303  0.00  0.00    +0.000 A 
ATOM      7  C   UNL     1      25.874   0.969 188.617  0.00  0.00    +0.000 A 
ATOM      8  C   UNL     1      27.102   2.868 191.496  0.00  0.00    +0.000 A 
ATOM      9  C   UNL     1      28.973   2.679 189.392  0.00  0.00    +0.000 A 
ATOM     10  C   UNL     1      29.282   3.369 190.571  0.00  0.00    +0.000 A 
ATOM     11  C   UNL     1      28.359   3.464 191.607  0.00  0.00    +0.000 A 
ATOM     12  H   UNL     1      27.614   1.153 187.414  0.00  0.00    +0.000 HD
BRANCH   7  13
ATOM     13  O   UNL     1      25.138   0.237 187.787  0.00  0.00    +0.000 OA
ATOM     14  H   UNL     1      24.369   0.744 187.470  0.00  0.00    +0.000 HD
ENDBRANCH   7  13
BRANCH  10  16
ATOM     15  O   UNL     1      31.630   3.393 190.911  0.00  0.00    +0.000 OA
ATOM     16  C   UNL     1      30.595   4.024 190.755  0.00  0.00    +0.000 C 
BRANCH  16  17
ATOM     17  O   UNL     1      30.418   5.375 190.715  0.00  0.00    +0.000 OA
ATOM     18  C   UNL     1      31.183   6.117 189.800  0.00  0.00    +0.000 C 
ENDBRANCH  16  17
ENDBRANCH  10  16
ENDBRANCH   2   4
BRANCH   1  22
ATOM     19  C   UNL     1      21.078  -0.185 194.213  0.00  0.00    +0.000 A 
ATOM     20  C   UNL     1      21.513  -1.134 193.284  0.00  0.00    +0.000 A 
ATOM     21  C   UNL     1      21.796   1.016 194.282  0.00  0.00    +0.000 A 
ATOM     22  C   UNL     1      23.290   0.314 192.517  0.00  0.00    +0.000 A 
ATOM     23  C   UNL     1      22.607  -0.899 192.453  0.00  0.00    +0.000 A 
ATOM     24  C   UNL     1      22.892   1.263 193.456  0.00  0.00    +0.000 A 
BRANCH  19  26
ATOM     25  O   UNL     1      21.202  -1.258 196.899  0.00  0.00    +0.000 OA
ATOM     26  N   UNL     1      19.939  -0.422 195.071  0.00  0.00    +0.000 N 
ATOM     27  C   UNL     1      20.138  -0.954 196.370  0.00  0.00    +0.000 C 
ATOM     28  C   UNL     1      18.638  -0.083 194.490  0.00  0.00    +0.000 C 
BRANCH  27  29
ATOM     29  C   UNL     1      18.942  -1.172 197.173  0.00  0.00    +0.000 C 
BRANCH  29  30
ATOM     30  N   UNL     1      17.726  -1.377 197.957  0.00  0.00    +0.000 N 
ATOM     31  N   UNL     1      17.225   0.916 200.620  0.00  0.00    +0.000 N 
ATOM     32  C   UNL     1      18.137  -1.404 199.388  0.00  0.00    +0.000 C 
ATOM     33  C   UNL     1      17.037  -0.058 198.022  0.00  0.00    +0.000 C 
ATOM     34  C   UNL     1      17.920  -0.398 200.556  0.00  0.00    +0.000 C 
ATOM     35  C   UNL     1      16.820   0.949 199.189  0.00  0.00    +0.000 C 
ATOM     36  C   UNL     1      18.255   1.931 200.792  0.00  0.00    +0.000 C 
ENDBRANCH  29  30
ENDBRANCH  27  29
ENDBRANCH  19  26
ENDBRANCH   1  22
BRANCH   2  37
ATOM     37  C   UNL     1      23.113   1.903 190.141  0.00  0.00    +0.000 A 
ATOM     38  C   UNL     1      22.897   3.256 190.392  0.00  0.00    +0.000 A 
ATOM     39  C   UNL     1      22.207   1.149 189.397  0.00  0.00    +0.000 A 
ATOM     40  C   UNL     1      21.747   3.861 189.895  0.00  0.00    +0.000 A 
ATOM     41  C   UNL     1      21.060   1.763 188.905  0.00  0.00    +0.000 A 
ATOM     42  C   UNL     1      20.831   3.116 189.153  0.00  0.00    +0.000 A 
ENDBRANCH   2  37
TORSDOF 9
ENDMDL
MODEL 5
REMARK VINA RESULT:      -7.9      8.501     13.107
REMARK  Name = 135423438_Nintedanib.pdbqt.pdb
REMARK  9 active torsions:
REMARK  status: ('A' for Active; 'I' for Inactive)
REMARK    1  A    between atoms: N_1  and  C_22
REMARK    2  A    between atoms: C_2  and  C_4
REMARK    3  A    between atoms: C_2  and  C_37
REMARK    4  A    between atoms: C_7  and  O_13
REMARK    5  A    between atoms: C_10  and  C_16
REMARK    6  A    between atoms: C_16  and  O_17
REMARK    7  A    between atoms: C_19  and  N_26
REMARK    8  A    between atoms: C_27  and  C_29
REMARK    9  A    between atoms: C_29  and  N_30
REMARK                            x       y       z     vdW  Elec       q    Type
REMARK                         _______ _______ _______ _____ _____    ______ ____
ROOT
ATOM      1  N   UNL     1      29.322   1.536 190.536  0.00  0.00    +0.000 NA
ATOM      2  C   UNL     1      30.458   1.964 190.065  0.00  0.00    +0.000 C 
ENDROOT
BRANCH   2   4
ATOM      3  N   UNL     1      33.233   0.001 191.432  0.00  0.00    +0.000 N 
ATOM      4  C   UNL     1      31.674   1.419 190.684  0.00  0.00    +0.000 A 
ATOM      5  C   UNL     1      32.721   2.163 191.333  0.00  0.00    +0.000 A 
ATOM      6  C   UNL     1      33.675   1.252 191.783  0.00  0.00    +0.000 A 
ATOM      7  C   UNL     1      32.031   0.080 190.775  0.00  0.00    +0.000 A 
ATOM      8  C   UNL     1      32.948   3.535 191.571  0.00  0.00    +0.000 A 
ATOM      9  C   UNL     1      34.836   1.636 192.461  0.00  0.00    +0.000 A 
ATOM     10  C   UNL     1      35.030   3.005 192.686  0.00  0.00    +0.000 A 
ATOM     11  C   UNL     1      34.100   3.941 192.246  0.00  0.00    +0.000 A 
ATOM     12  H   UNL     1      33.731  -0.852 191.639  0.00  0.00    +0.000 HD
BRANCH   7  13
ATOM     13  O   UNL     1      31.402  -1.011 190.353  0.00  0.00    +0.000 OA
ATOM     14  H   UNL     1      30.732  -1.295 191.000  0.00  0.00    +0.000 HD
ENDBRANCH   7  13
BRANCH  10  16
ATOM     15  O   UNL     1      37.060   2.757 193.889  0.00  0.00    +0.000 OA
ATOM     16  C   UNL     1      36.229   3.504 193.394  0.00  0.00    +0.000 C 
BRANCH  16  17
ATOM     17  O   UNL     1      36.211   4.867 193.376  0.00  0.00    +0.000 OA
ATOM     18  C   UNL     1      37.395   5.542 193.038  0.00  0.00    +0.000 C 
ENDBRANCH  16  17
ENDBRANCH  10  16
ENDBRANCH   2   4
BRANCH   1  22
ATOM     19  C   UNL     1      25.601   2.911 189.066  0.00  0.00    +0.000 A 
ATOM     20  C   UNL     1      26.306   1.887 188.429  0.00  0.00    +0.000 A 
ATOM     21  C   UNL     1      26.180   3.467 190.215  0.00  0.00    +0.000 A 
ATOM     22  C   UNL     1      28.110   2.023 190.034  0.00  0.00    +0.000 A 
ATOM     23  C   UNL     1      27.536   1.438 188.906  0.00  0.00    +0.000 A 
ATOM     24  C   UNL     1      27.409   3.026 190.702  0.00  0.00    +0.000 A 
BRANCH  19  26
ATOM     25  O   UNL     1      25.213   5.276 187.441  0.00  0.00    +0.000 OA
ATOM     26  N   UNL     1      24.328   3.385 188.571  0.00  0.00    +0.000 N 
ATOM     27  C   UNL     1      24.275   4.562 187.783  0.00  0.00    +0.000 C 
ATOM     28  C   UNL     1      23.168   2.575 188.954  0.00  0.00    +0.000 C 
BRANCH  27  29
ATOM     29  C   UNL     1      22.957   4.982 187.328  0.00  0.00    +0.000 C 
BRANCH  29  30
ATOM     30  N   UNL     1      21.641   5.431 186.877  0.00  0.00    +0.000 N 
ATOM     31  N   UNL     1      18.893   3.503 188.028  0.00  0.00    +0.000 N 
ATOM     32  C   UNL     1      20.951   4.240 186.310  0.00  0.00    +0.000 C 
ATOM     33  C   UNL     1      20.790   5.536 188.094  0.00  0.00    +0.000 C 
ATOM     34  C   UNL     1      19.748   3.392 186.816  0.00  0.00    +0.000 C 
ATOM     35  C   UNL     1      19.587   4.688 188.600  0.00  0.00    +0.000 C 
ATOM     36  C   UNL     1      19.221   2.368 188.881  0.00  0.00    +0.000 C 
ENDBRANCH  29  30
ENDBRANCH  27  29
ENDBRANCH  19  26
ENDBRANCH   1  22
BRANCH   2  37
ATOM     37  C   UNL     1      30.604   2.943 188.974  0.00  0.00    +0.000 A 
ATOM     38  C   UNL     1      30.925   2.500 187.692  0.00  0.00    +0.000 A 
ATOM     39  C   UNL     1      30.385   4.294 189.240  0.00  0.00    +0.000 A 
ATOM     40  C   UNL     1      31.035   3.429 186.662  0.00  0.00    +0.000 A 
ATOM     41  C   UNL     1      30.498   5.214 188.203  0.00  0.00    +0.000 A 
ATOM     42  C   UNL     1      30.822   4.783 186.917  0.00  0.00    +0.000 A 
ENDBRANCH   2  37
TORSDOF 9
ENDMDL
MODEL 6
REMARK VINA RESULT:      -7.9      5.164     11.090
REMARK  Name = 135423438_Nintedanib.pdbqt.pdb
REMARK  9 active torsions:
REMARK  status: ('A' for Active; 'I' for Inactive)
REMARK    1  A    between atoms: N_1  and  C_22
REMARK    2  A    between atoms: C_2  and  C_4
REMARK    3  A    between atoms: C_2  and  C_37
REMARK    4  A    between atoms: C_7  and  O_13
REMARK    5  A    between atoms: C_10  and  C_16
REMARK    6  A    between atoms: C_16  and  O_17
REMARK    7  A    between atoms: C_19  and  N_26
REMARK    8  A    between atoms: C_27  and  C_29
REMARK    9  A    between atoms: C_29  and  N_30
REMARK                            x       y       z     vdW  Elec       q    Type
REMARK                         _______ _______ _______ _____ _____    ______ ____
ROOT
ATOM      1  N   UNL     1      22.793  -0.327 193.809  0.00  0.00    +0.000 NA
ATOM      2  C   UNL     1      21.714   0.223 193.332  0.00  0.00    +0.000 C 
ENDROOT
BRANCH   2   4
ATOM      3  N   UNL     1      18.392  -0.927 194.363  0.00  0.00    +0.000 N 
ATOM      4  C   UNL     1      20.449  -0.133 193.988  0.00  0.00    +0.000 A 
ATOM      5  C   UNL     1      20.067   0.159 195.345  0.00  0.00    +0.000 A 
ATOM      6  C   UNL     1      18.785  -0.351 195.545  0.00  0.00    +0.000 A 
ATOM      7  C   UNL     1      19.375  -0.803 193.415  0.00  0.00    +0.000 A 
ATOM      8  C   UNL     1      20.701   0.806 196.425  0.00  0.00    +0.000 A 
ATOM      9  C   UNL     1      18.103  -0.244 196.762  0.00  0.00    +0.000 A 
ATOM     10  C   UNL     1      18.759   0.408 197.814  0.00  0.00    +0.000 A 
ATOM     11  C   UNL     1      20.039   0.924 197.649  0.00  0.00    +0.000 A 
ATOM     12  H   UNL     1      17.497  -1.373 194.223  0.00  0.00    +0.000 HD
BRANCH   7  13
ATOM     13  O   UNL     1      19.211  -1.274 192.184  0.00  0.00    +0.000 OA
ATOM     14  H   UNL     1      18.856  -2.180 192.205  0.00  0.00    +0.000 HD
ENDBRANCH   7  13
BRANCH  10  16
ATOM     15  O   UNL     1      17.022   0.089 199.399  0.00  0.00    +0.000 OA
ATOM     16  C   UNL     1      18.116   0.567 199.137  0.00  0.00    +0.000 C 
BRANCH  16  17
ATOM     17  O   UNL     1      18.939   1.303 199.936  0.00  0.00    +0.000 OA
ATOM     18  C   UNL     1      18.363   2.027 200.993  0.00  0.00    +0.000 C 
ENDBRANCH  16  17
ENDBRANCH  10  16
ENDBRANCH   2   4
BRANCH   1  22
ATOM     19  C   UNL     1      26.514   0.452 191.952  0.00  0.00    +0.000 A 
ATOM     20  C   UNL     1      25.857  -0.770 191.790  0.00  0.00    +0.000 A 
ATOM     21  C   UNL     1      25.888   1.412 192.758  0.00  0.00    +0.000 A 
ATOM     22  C   UNL     1      24.042  -0.076 193.229  0.00  0.00    +0.000 A 
ATOM     23  C   UNL     1      24.635  -1.034 192.408  0.00  0.00    +0.000 A 
ATOM     24  C   UNL     1      24.666   1.161 193.381  0.00  0.00    +0.000 A 
BRANCH  19  26
ATOM     25  O   UNL     1      26.857   1.582 189.309  0.00  0.00    +0.000 OA
ATOM     26  N   UNL     1      27.784   0.727 191.319  0.00  0.00    +0.000 N 
ATOM     27  C   UNL     1      27.814   1.283 190.016  0.00  0.00    +0.000 C 
ATOM     28  C   UNL     1      28.966   0.382 192.115  0.00  0.00    +0.000 C 
BRANCH  27  29
ATOM     29  C   UNL     1      29.131   1.524 189.442  0.00  0.00    +0.000 C 
BRANCH  29  30
ATOM     30  N   UNL     1      30.439   1.786 188.846  0.00  0.00    +0.000 N 
ATOM     31  N   UNL     1      31.934   4.876 189.751  0.00  0.00    +0.000 N 
ATOM     32  C   UNL     1      30.371   3.143 188.238  0.00  0.00    +0.000 C 
ATOM     33  C   UNL     1      31.345   2.166 189.966  0.00  0.00    +0.000 C 
ATOM     34  C   UNL     1      31.024   4.499 188.636  0.00  0.00    +0.000 C 
ATOM     35  C   UNL     1      31.997   3.522 190.364  0.00  0.00    +0.000 C 
ATOM     36  C   UNL     1      31.165   5.716 190.658  0.00  0.00    +0.000 C 
ENDBRANCH  29  30
ENDBRANCH  27  29
ENDBRANCH  19  26
ENDBRANCH   1  22
BRANCH   2  37
ATOM     37  C   UNL     1      21.676   1.159 192.195  0.00  0.00    +0.000 A 
ATOM     38  C   UNL     1      21.826   0.671 190.899  0.00  0.00    +0.000 A 
ATOM     39  C   UNL     1      21.455   2.514 192.438  0.00  0.00    +0.000 A 
ATOM     40  C   UNL     1      21.763   1.558 189.829  0.00  0.00    +0.000 A 
ATOM     41  C   UNL     1      21.394   3.393 191.362  0.00  0.00    +0.000 A 
ATOM     42  C   UNL     1      21.547   2.916 190.060  0.00  0.00    +0.000 A 
ENDBRANCH   2  37
TORSDOF 9
ENDMDL
MODEL 7
REMARK VINA RESULT:      -7.9      2.014      2.680
REMARK  Name = 135423438_Nintedanib.pdbqt.pdb
REMARK  9 active torsions:
REMARK  status: ('A' for Active; 'I' for Inactive)
REMARK    1  A    between atoms: N_1  and  C_22
REMARK    2  A    between atoms: C_2  and  C_4
REMARK    3  A    between atoms: C_2  and  C_37
REMARK    4  A    between atoms: C_7  and  O_13
REMARK    5  A    between atoms: C_10  and  C_16
REMARK    6  A    between atoms: C_16  and  O_17
REMARK    7  A    between atoms: C_19  and  N_26
REMARK    8  A    between atoms: C_27  and  C_29
REMARK    9  A    between atoms: C_29  and  N_30
REMARK                            x       y       z     vdW  Elec       q    Type
REMARK                         _______ _______ _______ _____ _____    ______ ____
ROOT
ATOM      1  N   UNL     1      18.793   0.829 193.436  0.00  0.00    +0.000 NA
ATOM      2  C   UNL     1      19.804   1.016 192.637  0.00  0.00    +0.000 C 
ENDROOT
BRANCH   2   4
ATOM      3  N   UNL     1      18.497   2.104 189.392  0.00  0.00    +0.000 N 
ATOM      4  C   UNL     1      19.505   1.606 191.325  0.00  0.00    +0.000 A 
ATOM      5  C   UNL     1      20.320   2.537 190.591  0.00  0.00    +0.000 A 
ATOM      6  C   UNL     1      19.664   2.828 189.396  0.00  0.00    +0.000 A 
ATOM      7  C   UNL     1      18.386   1.361 190.539  0.00  0.00    +0.000 A 
ATOM      8  C   UNL     1      21.557   3.167 190.839  0.00  0.00    +0.000 A 
ATOM      9  C   UNL     1      20.178   3.706 188.437  0.00  0.00    +0.000 A 
ATOM     10  C   UNL     1      21.411   4.312 188.712  0.00  0.00    +0.000 A 
ATOM     11  C   UNL     1      22.090   4.048 189.896  0.00  0.00    +0.000 A 
ATOM     12  H   UNL     1      17.825   2.121 188.639  0.00  0.00    +0.000 HD
BRANCH   7  13
ATOM     13  O   UNL     1      17.343   0.566 190.749  0.00  0.00    +0.000 OA
ATOM     14  H   UNL     1      17.495  -0.314 190.361  0.00  0.00    +0.000 HD
ENDBRANCH   7  13
BRANCH  10  16
ATOM     15  O   UNL     1      21.571   5.464 186.644  0.00  0.00    +0.000 OA
ATOM     16  C   UNL     1      22.031   5.256 187.757  0.00  0.00    +0.000 C 
BRANCH  16  17
ATOM     17  O   UNL     1      23.138   5.800 188.337  0.00  0.00    +0.000 OA
ATOM     18  C   UNL     1      24.356   5.724 187.642  0.00  0.00    +0.000 C 
ENDBRANCH  16  17
ENDBRANCH  10  16
ENDBRANCH   2   4
BRANCH   1  22
ATOM     19  C   UNL     1      19.219  -0.972 197.241  0.00  0.00    +0.000 A 
ATOM     20  C   UNL     1      18.708   0.320 197.096  0.00  0.00    +0.000 A 
ATOM     21  C   UNL     1      19.588  -1.648 196.070  0.00  0.00    +0.000 A 
ATOM     22  C   UNL     1      18.973   0.242 194.694  0.00  0.00    +0.000 A 
ATOM     23  C   UNL     1      18.574   0.920 195.845  0.00  0.00    +0.000 A 
ATOM     24  C   UNL     1      19.459  -1.059 194.813  0.00  0.00    +0.000 A 
BRANCH  19  26
ATOM     25  O   UNL     1      17.227  -2.624 198.539  0.00  0.00    +0.000 OA
ATOM     26  N   UNL     1      19.367  -1.595 198.537  0.00  0.00    +0.000 N 
ATOM     27  C   UNL     1      18.311  -2.382 199.062  0.00  0.00    +0.000 C 
ATOM     28  C   UNL     1      20.641  -1.336 199.213  0.00  0.00    +0.000 C 
BRANCH  27  29
ATOM     29  C   UNL     1      18.529  -2.971 200.376  0.00  0.00    +0.000 C 
BRANCH  29  30
ATOM     30  N   UNL     1      18.765  -3.536 201.703  0.00  0.00    +0.000 N 
ATOM     31  N   UNL     1      21.325  -1.968 203.597  0.00  0.00    +0.000 N 
ATOM     32  C   UNL     1      20.228  -3.792 201.808  0.00  0.00    +0.000 C 
ATOM     33  C   UNL     1      18.741  -2.395 202.660  0.00  0.00    +0.000 C 
ATOM     34  C   UNL     1      21.351  -3.104 202.636  0.00  0.00    +0.000 C 
ATOM     35  C   UNL     1      19.864  -1.706 203.487  0.00  0.00    +0.000 C 
ATOM     36  C   UNL     1      22.005  -0.853 202.952  0.00  0.00    +0.000 C 
ENDBRANCH  29  30
ENDBRANCH  27  29
ENDBRANCH  19  26
ENDBRANCH   1  22
BRANCH   2  37
ATOM     37  C   UNL     1      21.203   0.676 192.952  0.00  0.00    +0.000 A 
ATOM     38  C   UNL     1      21.810  -0.400 192.307  0.00  0.00    +0.000 A 
ATOM     39  C   UNL     1      21.903   1.462 193.866  0.00  0.00    +0.000 A 
ATOM     40  C   UNL     1      23.139  -0.697 192.590  0.00  0.00    +0.000 A 
ATOM     41  C   UNL     1      23.231   1.156 194.143  0.00  0.00    +0.000 A 
ATOM     42  C   UNL     1      23.848   0.079 193.506  0.00  0.00    +0.000 A 
ENDBRANCH   2  37
TORSDOF 9
ENDMDL
MODEL 8
REMARK VINA RESULT:      -7.7     31.229     36.558
REMARK  Name = 135423438_Nintedanib.pdbqt.pdb
REMARK  9 active torsions:
REMARK  status: ('A' for Active; 'I' for Inactive)
REMARK    1  A    between atoms: N_1  and  C_22
REMARK    2  A    between atoms: C_2  and  C_4
REMARK    3  A    between atoms: C_2  and  C_37
REMARK    4  A    between atoms: C_7  and  O_13
REMARK    5  A    between atoms: C_10  and  C_16
REMARK    6  A    between atoms: C_16  and  O_17
REMARK    7  A    between atoms: C_19  and  N_26
REMARK    8  A    between atoms: C_27  and  C_29
REMARK    9  A    between atoms: C_29  and  N_30
REMARK                            x       y       z     vdW  Elec       q    Type
REMARK                         _______ _______ _______ _____ _____    ______ ____
ROOT
ATOM      1  N   UNL     1      41.908  -6.485 165.398  0.00  0.00    +0.000 NA
ATOM      2  C   UNL     1      42.955  -6.616 164.635  0.00  0.00    +0.000 C 
ENDROOT
BRANCH   2   4
ATOM      3  N   UNL     1      46.151  -5.839 166.249  0.00  0.00    +0.000 N 
ATOM      4  C   UNL     1      44.216  -6.067 165.149  0.00  0.00    +0.000 A 
ATOM      5  C   UNL     1      44.767  -4.765 164.878  0.00  0.00    +0.000 A 
ATOM      6  C   UNL     1      45.969  -4.658 165.574  0.00  0.00    +0.000 A 
ATOM      7  C   UNL     1      45.107  -6.696 166.010  0.00  0.00    +0.000 A 
ATOM      8  C   UNL     1      44.352  -3.668 164.095  0.00  0.00    +0.000 A 
ATOM      9  C   UNL     1      46.775  -3.515 165.534  0.00  0.00    +0.000 A 
ATOM     10  C   UNL     1      46.333  -2.442 164.750  0.00  0.00    +0.000 A 
ATOM     11  C   UNL     1      45.141  -2.518 164.039  0.00  0.00    +0.000 A 
ATOM     12  H   UNL     1      46.945  -6.036 166.840  0.00  0.00    +0.000 HD
BRANCH   7  13
ATOM     13  O   UNL     1      45.057  -7.899 166.573  0.00  0.00    +0.000 OA
ATOM     14  H   UNL     1      44.452  -8.484 166.084  0.00  0.00    +0.000 HD
ENDBRANCH   7  13
BRANCH  10  16
ATOM     15  O   UNL     1      48.333  -1.189 164.500  0.00  0.00    +0.000 OA
ATOM     16  C   UNL     1      47.120  -1.193 164.647  0.00  0.00    +0.000 C 
BRANCH  16  17
ATOM     17  O   UNL     1      46.269  -0.132 164.743  0.00  0.00    +0.000 OA
ATOM     18  C   UNL     1      46.122   0.488 165.994  0.00  0.00    +0.000 C 
ENDBRANCH  16  17
ENDBRANCH  10  16
ENDBRANCH   2   4
BRANCH   1  22
ATOM     19  C   UNL     1      38.155  -7.870 164.020  0.00  0.00    +0.000 A 
ATOM     20  C   UNL     1      38.493  -6.515 163.984  0.00  0.00    +0.000 A 
ATOM     21  C   UNL     1      39.113  -8.754 164.534  0.00  0.00    +0.000 A 
ATOM     22  C   UNL     1      40.654  -6.946 164.980  0.00  0.00    +0.000 A 
ATOM     23  C   UNL     1      39.725  -6.054 164.446  0.00  0.00    +0.000 A 
ATOM     24  C   UNL     1      40.349  -8.306 164.997  0.00  0.00    +0.000 A 
BRANCH  19  26
ATOM     25  O   UNL     1      35.757  -8.093 165.627  0.00  0.00    +0.000 OA
ATOM     26  N   UNL     1      36.875  -8.351 163.549  0.00  0.00    +0.000 N 
ATOM     27  C   UNL     1      35.776  -8.412 164.442  0.00  0.00    +0.000 C 
ATOM     28  C   UNL     1      36.839  -8.753 162.140  0.00  0.00    +0.000 C 
BRANCH  27  29
ATOM     29  C   UNL     1      34.523  -8.915 163.897  0.00  0.00    +0.000 C 
BRANCH  29  30
ATOM     30  N   UNL     1      33.253  -9.419 163.378  0.00  0.00    +0.000 N 
ATOM     31  N   UNL     1      31.041 -10.766 165.807  0.00  0.00    +0.000 N 
ATOM     32  C   UNL     1      33.084 -10.796 163.921  0.00  0.00    +0.000 C 
ATOM     33  C   UNL     1      32.181  -8.798 164.205  0.00  0.00    +0.000 C 
ATOM     34  C   UNL     1      32.117 -11.386 164.987  0.00  0.00    +0.000 C 
ATOM     35  C   UNL     1      31.214  -9.388 165.272  0.00  0.00    +0.000 C 
ATOM     36  C   UNL     1      31.516 -10.748 167.183  0.00  0.00    +0.000 C 
ENDBRANCH  29  30
ENDBRANCH  27  29
ENDBRANCH  19  26
ENDBRANCH   1  22
BRANCH   2  37
ATOM     37  C   UNL     1      42.959  -7.263 163.311  0.00  0.00    +0.000 A 
ATOM     38  C   UNL     1      42.555  -6.537 162.192  0.00  0.00    +0.000 A 
ATOM     39  C   UNL     1      43.400  -8.581 163.200  0.00  0.00    +0.000 A 
ATOM     40  C   UNL     1      42.587  -7.147 160.942  0.00  0.00    +0.000 A 
ATOM     41  C   UNL     1      43.427  -9.181 161.946  0.00  0.00    +0.000 A 
ATOM     42  C   UNL     1      43.022  -8.466 160.819  0.00  0.00    +0.000 A 
ENDBRANCH   2  37
TORSDOF 9
ENDMDL
MODEL 9
REMARK VINA RESULT:      -7.4     11.178     16.538
REMARK  Name = 135423438_Nintedanib.pdbqt.pdb
REMARK  9 active torsions:
REMARK  status: ('A' for Active; 'I' for Inactive)
REMARK    1  A    between atoms: N_1  and  C_22
REMARK    2  A    between atoms: C_2  and  C_4
REMARK    3  A    between atoms: C_2  and  C_37
REMARK    4  A    between atoms: C_7  and  O_13
REMARK    5  A    between atoms: C_10  and  C_16
REMARK    6  A    between atoms: C_16  and  O_17
REMARK    7  A    between atoms: C_19  and  N_26
REMARK    8  A    between atoms: C_27  and  C_29
REMARK    9  A    between atoms: C_29  and  N_30
REMARK                            x       y       z     vdW  Elec       q    Type
REMARK                         _______ _______ _______ _____ _____    ______ ____
ROOT
ATOM      1  N   UNL     1      10.716  -4.015 190.358  0.00  0.00    +0.000 NA
ATOM      2  C   UNL     1      10.056  -3.282 191.208  0.00  0.00    +0.000 C 
ENDROOT
BRANCH   2   4
ATOM      3  N   UNL     1      11.291  -4.179 194.538  0.00  0.00    +0.000 N 
ATOM      4  C   UNL     1      10.440  -3.405 192.620  0.00  0.00    +0.000 A 
ATOM      5  C   UNL     1      10.141  -2.479 193.681  0.00  0.00    +0.000 A 
ATOM      6  C   UNL     1      10.686  -2.989 194.857  0.00  0.00    +0.000 A 
ATOM      7  C   UNL     1      11.150  -4.448 193.200  0.00  0.00    +0.000 A 
ATOM      8  C   UNL     1       9.460  -1.246 193.744  0.00  0.00    +0.000 A 
ATOM      9  C   UNL     1      10.584  -2.338 196.091  0.00  0.00    +0.000 A 
ATOM     10  C   UNL     1       9.897  -1.117 196.121  0.00  0.00    +0.000 A 
ATOM     11  C   UNL     1       9.346  -0.578 194.965  0.00  0.00    +0.000 A 
ATOM     12  H   UNL     1      11.766  -4.768 195.206  0.00  0.00    +0.000 HD
BRANCH   7  13
ATOM     13  O   UNL     1      11.643  -5.559 192.663  0.00  0.00    +0.000 OA
ATOM     14  H   UNL     1      10.948  -6.234 192.569  0.00  0.00    +0.000 HD
ENDBRANCH   7  13
BRANCH  10  16
ATOM     15  O   UNL     1      10.377  -0.616 198.391  0.00  0.00    +0.000 OA
ATOM     16  C   UNL     1       9.740  -0.357 197.380  0.00  0.00    +0.000 C 
BRANCH  16  17
ATOM     17  O   UNL     1       8.805   0.616 197.188  0.00  0.00    +0.000 OA
ATOM     18  C   UNL     1       8.740   1.666 198.119  0.00  0.00    +0.000 C 
ENDBRANCH  16  17
ENDBRANCH  10  16
ENDBRANCH   2   4
BRANCH   1  22
ATOM     19  C   UNL     1       9.842  -4.031 186.218  0.00  0.00    +0.000 A 
ATOM     20  C   UNL     1      10.961  -3.369 186.727  0.00  0.00    +0.000 A 
ATOM     21  C   UNL     1       9.017  -4.691 187.139  0.00  0.00    +0.000 A 
ATOM     22  C   UNL     1      10.399  -3.992 188.995  0.00  0.00    +0.000 A 
ATOM     23  C   UNL     1      11.248  -3.354 188.091  0.00  0.00    +0.000 A 
ATOM     24  C   UNL     1       9.292  -4.683 188.505  0.00  0.00    +0.000 A 
BRANCH  19  26
ATOM     25  O   UNL     1      10.583  -6.127 184.364  0.00  0.00    +0.000 OA
ATOM     26  N   UNL     1       9.537  -4.043 184.805  0.00  0.00    +0.000 N 
ATOM     27  C   UNL     1       9.960  -5.133 184.004  0.00  0.00    +0.000 C 
ATOM     28  C   UNL     1       8.798  -2.875 184.316  0.00  0.00    +0.000 C 
BRANCH  27  29
ATOM     29  C   UNL     1       9.623  -5.070 182.589  0.00  0.00    +0.000 C 
BRANCH  29  30
ATOM     30  N   UNL     1       9.258  -5.018 181.175  0.00  0.00    +0.000 N 
ATOM     31  N   UNL     1       9.269  -1.783 179.715  0.00  0.00    +0.000 N 
ATOM     32  C   UNL     1       8.199  -3.980 181.042  0.00  0.00    +0.000 C 
ATOM     33  C   UNL     1      10.325  -4.236 180.491  0.00  0.00    +0.000 C 
ATOM     34  C   UNL     1       8.204  -2.560 180.405  0.00  0.00    +0.000 C 
ATOM     35  C   UNL     1      10.330  -2.816 179.854  0.00  0.00    +0.000 C 
ATOM     36  C   UNL     1       9.629  -0.683 180.600  0.00  0.00    +0.000 C 
ENDBRANCH  29  30
ENDBRANCH  27  29
ENDBRANCH  19  26
ENDBRANCH   1  22
BRANCH   2  37
ATOM     37  C   UNL     1       8.964  -2.356 190.855  0.00  0.00    +0.000 A 
ATOM     38  C   UNL     1       9.271  -1.103 190.329  0.00  0.00    +0.000 A 
ATOM     39  C   UNL     1       7.643  -2.768 191.025  0.00  0.00    +0.000 A 
ATOM     40  C   UNL     1       8.234  -0.246 189.974  0.00  0.00    +0.000 A 
ATOM     41  C   UNL     1       6.614  -1.903 190.667  0.00  0.00    +0.000 A 
ATOM     42  C   UNL     1       6.909  -0.645 190.143  0.00  0.00    +0.000 A 
ENDBRANCH   2  37
TORSDOF 9
ENDMDL
