MODEL 1
REMARK VINA RESULT:     -11.3      0.000      0.000
REMARK  Name = 14132199_RiccardinD.pdbqt.pdb
REMARK  3 active torsions:
REMARK  status: ('A' for Active; 'I' for Inactive)
REMARK    1  A    between atoms: C_11  and  O_30
REMARK    2  A    between atoms: C_16  and  O_32
REMARK    3  A    between atoms: C_28  and  O_34
REMARK                            x       y       z     vdW  Elec       q    Type
REMARK                         _______ _______ _______ _____ _____    ______ ____
ROOT
ATOM      1  O   UNL     1      24.240   4.216 187.296  0.00  0.00    +0.000 OA
ATOM      2  C   UNL     1      22.348   1.434 193.382  0.00  0.00    +0.000 C 
ATOM      3  C   UNL     1      21.471   0.782 194.311  0.00  0.00    +0.000 A 
ATOM      4  C   UNL     1      20.135   0.450 193.965  0.00  0.00    +0.000 A 
ATOM      5  C   UNL     1      23.164   2.105 192.265  0.00  0.00    +0.000 C 
ATOM      6  C   UNL     1      19.003   2.275 188.763  0.00  0.00    +0.000 C 
ATOM      7  C   UNL     1      19.558   0.882 192.672  0.00  0.00    +0.000 A 
ATOM      8  C   UNL     1      18.870   1.810 190.104  0.00  0.00    +0.000 A 
ATOM      9  C   UNL     1      19.638   2.860 187.499  0.00  0.00    +0.000 C 
ATOM     10  C   UNL     1      23.741   2.698 191.103  0.00  0.00    +0.000 A 
ATOM     11  C   UNL     1      19.181  -0.007 191.654  0.00  0.00    +0.000 A 
ATOM     12  C   UNL     1      20.669   3.417 186.694  0.00  0.00    +0.000 A 
ATOM     13  C   UNL     1      19.461   2.253 192.398  0.00  0.00    +0.000 A 
ATOM     14  C   UNL     1      18.860   0.445 190.372  0.00  0.00    +0.000 A 
ATOM     15  C   UNL     1      19.131   2.717 191.128  0.00  0.00    +0.000 A 
ATOM     16  C   UNL     1      19.395  -0.283 194.910  0.00  0.00    +0.000 A 
ATOM     17  C   UNL     1      21.998   0.436 195.558  0.00  0.00    +0.000 A 
ATOM     18  C   UNL     1      19.920  -0.609 196.161  0.00  0.00    +0.000 A 
ATOM     19  C   UNL     1      21.219  -0.241 196.488  0.00  0.00    +0.000 A 
ATOM     20  C   UNL     1      21.904   3.545 187.321  0.00  0.00    +0.000 A 
ATOM     21  C   UNL     1      23.598   4.069 190.886  0.00  0.00    +0.000 A 
ATOM     22  C   UNL     1      24.250   1.877 190.096  0.00  0.00    +0.000 A 
ATOM     23  C   UNL     1      23.010   4.084 186.673  0.00  0.00    +0.000 A 
ATOM     24  C   UNL     1      20.516   3.831 185.380  0.00  0.00    +0.000 A 
ATOM     25  C   UNL     1      24.281   3.759 188.600  0.00  0.00    +0.000 A 
ATOM     26  C   UNL     1      23.880   4.609 189.633  0.00  0.00    +0.000 A 
ATOM     27  C   UNL     1      24.534   2.408 188.840  0.00  0.00    +0.000 A 
ATOM     28  C   UNL     1      22.855   4.499 185.355  0.00  0.00    +0.000 A 
ATOM     29  C   UNL     1      21.620   4.375 184.710  0.00  0.00    +0.000 A 
ENDROOT
BRANCH  11  30
ATOM     30  O   UNL     1      19.144  -1.351 191.915  0.00  0.00    +0.000 OA
ATOM     31  H   UNL     1      18.208  -1.617 192.007  0.00  0.00    +0.000 HD
ENDBRANCH  11  30
BRANCH  16  32
ATOM     32  O   UNL     1      18.128  -0.738 194.654  0.00  0.00    +0.000 OA
ATOM     33  H   UNL     1      18.171  -1.230 193.812  0.00  0.00    +0.000 HD
ENDBRANCH  16  32
BRANCH  28  34
ATOM     34  O   UNL     1      23.896   5.038 184.653  0.00  0.00    +0.000 OA
ATOM     35  H   UNL     1      24.714   4.826 185.140  0.00  0.00    +0.000 HD
ENDBRANCH  28  34
TORSDOF 3
ENDMDL
MODEL 2
REMARK VINA RESULT:     -10.7      1.703      2.368
REMARK  Name = 14132199_RiccardinD.pdbqt.pdb
REMARK  3 active torsions:
REMARK  status: ('A' for Active; 'I' for Inactive)
REMARK    1  A    between atoms: C_11  and  O_30
REMARK    2  A    between atoms: C_16  and  O_32
REMARK    3  A    between atoms: C_28  and  O_34
REMARK                            x       y       z     vdW  Elec       q    Type
REMARK                         _______ _______ _______ _____ _____    ______ ____
ROOT
ATOM      1  O   UNL     1      23.082   2.110 186.790  0.00  0.00    +0.000 OA
ATOM      2  C   UNL     1      23.738  -0.291 193.283  0.00  0.00    +0.000 C 
ATOM      3  C   UNL     1      23.293  -0.672 194.593  0.00  0.00    +0.000 A 
ATOM      4  C   UNL     1      21.943  -0.505 194.998  0.00  0.00    +0.000 A 
ATOM      5  C   UNL     1      24.044   0.140 191.840  0.00  0.00    +0.000 C 
ATOM      6  C   UNL     1      19.007   1.961 190.879  0.00  0.00    +0.000 C 
ATOM      7  C   UNL     1      20.970   0.187 194.124  0.00  0.00    +0.000 A 
ATOM      8  C   UNL     1      19.426   1.475 192.152  0.00  0.00    +0.000 A 
ATOM      9  C   UNL     1      19.066   2.385 189.409  0.00  0.00    +0.000 C 
ATOM     10  C   UNL     1      24.111   0.584 190.486  0.00  0.00    +0.000 A 
ATOM     11  C   UNL     1      19.864  -0.446 193.538  0.00  0.00    +0.000 A 
ATOM     12  C   UNL     1      19.665   2.615 188.141  0.00  0.00    +0.000 A 
ATOM     13  C   UNL     1      21.203   1.526 193.780  0.00  0.00    +0.000 A 
ATOM     14  C   UNL     1      19.108   0.179 192.543  0.00  0.00    +0.000 A 
ATOM     15  C   UNL     1      20.449   2.164 192.799  0.00  0.00    +0.000 A 
ATOM     16  C   UNL     1      21.590  -1.010 196.263  0.00  0.00    +0.000 A 
ATOM     17  C   UNL     1      24.231  -1.264 195.443  0.00  0.00    +0.000 A 
ATOM     18  C   UNL     1      22.535  -1.583 197.115  0.00  0.00    +0.000 A 
ATOM     19  C   UNL     1      23.858  -1.701 196.708  0.00  0.00    +0.000 A 
ATOM     20  C   UNL     1      21.009   2.272 188.050  0.00  0.00    +0.000 A 
ATOM     21  C   UNL     1      24.336   1.934 190.213  0.00  0.00    +0.000 A 
ATOM     22  C   UNL     1      23.740  -0.287 189.461  0.00  0.00    +0.000 A 
ATOM     23  C   UNL     1      21.741   2.448 186.882  0.00  0.00    +0.000 A 
ATOM     24  C   UNL     1      19.014   3.149 187.039  0.00  0.00    +0.000 A 
ATOM     25  C   UNL     1      23.624   1.575 187.944  0.00  0.00    +0.000 A 
ATOM     26  C   UNL     1      24.104   2.434 188.934  0.00  0.00    +0.000 A 
ATOM     27  C   UNL     1      23.505   0.205 188.178  0.00  0.00    +0.000 A 
ATOM     28  C   UNL     1      21.088   2.984 185.778  0.00  0.00    +0.000 A 
ATOM     29  C   UNL     1      19.735   3.333 185.852  0.00  0.00    +0.000 A 
ENDROOT
BRANCH  11  30
ATOM     30  O   UNL     1      19.526  -1.713 193.935  0.00  0.00    +0.000 OA
ATOM     31  H   UNL     1      19.555  -2.294 193.152  0.00  0.00    +0.000 HD
ENDBRANCH  11  30
BRANCH  16  32
ATOM     32  O   UNL     1      20.301  -0.988 196.725  0.00  0.00    +0.000 OA
ATOM     33  H   UNL     1      20.347  -1.103 197.693  0.00  0.00    +0.000 HD
ENDBRANCH  16  32
BRANCH  28  34
ATOM     34  O   UNL     1      21.740   3.186 184.595  0.00  0.00    +0.000 OA
ATOM     35  H   UNL     1      21.355   3.981 184.183  0.00  0.00    +0.000 HD
ENDBRANCH  28  34
TORSDOF 3
ENDMDL
MODEL 3
REMARK VINA RESULT:     -10.3      2.444      4.620
REMARK  Name = 14132199_RiccardinD.pdbqt.pdb
REMARK  3 active torsions:
REMARK  status: ('A' for Active; 'I' for Inactive)
REMARK    1  A    between atoms: C_11  and  O_30
REMARK    2  A    between atoms: C_16  and  O_32
REMARK    3  A    between atoms: C_28  and  O_34
REMARK                            x       y       z     vdW  Elec       q    Type
REMARK                         _______ _______ _______ _____ _____    ______ ____
ROOT
ATOM      1  O   UNL     1      20.280   2.571 188.142  0.00  0.00    +0.000 OA
ATOM      2  C   UNL     1      18.548   0.505 194.552  0.00  0.00    +0.000 C 
ATOM      3  C   UNL     1      18.754  -0.097 195.838  0.00  0.00    +0.000 A 
ATOM      4  C   UNL     1      19.982  -0.721 196.178  0.00  0.00    +0.000 A 
ATOM      5  C   UNL     1      18.499   1.125 193.146  0.00  0.00    +0.000 C 
ATOM      6  C   UNL     1      23.475  -0.592 191.767  0.00  0.00    +0.000 C 
ATOM      7  C   UNL     1      21.053  -0.887 195.170  0.00  0.00    +0.000 A 
ATOM      8  C   UNL     1      22.852  -0.931 193.003  0.00  0.00    +0.000 A 
ATOM      9  C   UNL     1      23.673   0.005 190.371  0.00  0.00    +0.000 C 
ATOM     10  C   UNL     1      18.664   1.636 191.824  0.00  0.00    +0.000 A 
ATOM     11  C   UNL     1      22.297  -0.243 195.244  0.00  0.00    +0.000 A 
ATOM     12  C   UNL     1      23.319   0.724 189.198  0.00  0.00    +0.000 A 
ATOM     13  C   UNL     1      20.792  -1.654 194.025  0.00  0.00    +0.000 A 
ATOM     14  C   UNL     1      23.184  -0.242 194.165  0.00  0.00    +0.000 A 
ATOM     15  C   UNL     1      21.673  -1.671 192.949  0.00  0.00    +0.000 A 
ATOM     16  C   UNL     1      20.117  -1.183 197.500  0.00  0.00    +0.000 A 
ATOM     17  C   UNL     1      17.716   0.001 196.767  0.00  0.00    +0.000 A 
ATOM     18  C   UNL     1      19.070  -1.100 198.418  0.00  0.00    +0.000 A 
ATOM     19  C   UNL     1      17.865  -0.516 198.048  0.00  0.00    +0.000 A 
ATOM     20  C   UNL     1      22.048   1.288 189.210  0.00  0.00    +0.000 A 
ATOM     21  C   UNL     1      18.396   0.815 190.728  0.00  0.00    +0.000 A 
ATOM     22  C   UNL     1      19.294   2.868 191.641  0.00  0.00    +0.000 A 
ATOM     23  C   UNL     1      21.548   2.011 188.133  0.00  0.00    +0.000 A 
ATOM     24  C   UNL     1      24.131   0.879 188.084  0.00  0.00    +0.000 A 
ATOM     25  C   UNL     1      19.564   2.364 189.306  0.00  0.00    +0.000 A 
ATOM     26  C   UNL     1      18.837   1.182 189.459  0.00  0.00    +0.000 A 
ATOM     27  C   UNL     1      19.737   3.243 190.375  0.00  0.00    +0.000 A 
ATOM     28  C   UNL     1      22.363   2.165 187.017  0.00  0.00    +0.000 A 
ATOM     29  C   UNL     1      23.645   1.606 186.989  0.00  0.00    +0.000 A 
ENDROOT
BRANCH  11  30
ATOM     30  O   UNL     1      22.644   0.417 196.393  0.00  0.00    +0.000 OA
ATOM     31  H   UNL     1      23.393   1.010 196.188  0.00  0.00    +0.000 HD
ENDBRANCH  11  30
BRANCH  16  32
ATOM     32  O   UNL     1      21.286  -1.721 197.971  0.00  0.00    +0.000 OA
ATOM     33  H   UNL     1      21.099  -2.060 198.867  0.00  0.00    +0.000 HD
ENDBRANCH  16  32
BRANCH  28  34
ATOM     34  O   UNL     1      21.941   2.863 185.921  0.00  0.00    +0.000 OA
ATOM     35  H   UNL     1      22.064   3.810 186.114  0.00  0.00    +0.000 HD
ENDBRANCH  28  34
TORSDOF 3
ENDMDL
MODEL 4
REMARK VINA RESULT:      -9.8      2.893      7.281
REMARK  Name = 14132199_RiccardinD.pdbqt.pdb
REMARK  3 active torsions:
REMARK  status: ('A' for Active; 'I' for Inactive)
REMARK    1  A    between atoms: C_11  and  O_30
REMARK    2  A    between atoms: C_16  and  O_32
REMARK    3  A    between atoms: C_28  and  O_34
REMARK                            x       y       z     vdW  Elec       q    Type
REMARK                         _______ _______ _______ _____ _____    ______ ____
ROOT
ATOM      1  O   UNL     1      19.354   0.433 192.182  0.00  0.00    +0.000 OA
ATOM      2  C   UNL     1      26.279   0.193 191.590  0.00  0.00    +0.000 C 
ATOM      3  C   UNL     1      27.553   0.432 190.975  0.00  0.00    +0.000 A 
ATOM      4  C   UNL     1      27.660   1.062 189.708  0.00  0.00    +0.000 A 
ATOM      5  C   UNL     1      24.845   0.036 192.121  0.00  0.00    +0.000 C 
ATOM      6  C   UNL     1      22.525   2.112 187.658  0.00  0.00    +0.000 C 
ATOM      7  C   UNL     1      26.452   1.381 188.915  0.00  0.00    +0.000 A 
ATOM      8  C   UNL     1      23.929   1.892 187.772  0.00  0.00    +0.000 A 
ATOM      9  C   UNL     1      21.037   2.123 188.014  0.00  0.00    +0.000 C 
ATOM     10  C   UNL     1      23.453  -0.002 192.431  0.00  0.00    +0.000 A 
ATOM     11  C   UNL     1      26.037   2.689 188.623  0.00  0.00    +0.000 A 
ATOM     12  C   UNL     1      19.884   1.887 188.812  0.00  0.00    +0.000 A 
ATOM     13  C   UNL     1      25.615   0.334 188.505  0.00  0.00    +0.000 A 
ATOM     14  C   UNL     1      24.778   2.951 188.077  0.00  0.00    +0.000 A 
ATOM     15  C   UNL     1      24.363   0.581 187.949  0.00  0.00    +0.000 A 
ATOM     16  C   UNL     1      28.958   1.346 189.245  0.00  0.00    +0.000 A 
ATOM     17  C   UNL     1      28.692   0.067 191.695  0.00  0.00    +0.000 A 
ATOM     18  C   UNL     1      30.093   0.962 189.960  0.00  0.00    +0.000 A 
ATOM     19  C   UNL     1      29.959   0.314 191.182  0.00  0.00    +0.000 A 
ATOM     20  C   UNL     1      20.132   1.313 190.054  0.00  0.00    +0.000 A 
ATOM     21  C   UNL     1      22.675  -1.070 191.982  0.00  0.00    +0.000 A 
ATOM     22  C   UNL     1      22.845   1.125 192.986  0.00  0.00    +0.000 A 
ATOM     23  C   UNL     1      19.110   1.008 190.946  0.00  0.00    +0.000 A 
ATOM     24  C   UNL     1      18.582   2.175 188.433  0.00  0.00    +0.000 A 
ATOM     25  C   UNL     1      20.689   0.200 192.460  0.00  0.00    +0.000 A 
ATOM     26  C   UNL     1      21.285  -0.977 192.006  0.00  0.00    +0.000 A 
ATOM     27  C   UNL     1      21.455   1.226 193.013  0.00  0.00    +0.000 A 
ATOM     28  C   UNL     1      17.805   1.297 190.565  0.00  0.00    +0.000 A 
ATOM     29  C   UNL     1      17.538   1.876 189.319  0.00  0.00    +0.000 A 
ENDROOT
BRANCH  11  30
ATOM     30  O   UNL     1      26.876   3.737 188.895  0.00  0.00    +0.000 OA
ATOM     31  H   UNL     1      26.890   3.871 189.862  0.00  0.00    +0.000 HD
ENDBRANCH  11  30
BRANCH  16  32
ATOM     32  O   UNL     1      29.186   2.031 188.081  0.00  0.00    +0.000 OA
ATOM     33  H   UNL     1      30.026   1.693 187.716  0.00  0.00    +0.000 HD
ENDBRANCH  16  32
BRANCH  28  34
ATOM     34  O   UNL     1      16.748   1.026 191.387  0.00  0.00    +0.000 OA
ATOM     35  H   UNL     1      16.895   1.514 192.218  0.00  0.00    +0.000 HD
ENDBRANCH  28  34
TORSDOF 3
ENDMDL
MODEL 5
REMARK VINA RESULT:      -9.8      4.380      7.629
REMARK  Name = 14132199_RiccardinD.pdbqt.pdb
REMARK  3 active torsions:
REMARK  status: ('A' for Active; 'I' for Inactive)
REMARK    1  A    between atoms: C_11  and  O_30
REMARK    2  A    between atoms: C_16  and  O_32
REMARK    3  A    between atoms: C_28  and  O_34
REMARK                            x       y       z     vdW  Elec       q    Type
REMARK                         _______ _______ _______ _____ _____    ______ ____
ROOT
ATOM      1  O   UNL     1      29.531   0.442 191.977  0.00  0.00    +0.000 OA
ATOM      2  C   UNL     1      24.175   3.932 189.240  0.00  0.00    +0.000 C 
ATOM      3  C   UNL     1      22.795   4.261 189.025  0.00  0.00    +0.000 A 
ATOM      4  C   UNL     1      21.750   3.518 189.632  0.00  0.00    +0.000 A 
ATOM      5  C   UNL     1      25.596   3.468 189.596  0.00  0.00    +0.000 C 
ATOM      6  C   UNL     1      23.914  -0.752 192.590  0.00  0.00    +0.000 C 
ATOM      7  C   UNL     1      22.043   2.294 190.410  0.00  0.00    +0.000 A 
ATOM      8  C   UNL     1      23.021   0.090 191.865  0.00  0.00    +0.000 A 
ATOM      9  C   UNL     1      25.222  -1.338 193.129  0.00  0.00    +0.000 C 
ATOM     10  C   UNL     1      26.816   2.890 190.057  0.00  0.00    +0.000 A 
ATOM     11  C   UNL     1      21.826   2.180 191.791  0.00  0.00    +0.000 A 
ATOM     12  C   UNL     1      26.628  -1.454 193.295  0.00  0.00    +0.000 A 
ATOM     13  C   UNL     1      22.658   1.212 189.763  0.00  0.00    +0.000 A 
ATOM     14  C   UNL     1      22.327   1.101 192.523  0.00  0.00    +0.000 A 
ATOM     15  C   UNL     1      23.151   0.125 190.480  0.00  0.00    +0.000 A 
ATOM     16  C   UNL     1      20.438   3.990 189.441  0.00  0.00    +0.000 A 
ATOM     17  C   UNL     1      22.518   5.378 188.233  0.00  0.00    +0.000 A 
ATOM     18  C   UNL     1      20.165   5.094 188.634  0.00  0.00    +0.000 A 
ATOM     19  C   UNL     1      21.205   5.783 188.022  0.00  0.00    +0.000 A 
ATOM     20  C   UNL     1      27.385  -0.509 192.611  0.00  0.00    +0.000 A 
ATOM     21  C   UNL     1      27.369   1.807 189.372  0.00  0.00    +0.000 A 
ATOM     22  C   UNL     1      27.326   3.268 191.300  0.00  0.00    +0.000 A 
ATOM     23  C   UNL     1      28.774  -0.497 192.660  0.00  0.00    +0.000 A 
ATOM     24  C   UNL     1      27.262  -2.423 194.059  0.00  0.00    +0.000 A 
ATOM     25  C   UNL     1      28.795   1.366 191.258  0.00  0.00    +0.000 A 
ATOM     26  C   UNL     1      28.372   1.046 189.967  0.00  0.00    +0.000 A 
ATOM     27  C   UNL     1      28.329   2.512 191.903  0.00  0.00    +0.000 A 
ATOM     28  C   UNL     1      29.408  -1.469 193.426  0.00  0.00    +0.000 A 
ATOM     29  C   UNL     1      28.661  -2.426 194.122  0.00  0.00    +0.000 A 
ENDROOT
BRANCH  11  30
ATOM     30  O   UNL     1      21.121   3.157 192.443  0.00  0.00    +0.000 OA
ATOM     31  H   UNL     1      20.542   3.599 191.793  0.00  0.00    +0.000 HD
ENDBRANCH  11  30
BRANCH  16  32
ATOM     32  O   UNL     1      19.356   3.410 190.049  0.00  0.00    +0.000 OA
ATOM     33  H   UNL     1      19.685   2.990 190.866  0.00  0.00    +0.000 HD
ENDBRANCH  16  32
BRANCH  28  34
ATOM     34  O   UNL     1      30.770  -1.520 193.523  0.00  0.00    +0.000 OA
ATOM     35  H   UNL     1      31.131  -1.353 192.633  0.00  0.00    +0.000 HD
ENDBRANCH  28  34
TORSDOF 3
ENDMDL
MODEL 6
REMARK VINA RESULT:      -9.3      3.210      7.844
REMARK  Name = 14132199_RiccardinD.pdbqt.pdb
REMARK  3 active torsions:
REMARK  status: ('A' for Active; 'I' for Inactive)
REMARK    1  A    between atoms: C_11  and  O_30
REMARK    2  A    between atoms: C_16  and  O_32
REMARK    3  A    between atoms: C_28  and  O_34
REMARK                            x       y       z     vdW  Elec       q    Type
REMARK                         _______ _______ _______ _____ _____    ______ ____
ROOT
ATOM      1  O   UNL     1      25.709  -0.426 195.220  0.00  0.00    +0.000 OA
ATOM      2  C   UNL     1      21.611   1.397 189.906  0.00  0.00    +0.000 C 
ATOM      3  C   UNL     1      20.369   1.628 189.225  0.00  0.00    +0.000 A 
ATOM      4  C   UNL     1      19.121   1.346 189.838  0.00  0.00    +0.000 A 
ATOM      5  C   UNL     1      22.844   1.120 190.781  0.00  0.00    +0.000 C 
ATOM      6  C   UNL     1      19.960  -0.896 194.931  0.00  0.00    +0.000 C 
ATOM      7  C   UNL     1      19.058   0.681 191.159  0.00  0.00    +0.000 A 
ATOM      8  C   UNL     1      19.370  -0.506 193.693  0.00  0.00    +0.000 A 
ATOM      9  C   UNL     1      21.029  -1.178 195.990  0.00  0.00    +0.000 C 
ATOM     10  C   UNL     1      23.844   0.808 191.749  0.00  0.00    +0.000 A 
ATOM     11  C   UNL     1      18.566   1.300 192.318  0.00  0.00    +0.000 A 
ATOM     12  C   UNL     1      22.340  -1.254 196.533  0.00  0.00    +0.000 A 
ATOM     13  C   UNL     1      19.602  -0.604 191.296  0.00  0.00    +0.000 A 
ATOM     14  C   UNL     1      18.737   0.727 193.580  0.00  0.00    +0.000 A 
ATOM     15  C   UNL     1      19.767  -1.191 192.547  0.00  0.00    +0.000 A 
ATOM     16  C   UNL     1      17.964   1.710 189.125  0.00  0.00    +0.000 A 
ATOM     17  C   UNL     1      20.433   2.193 187.949  0.00  0.00    +0.000 A 
ATOM     18  C   UNL     1      18.033   2.255 187.843  0.00  0.00    +0.000 A 
ATOM     19  C   UNL     1      19.268   2.489 187.251  0.00  0.00    +0.000 A 
ATOM     20  C   UNL     1      23.356  -0.826 195.686  0.00  0.00    +0.000 A 
ATOM     21  C   UNL     1      24.334  -0.495 191.839  0.00  0.00    +0.000 A 
ATOM     22  C   UNL     1      24.161   1.747 192.732  0.00  0.00    +0.000 A 
ATOM     23  C   UNL     1      24.694  -0.850 196.064  0.00  0.00    +0.000 A 
ATOM     24  C   UNL     1      22.651  -1.722 197.801  0.00  0.00    +0.000 A 
ATOM     25  C   UNL     1      25.284   0.030 193.986  0.00  0.00    +0.000 A 
ATOM     26  C   UNL     1      25.068  -0.887 192.956  0.00  0.00    +0.000 A 
ATOM     27  C   UNL     1      24.894   1.363 193.853  0.00  0.00    +0.000 A 
ATOM     28  C   UNL     1      25.004  -1.318 197.335  0.00  0.00    +0.000 A 
ATOM     29  C   UNL     1      23.993  -1.751 198.200  0.00  0.00    +0.000 A 
ENDROOT
BRANCH  11  30
ATOM     30  O   UNL     1      17.918   2.502 192.213  0.00  0.00    +0.000 OA
ATOM     31  H   UNL     1      17.327   2.462 191.438  0.00  0.00    +0.000 HD
ENDBRANCH  11  30
BRANCH  16  32
ATOM     32  O   UNL     1      16.707   1.570 189.650  0.00  0.00    +0.000 OA
ATOM     33  H   UNL     1      16.078   1.774 188.932  0.00  0.00    +0.000 HD
ENDBRANCH  16  32
BRANCH  28  34
ATOM     34  O   UNL     1      26.296  -1.371 197.777  0.00  0.00    +0.000 OA
ATOM     35  H   UNL     1      26.872  -1.196 197.011  0.00  0.00    +0.000 HD
ENDBRANCH  28  34
TORSDOF 3
ENDMDL
MODEL 7
REMARK VINA RESULT:      -8.9      2.554      7.937
REMARK  Name = 14132199_RiccardinD.pdbqt.pdb
REMARK  3 active torsions:
REMARK  status: ('A' for Active; 'I' for Inactive)
REMARK    1  A    between atoms: C_11  and  O_30
REMARK    2  A    between atoms: C_16  and  O_32
REMARK    3  A    between atoms: C_28  and  O_34
REMARK                            x       y       z     vdW  Elec       q    Type
REMARK                         _______ _______ _______ _____ _____    ______ ____
ROOT
ATOM      1  O   UNL     1      23.985  -0.256 195.843  0.00  0.00    +0.000 OA
ATOM      2  C   UNL     1      22.779   1.633 189.260  0.00  0.00    +0.000 C 
ATOM      3  C   UNL     1      22.000   2.103 188.151  0.00  0.00    +0.000 A 
ATOM      4  C   UNL     1      20.613   2.375 188.279  0.00  0.00    +0.000 A 
ATOM      5  C   UNL     1      23.473   1.162 190.548  0.00  0.00    +0.000 C 
ATOM      6  C   UNL     1      18.892   1.107 193.485  0.00  0.00    +0.000 C 
ATOM      7  C   UNL     1      19.891   2.060 189.532  0.00  0.00    +0.000 A 
ATOM      8  C   UNL     1      18.916   1.397 192.089  0.00  0.00    +0.000 A 
ATOM      9  C   UNL     1      19.382   0.724 194.884  0.00  0.00    +0.000 C 
ATOM     10  C   UNL     1      23.920   0.755 191.840  0.00  0.00    +0.000 A 
ATOM     11  C   UNL     1      19.330   3.034 190.372  0.00  0.00    +0.000 A 
ATOM     12  C   UNL     1      20.325   0.345 195.877  0.00  0.00    +0.000 A 
ATOM     13  C   UNL     1      19.837   0.728 189.965  0.00  0.00    +0.000 A 
ATOM     14  C   UNL     1      18.865   2.716 191.650  0.00  0.00    +0.000 A 
ATOM     15  C   UNL     1      19.364   0.396 191.231  0.00  0.00    +0.000 A 
ATOM     16  C   UNL     1      19.968   2.935 187.161  0.00  0.00    +0.000 A 
ATOM     17  C   UNL     1      22.670   2.336 186.948  0.00  0.00    +0.000 A 
ATOM     18  C   UNL     1      20.637   3.147 185.956  0.00  0.00    +0.000 A 
ATOM     19  C   UNL     1      21.988   2.838 185.847  0.00  0.00    +0.000 A 
ATOM     20  C   UNL     1      21.638   0.233 195.435  0.00  0.00    +0.000 A 
ATOM     21  C   UNL     1      23.827  -0.587 192.211  0.00  0.00    +0.000 A 
ATOM     22  C   UNL     1      24.241   1.726 192.791  0.00  0.00    +0.000 A 
ATOM     23  C   UNL     1      22.675  -0.142 196.282  0.00  0.00    +0.000 A 
ATOM     24  C   UNL     1      20.019   0.080 197.204  0.00  0.00    +0.000 A 
ATOM     25  C   UNL     1      24.175   0.043 194.507  0.00  0.00    +0.000 A 
ATOM     26  C   UNL     1      23.967  -0.951 193.549  0.00  0.00    +0.000 A 
ATOM     27  C   UNL     1      24.381   1.370 194.131  0.00  0.00    +0.000 A 
ATOM     28  C   UNL     1      22.368  -0.407 197.612  0.00  0.00    +0.000 A 
ATOM     29  C   UNL     1      21.051  -0.298 198.073  0.00  0.00    +0.000 A 
ENDROOT
BRANCH  11  30
ATOM     30  O   UNL     1      19.252   4.331 189.938  0.00  0.00    +0.000 OA
ATOM     31  H   UNL     1      20.091   4.777 190.162  0.00  0.00    +0.000 HD
ENDBRANCH  11  30
BRANCH  16  32
ATOM     32  O   UNL     1      18.654   3.323 187.193  0.00  0.00    +0.000 OA
ATOM     33  H   UNL     1      18.186   2.787 186.524  0.00  0.00    +0.000 HD
ENDBRANCH  16  32
BRANCH  28  34
ATOM     34  O   UNL     1      23.333  -0.780 198.503  0.00  0.00    +0.000 OA
ATOM     35  H   UNL     1      24.075  -1.150 197.990  0.00  0.00    +0.000 HD
ENDBRANCH  28  34
TORSDOF 3
ENDMDL
MODEL 8
REMARK VINA RESULT:      -8.6      2.528      8.284
REMARK  Name = 14132199_RiccardinD.pdbqt.pdb
REMARK  3 active torsions:
REMARK  status: ('A' for Active; 'I' for Inactive)
REMARK    1  A    between atoms: C_11  and  O_30
REMARK    2  A    between atoms: C_16  and  O_32
REMARK    3  A    between atoms: C_28  and  O_34
REMARK                            x       y       z     vdW  Elec       q    Type
REMARK                         _______ _______ _______ _____ _____    ______ ____
ROOT
ATOM      1  O   UNL     1      22.879  -0.323 197.335  0.00  0.00    +0.000 OA
ATOM      2  C   UNL     1      23.186   1.154 190.547  0.00  0.00    +0.000 C 
ATOM      3  C   UNL     1      22.676   1.547 189.265  0.00  0.00    +0.000 A 
ATOM      4  C   UNL     1      21.295   1.804 189.061  0.00  0.00    +0.000 A 
ATOM      5  C   UNL     1      23.572   0.771 191.985  0.00  0.00    +0.000 C 
ATOM      6  C   UNL     1      18.447   0.821 193.813  0.00  0.00    +0.000 C 
ATOM      7  C   UNL     1      20.310   1.553 190.136  0.00  0.00    +0.000 A 
ATOM      8  C   UNL     1      18.784   1.028 192.444  0.00  0.00    +0.000 A 
ATOM      9  C   UNL     1      18.610   0.529 195.307  0.00  0.00    +0.000 C 
ATOM     10  C   UNL     1      23.717   0.448 193.367  0.00  0.00    +0.000 A 
ATOM     11  C   UNL     1      19.573   2.566 190.767  0.00  0.00    +0.000 A 
ATOM     12  C   UNL     1      19.304   0.224 196.509  0.00  0.00    +0.000 A 
ATOM     13  C   UNL     1      20.161   0.248 190.626  0.00  0.00    +0.000 A 
ATOM     14  C   UNL     1      18.832   2.318 191.924  0.00  0.00    +0.000 A 
ATOM     15  C   UNL     1      19.416  -0.015 191.772  0.00  0.00    +0.000 A 
ATOM     16  C   UNL     1      20.918   2.287 187.794  0.00  0.00    +0.000 A 
ATOM     17  C   UNL     1      23.600   1.717 188.231  0.00  0.00    +0.000 A 
ATOM     18  C   UNL     1      21.841   2.437 186.760  0.00  0.00    +0.000 A 
ATOM     19  C   UNL     1      23.182   2.143 186.976  0.00  0.00    +0.000 A 
ATOM     20  C   UNL     1      20.684   0.106 196.381  0.00  0.00    +0.000 A 
ATOM     21  C   UNL     1      23.545  -0.871 193.789  0.00  0.00    +0.000 A 
ATOM     22  C   UNL     1      23.813   1.478 194.304  0.00  0.00    +0.000 A 
ATOM     23  C   UNL     1      21.504  -0.202 197.461  0.00  0.00    +0.000 A 
ATOM     24  C   UNL     1      18.708   0.033 197.746  0.00  0.00    +0.000 A 
ATOM     25  C   UNL     1      23.365  -0.101 196.060  0.00  0.00    +0.000 A 
ATOM     26  C   UNL     1      23.379  -1.153 195.143  0.00  0.00    +0.000 A 
ATOM     27  C   UNL     1      23.649   1.205 195.660  0.00  0.00    +0.000 A 
ATOM     28  C   UNL     1      20.905  -0.393 198.701  0.00  0.00    +0.000 A 
ATOM     29  C   UNL     1      19.518  -0.276 198.847  0.00  0.00    +0.000 A 
ENDROOT
BRANCH  11  30
ATOM     30  O   UNL     1      19.593   3.834 190.248  0.00  0.00    +0.000 OA
ATOM     31  H   UNL     1      20.462   3.976 189.825  0.00  0.00    +0.000 HD
ENDBRANCH  11  30
BRANCH  16  32
ATOM     32  O   UNL     1      19.630   2.656 187.506  0.00  0.00    +0.000 OA
ATOM     33  H   UNL     1      19.069   1.877 187.681  0.00  0.00    +0.000 HD
ENDBRANCH  16  32
BRANCH  28  34
ATOM     34  O   UNL     1      21.645  -0.698 199.808  0.00  0.00    +0.000 OA
ATOM     35  H   UNL     1      21.950  -1.618 199.709  0.00  0.00    +0.000 HD
ENDBRANCH  28  34
TORSDOF 3
ENDMDL
MODEL 9
REMARK VINA RESULT:      -8.1     35.677     38.052
REMARK  Name = 14132199_RiccardinD.pdbqt.pdb
REMARK  3 active torsions:
REMARK  status: ('A' for Active; 'I' for Inactive)
REMARK    1  A    between atoms: C_11  and  O_30
REMARK    2  A    between atoms: C_16  and  O_32
REMARK    3  A    between atoms: C_28  and  O_34
REMARK                            x       y       z     vdW  Elec       q    Type
REMARK                         _______ _______ _______ _____ _____    ______ ____
ROOT
ATOM      1  O   UNL     1      42.744 -20.708 164.963  0.00  0.00    +0.000 OA
ATOM      2  C   UNL     1      40.130 -20.420 171.400  0.00  0.00    +0.000 C 
ATOM      3  C   UNL     1      40.136 -20.568 172.827  0.00  0.00    +0.000 A 
ATOM      4  C   UNL     1      41.254 -21.108 173.514  0.00  0.00    +0.000 A 
ATOM      5  C   UNL     1      40.294 -20.304 169.876  0.00  0.00    +0.000 C 
ATOM      6  C   UNL     1      45.206 -22.645 169.814  0.00  0.00    +0.000 C 
ATOM      7  C   UNL     1      42.408 -21.658 172.769  0.00  0.00    +0.000 A 
ATOM      8  C   UNL     1      44.421 -22.519 170.998  0.00  0.00    +0.000 A 
ATOM      9  C   UNL     1      45.611 -22.560 168.341  0.00  0.00    +0.000 C 
ATOM     10  C   UNL     1      40.652 -20.272 168.496  0.00  0.00    +0.000 A 
ATOM     11  C   UNL     1      43.692 -21.093 172.797  0.00  0.00    +0.000 A 
ATOM     12  C   UNL     1      45.458 -22.256 166.961  0.00  0.00    +0.000 A 
ATOM     13  C   UNL     1      42.202 -22.747 171.911  0.00  0.00    +0.000 A 
ATOM     14  C   UNL     1      44.688 -21.500 171.907  0.00  0.00    +0.000 A 
ATOM     15  C   UNL     1      43.191 -23.170 171.027  0.00  0.00    +0.000 A 
ATOM     16  C   UNL     1      41.199 -21.108 174.920  0.00  0.00    +0.000 A 
ATOM     17  C   UNL     1      39.015 -20.110 173.525  0.00  0.00    +0.000 A 
ATOM     18  C   UNL     1      40.070 -20.668 175.611  0.00  0.00    +0.000 A 
ATOM     19  C   UNL     1      38.974 -20.177 174.912  0.00  0.00    +0.000 A 
ATOM     20  C   UNL     1      44.253 -21.654 166.618  0.00  0.00    +0.000 A 
ATOM     21  C   UNL     1      40.429 -21.397 167.700  0.00  0.00    +0.000 A 
ATOM     22  C   UNL     1      41.412 -19.207 168.010  0.00  0.00    +0.000 A 
ATOM     23  C   UNL     1      43.946 -21.306 165.307  0.00  0.00    +0.000 A 
ATOM     24  C   UNL     1      46.398 -22.526 165.978  0.00  0.00    +0.000 A 
ATOM     25  C   UNL     1      41.888 -20.476 166.023  0.00  0.00    +0.000 A 
ATOM     26  C   UNL     1      41.039 -21.498 166.452  0.00  0.00    +0.000 A 
ATOM     27  C   UNL     1      42.026 -19.301 166.762  0.00  0.00    +0.000 A 
ATOM     28  C   UNL     1      44.889 -21.577 164.323  0.00  0.00    +0.000 A 
ATOM     29  C   UNL     1      46.107 -22.181 164.651  0.00  0.00    +0.000 A 
ENDROOT
BRANCH  11  30
ATOM     30  O   UNL     1      43.972 -20.107 173.706  0.00  0.00    +0.000 OA
ATOM     31  H   UNL     1      44.731 -20.399 174.247  0.00  0.00    +0.000 HD
ENDBRANCH  11  30
BRANCH  16  32
ATOM     32  O   UNL     1      42.252 -21.520 175.693  0.00  0.00    +0.000 OA
ATOM     33  H   UNL     1      42.896 -20.787 175.704  0.00  0.00    +0.000 HD
ENDBRANCH  16  32
BRANCH  28  34
ATOM     34  O   UNL     1      44.658 -21.264 163.013  0.00  0.00    +0.000 OA
ATOM     35  H   UNL     1      44.825 -22.069 162.489  0.00  0.00    +0.000 HD
ENDBRANCH  28  34
TORSDOF 3
ENDMDL
