MODEL 1
REMARK VINA RESULT:      -4.6      0.000      0.000
REMARK  Name = 146026348_FluorouracilMononitrate.pdbqt.pdb
REMARK  2 active torsions:
REMARK  status: ('A' for Active; 'I' for Inactive)
REMARK    1  A    between atoms: N_4  and  O_10
REMARK    2  A    between atoms: O_10  and  N_13
REMARK                            x       y       z     vdW  Elec       q    Type
REMARK                         _______ _______ _______ _____ _____    ______ ____
ROOT
ATOM      1  F   UNL     1      34.295  -0.477 162.519  0.00  0.00    +0.000 F 
ATOM      2  O   UNL     1      31.903   0.380 163.682  0.00  0.00    +0.000 OA
ATOM      3  O   UNL     1      34.494   2.862 166.682  0.00  0.00    +0.000 OA
ATOM      4  N   UNL     1      33.159   1.508 165.302  0.00  0.00    +0.000 N 
ATOM      5  N   UNL     1      34.254   0.245 163.650  0.00  0.00    +0.000 N 
ATOM      6  C   UNL     1      32.994   0.670 164.165  0.00  0.00    +0.000 A 
ATOM      7  C   UNL     1      34.355   2.021 165.809  0.00  0.00    +0.000 A 
ATOM      8  C   UNL     1      35.484   1.453 165.109  0.00  0.00    +0.000 A 
ATOM      9  C   UNL     1      35.402   0.696 164.190  0.00  0.00    +0.000 A 
ENDROOT
BRANCH   4  10
ATOM     10  O   UNL     1      31.976   2.056 165.830  0.00  0.00    +0.000 OA
BRANCH  10  13
ATOM     11  O   UNL     1      31.143   0.249 166.878  0.00  0.00    +0.000 OA
ATOM     12  O   UNL     1      31.558   2.136 168.005  0.00  0.00    +0.000 OA
ATOM     13  N   UNL     1      31.513   1.419 167.008  0.00  0.00    +0.000 N 
ENDBRANCH  10  13
ENDBRANCH   4  10
TORSDOF 2
ENDMDL
MODEL 2
REMARK VINA RESULT:      -4.6     23.617     24.632
REMARK  Name = 146026348_FluorouracilMononitrate.pdbqt.pdb
REMARK  2 active torsions:
REMARK  status: ('A' for Active; 'I' for Inactive)
REMARK    1  A    between atoms: N_4  and  O_10
REMARK    2  A    between atoms: O_10  and  N_13
REMARK                            x       y       z     vdW  Elec       q    Type
REMARK                         _______ _______ _______ _____ _____    ______ ____
ROOT
ATOM      1  F   UNL     1      24.883   3.035 189.895  0.00  0.00    +0.000 F 
ATOM      2  O   UNL     1      22.637   2.207 188.454  0.00  0.00    +0.000 OA
ATOM      3  O   UNL     1      23.709   5.492 185.302  0.00  0.00    +0.000 OA
ATOM      4  N   UNL     1      23.042   3.941 186.935  0.00  0.00    +0.000 N 
ATOM      5  N   UNL     1      24.435   3.685 188.810  0.00  0.00    +0.000 N 
ATOM      6  C   UNL     1      23.299   3.183 188.111  0.00  0.00    +0.000 A 
ATOM      7  C   UNL     1      23.838   4.948 186.386  0.00  0.00    +0.000 A 
ATOM      8  C   UNL     1      24.933   5.264 187.274  0.00  0.00    +0.000 A 
ATOM      9  C   UNL     1      25.157   4.703 188.302  0.00  0.00    +0.000 A 
ENDROOT
BRANCH   4  10
ATOM     10  O   UNL     1      21.994   3.468 186.124  0.00  0.00    +0.000 OA
BRANCH  10  13
ATOM     11  O   UNL     1      19.751   3.384 185.991  0.00  0.00    +0.000 OA
ATOM     12  O   UNL     1      20.769   4.990 187.168  0.00  0.00    +0.000 OA
ATOM     13  N   UNL     1      20.720   3.993 186.452  0.00  0.00    +0.000 N 
ENDBRANCH  10  13
ENDBRANCH   4  10
TORSDOF 2
ENDMDL
MODEL 3
REMARK VINA RESULT:      -4.4      9.227     10.384
REMARK  Name = 146026348_FluorouracilMononitrate.pdbqt.pdb
REMARK  2 active torsions:
REMARK  status: ('A' for Active; 'I' for Inactive)
REMARK    1  A    between atoms: N_4  and  O_10
REMARK    2  A    between atoms: O_10  and  N_13
REMARK                            x       y       z     vdW  Elec       q    Type
REMARK                         _______ _______ _______ _____ _____    ______ ____
ROOT
ATOM      1  F   UNL     1      40.537   4.324 175.325  0.00  0.00    +0.000 F 
ATOM      2  O   UNL     1      37.994   5.425 174.966  0.00  0.00    +0.000 OA
ATOM      3  O   UNL     1      38.240   4.008 170.516  0.00  0.00    +0.000 OA
ATOM      4  N   UNL     1      38.140   4.878 172.695  0.00  0.00    +0.000 N 
ATOM      5  N   UNL     1      39.948   4.415 174.124  0.00  0.00    +0.000 N 
ATOM      6  C   UNL     1      38.635   4.963 174.026  0.00  0.00    +0.000 A 
ATOM      7  C   UNL     1      38.728   4.220 171.614  0.00  0.00    +0.000 A 
ATOM      8  C   UNL     1      40.042   3.740 171.970  0.00  0.00    +0.000 A 
ATOM      9  C   UNL     1      40.531   3.841 173.054  0.00  0.00    +0.000 A 
ENDROOT
BRANCH   4  10
ATOM     10  O   UNL     1      36.813   5.310 172.513  0.00  0.00    +0.000 OA
BRANCH  10  13
ATOM     11  O   UNL     1      36.051   6.489 170.756  0.00  0.00    +0.000 OA
ATOM     12  O   UNL     1      37.239   7.480 172.371  0.00  0.00    +0.000 OA
ATOM     13  N   UNL     1      36.689   6.534 171.811  0.00  0.00    +0.000 N 
ENDBRANCH  10  13
ENDBRANCH   4  10
TORSDOF 2
ENDMDL
MODEL 4
REMARK VINA RESULT:      -4.3     29.905     30.716
REMARK  Name = 146026348_FluorouracilMononitrate.pdbqt.pdb
REMARK  2 active torsions:
REMARK  status: ('A' for Active; 'I' for Inactive)
REMARK    1  A    between atoms: N_4  and  O_10
REMARK    2  A    between atoms: O_10  and  N_13
REMARK                            x       y       z     vdW  Elec       q    Type
REMARK                         _______ _______ _______ _____ _____    ______ ____
ROOT
ATOM      1  F   UNL     1      13.707 -17.144 177.526  0.00  0.00    +0.000 F 
ATOM      2  O   UNL     1      14.719 -17.951 180.003  0.00  0.00    +0.000 OA
ATOM      3  O   UNL     1      17.232 -21.152 177.697  0.00  0.00    +0.000 OA
ATOM      4  N   UNL     1      15.870 -19.670 178.909  0.00  0.00    +0.000 N 
ATOM      5  N   UNL     1      14.484 -18.228 177.676  0.00  0.00    +0.000 N 
ATOM      6  C   UNL     1      14.985 -18.558 178.969  0.00  0.00    +0.000 A 
ATOM      7  C   UNL     1      16.356 -20.304 177.765  0.00  0.00    +0.000 A 
ATOM      8  C   UNL     1      15.707 -19.782 176.585  0.00  0.00    +0.000 A 
ATOM      9  C   UNL     1      14.911 -18.893 176.585  0.00  0.00    +0.000 A 
ENDROOT
BRANCH   4  10
ATOM     10  O   UNL     1      16.493 -20.017 180.122  0.00  0.00    +0.000 OA
BRANCH  10  13
ATOM     11  O   UNL     1      15.125 -20.537 181.830  0.00  0.00    +0.000 OA
ATOM     12  O   UNL     1      15.932 -22.130 180.484  0.00  0.00    +0.000 OA
ATOM     13  N   UNL     1      15.786 -20.978 180.886  0.00  0.00    +0.000 N 
ENDBRANCH  10  13
ENDBRANCH   4  10
TORSDOF 2
ENDMDL
MODEL 5
REMARK VINA RESULT:      -4.3     21.774     23.089
REMARK  Name = 146026348_FluorouracilMononitrate.pdbqt.pdb
REMARK  2 active torsions:
REMARK  status: ('A' for Active; 'I' for Inactive)
REMARK    1  A    between atoms: N_4  and  O_10
REMARK    2  A    between atoms: O_10  and  N_13
REMARK                            x       y       z     vdW  Elec       q    Type
REMARK                         _______ _______ _______ _____ _____    ______ ____
ROOT
ATOM      1  F   UNL     1      33.535   4.308 185.568  0.00  0.00    +0.000 F 
ATOM      2  O   UNL     1      33.281   2.002 187.126  0.00  0.00    +0.000 OA
ATOM      3  O   UNL     1      29.318   3.829 188.808  0.00  0.00    +0.000 OA
ATOM      4  N   UNL     1      31.381   2.945 188.114  0.00  0.00    +0.000 N 
ATOM      5  N   UNL     1      32.589   4.166 186.509  0.00  0.00    +0.000 N 
ATOM      6  C   UNL     1      32.506   2.947 187.243  0.00  0.00    +0.000 A 
ATOM      7  C   UNL     1      30.363   3.898 188.181  0.00  0.00    +0.000 A 
ATOM      8  C   UNL     1      30.671   5.027 187.336  0.00  0.00    +0.000 A 
ATOM      9  C   UNL     1      31.633   5.107 186.634  0.00  0.00    +0.000 A 
ENDROOT
BRANCH   4  10
ATOM     10  O   UNL     1      31.157   1.747 188.815  0.00  0.00    +0.000 OA
BRANCH  10  13
ATOM     11  O   UNL     1      32.603   0.535 190.040  0.00  0.00    +0.000 OA
ATOM     12  O   UNL     1      31.913   2.544 190.740  0.00  0.00    +0.000 OA
ATOM     13  N   UNL     1      31.964   1.588 189.970  0.00  0.00    +0.000 N 
ENDBRANCH  10  13
ENDBRANCH   4  10
TORSDOF 2
ENDMDL
MODEL 6
REMARK VINA RESULT:      -4.2     30.790     31.331
REMARK  Name = 146026348_FluorouracilMononitrate.pdbqt.pdb
REMARK  2 active torsions:
REMARK  status: ('A' for Active; 'I' for Inactive)
REMARK    1  A    between atoms: N_4  and  O_10
REMARK    2  A    between atoms: O_10  and  N_13
REMARK                            x       y       z     vdW  Elec       q    Type
REMARK                         _______ _______ _______ _____ _____    ______ ____
ROOT
ATOM      1  F   UNL     1      40.953 -18.541 185.633  0.00  0.00    +0.000 F 
ATOM      2  O   UNL     1      40.552 -18.986 188.363  0.00  0.00    +0.000 OA
ATOM      3  O   UNL     1      44.666 -16.884 189.094  0.00  0.00    +0.000 OA
ATOM      4  N   UNL     1      42.676 -18.087 188.764  0.00  0.00    +0.000 N 
ATOM      5  N   UNL     1      41.892 -18.287 186.557  0.00  0.00    +0.000 N 
ATOM      6  C   UNL     1      41.601 -18.513 187.934  0.00  0.00    +0.000 A 
ATOM      7  C   UNL     1      43.820 -17.389 188.374  0.00  0.00    +0.000 A 
ATOM      8  C   UNL     1      43.876 -17.275 186.935  0.00  0.00    +0.000 A 
ATOM      9  C   UNL     1      43.032 -17.671 186.190  0.00  0.00    +0.000 A 
ENDROOT
BRANCH   4  10
ATOM     10  O   UNL     1      42.449 -18.182 190.149  0.00  0.00    +0.000 OA
BRANCH  10  13
ATOM     11  O   UNL     1      41.119 -16.373 190.276  0.00  0.00    +0.000 OA
ATOM     12  O   UNL     1      42.802 -16.661 191.721  0.00  0.00    +0.000 OA
ATOM     13  N   UNL     1      42.088 -16.959 190.766  0.00  0.00    +0.000 N 
ENDBRANCH  10  13
ENDBRANCH   4  10
TORSDOF 2
ENDMDL
MODEL 7
REMARK VINA RESULT:      -4.1     11.512     12.189
REMARK  Name = 146026348_FluorouracilMononitrate.pdbqt.pdb
REMARK  2 active torsions:
REMARK  status: ('A' for Active; 'I' for Inactive)
REMARK    1  A    between atoms: N_4  and  O_10
REMARK    2  A    between atoms: O_10  and  N_13
REMARK                            x       y       z     vdW  Elec       q    Type
REMARK                         _______ _______ _______ _____ _____    ______ ____
ROOT
ATOM      1  F   UNL     1      42.444   0.642 175.751  0.00  0.00    +0.000 F 
ATOM      2  O   UNL     1      39.945   1.787 175.246  0.00  0.00    +0.000 OA
ATOM      3  O   UNL     1      42.017   4.320 171.904  0.00  0.00    +0.000 OA
ATOM      4  N   UNL     1      40.968   3.189 173.675  0.00  0.00    +0.000 N 
ATOM      5  N   UNL     1      42.273   1.669 174.905  0.00  0.00    +0.000 N 
ATOM      6  C   UNL     1      40.961   2.179 174.678  0.00  0.00    +0.000 A 
ATOM      7  C   UNL     1      42.040   3.571 172.867  0.00  0.00    +0.000 A 
ATOM      8  C   UNL     1      43.250   2.903 173.285  0.00  0.00    +0.000 A 
ATOM      9  C   UNL     1      43.312   2.095 174.161  0.00  0.00    +0.000 A 
ENDROOT
BRANCH   4  10
ATOM     10  O   UNL     1      39.706   3.693 173.311  0.00  0.00    +0.000 OA
BRANCH  10  13
ATOM     11  O   UNL     1      40.023   5.569 174.510  0.00  0.00    +0.000 OA
ATOM     12  O   UNL     1      38.022   4.572 174.453  0.00  0.00    +0.000 OA
ATOM     13  N   UNL     1      39.211   4.704 174.172  0.00  0.00    +0.000 N 
ENDBRANCH  10  13
ENDBRANCH   4  10
TORSDOF 2
ENDMDL
MODEL 8
REMARK VINA RESULT:      -4.1      9.325     10.728
REMARK  Name = 146026348_FluorouracilMononitrate.pdbqt.pdb
REMARK  2 active torsions:
REMARK  status: ('A' for Active; 'I' for Inactive)
REMARK    1  A    between atoms: N_4  and  O_10
REMARK    2  A    between atoms: O_10  and  N_13
REMARK                            x       y       z     vdW  Elec       q    Type
REMARK                         _______ _______ _______ _____ _____    ______ ____
ROOT
ATOM      1  F   UNL     1      37.542   9.348 171.304  0.00  0.00    +0.000 F 
ATOM      2  O   UNL     1      38.227   8.287 173.797  0.00  0.00    +0.000 OA
ATOM      3  O   UNL     1      36.830   4.128 172.176  0.00  0.00    +0.000 OA
ATOM      4  N   UNL     1      37.390   6.220 173.085  0.00  0.00    +0.000 N 
ATOM      5  N   UNL     1      37.266   8.082 171.656  0.00  0.00    +0.000 N 
ATOM      6  C   UNL     1      37.675   7.607 172.937  0.00  0.00    +0.000 A 
ATOM      7  C   UNL     1      36.926   5.342 172.104  0.00  0.00    +0.000 A 
ATOM      8  C   UNL     1      36.598   6.063 170.896  0.00  0.00    +0.000 A 
ATOM      9  C   UNL     1      36.758   7.236 170.741  0.00  0.00    +0.000 A 
ENDROOT
BRANCH   4  10
ATOM     10  O   UNL     1      37.840   5.632 174.281  0.00  0.00    +0.000 OA
BRANCH  10  13
ATOM     11  O   UNL     1      39.027   3.735 174.501  0.00  0.00    +0.000 OA
ATOM     12  O   UNL     1      39.982   5.598 173.714  0.00  0.00    +0.000 OA
ATOM     13  N   UNL     1      39.059   4.920 174.159  0.00  0.00    +0.000 N 
ENDBRANCH  10  13
ENDBRANCH   4  10
TORSDOF 2
ENDMDL
MODEL 9
REMARK VINA RESULT:      -4.1     23.940     24.924
REMARK  Name = 146026348_FluorouracilMononitrate.pdbqt.pdb
REMARK  2 active torsions:
REMARK  status: ('A' for Active; 'I' for Inactive)
REMARK    1  A    between atoms: N_4  and  O_10
REMARK    2  A    between atoms: O_10  and  N_13
REMARK                            x       y       z     vdW  Elec       q    Type
REMARK                         _______ _______ _______ _____ _____    ______ ____
ROOT
ATOM      1  F   UNL     1      10.887   7.259 175.494  0.00  0.00    +0.000 F 
ATOM      2  O   UNL     1       9.473   5.139 176.641  0.00  0.00    +0.000 OA
ATOM      3  O   UNL     1      13.605   3.335 177.888  0.00  0.00    +0.000 OA
ATOM      4  N   UNL     1      11.519   4.120 177.144  0.00  0.00    +0.000 N 
ATOM      5  N   UNL     1      11.489   6.167 175.989  0.00  0.00    +0.000 N 
ATOM      6  C   UNL     1      10.700   5.140 176.585  0.00  0.00    +0.000 A 
ATOM      7  C   UNL     1      12.909   4.127 177.273  0.00  0.00    +0.000 A 
ATOM      8  C   UNL     1      13.472   5.276 176.602  0.00  0.00    +0.000 A 
ATOM      9  C   UNL     1      12.833   6.128 176.064  0.00  0.00    +0.000 A 
ENDROOT
BRANCH   4  10
ATOM     10  O   UNL     1      10.837   3.105 177.838  0.00  0.00    +0.000 OA
BRANCH  10  13
ATOM     11  O   UNL     1      10.506   1.803 176.035  0.00  0.00    +0.000 OA
ATOM     12  O   UNL     1      11.305   0.941 177.938  0.00  0.00    +0.000 OA
ATOM     13  N   UNL     1      10.882   1.836 177.209  0.00  0.00    +0.000 N 
ENDBRANCH  10  13
ENDBRANCH   4  10
TORSDOF 2
ENDMDL
