MODEL 1
REMARK VINA RESULT:      -8.8      0.000      0.000
REMARK  Name = 179268_Nortopsentin.pdbqt.pdb
REMARK  2 active torsions:
REMARK  status: ('A' for Active; 'I' for Inactive)
REMARK    1  A    between atoms: C_3  and  C_9
REMARK    2  A    between atoms: C_4  and  C_20
REMARK                            x       y       z     vdW  Elec       q    Type
REMARK                         _______ _______ _______ _____ _____    ______ ____
ROOT
ATOM      1  N   UNL     1      19.438   1.204 192.986  0.00  0.00    +0.000 N 
ATOM      2  N   UNL     1      19.544  -0.753 191.959  0.00  0.00    +0.000 NA
ATOM      3  C   UNL     1      19.922   0.323 193.913  0.00  0.00    +0.000 A 
ATOM      4  C   UNL     1      19.222   0.516 191.818  0.00  0.00    +0.000 A 
ATOM      5  C   UNL     1      19.980  -0.885 193.255  0.00  0.00    +0.000 A 
ATOM      6  H   UNL     1      19.266   2.188 193.121  0.00  0.00    +0.000 HD
ENDROOT
BRANCH   3   9
ATOM      7 BR   UNL     1      17.786   0.855 200.827  0.00  0.00    +0.000 Br
ATOM      8  N   UNL     1      21.560   1.164 197.052  0.00  0.00    +0.000 N 
ATOM      9  C   UNL     1      20.297   0.616 195.311  0.00  0.00    +0.000 A 
ATOM     10  C   UNL     1      19.477   0.600 196.475  0.00  0.00    +0.000 A 
ATOM     11  C   UNL     1      20.297   0.948 197.553  0.00  0.00    +0.000 A 
ATOM     12  C   UNL     1      21.569   0.966 195.700  0.00  0.00    +0.000 A 
ATOM     13  C   UNL     1      18.119   0.325 196.728  0.00  0.00    +0.000 A 
ATOM     14  C   UNL     1      19.830   1.036 198.869  0.00  0.00    +0.000 A 
ATOM     15  C   UNL     1      17.632   0.406 198.033  0.00  0.00    +0.000 A 
ATOM     16  C   UNL     1      18.480   0.755 199.077  0.00  0.00    +0.000 A 
ATOM     17  H   UNL     1      22.366   1.431 197.602  0.00  0.00    +0.000 HD
ENDBRANCH   3   9
BRANCH   4  20
ATOM     18 BR   UNL     1      20.818   3.581 185.449  0.00  0.00    +0.000 Br
ATOM     19  N   UNL     1      17.258   1.869 189.054  0.00  0.00    +0.000 N 
ATOM     20  C   UNL     1      18.697   1.125 190.570  0.00  0.00    +0.000 A 
ATOM     21  C   UNL     1      19.441   1.648 189.476  0.00  0.00    +0.000 A 
ATOM     22  C   UNL     1      18.512   2.108 188.539  0.00  0.00    +0.000 A 
ATOM     23  C   UNL     1      17.360   1.275 190.283  0.00  0.00    +0.000 A 
ATOM     24  C   UNL     1      20.813   1.776 189.185  0.00  0.00    +0.000 A 
ATOM     25  C   UNL     1      18.883   2.692 187.324  0.00  0.00    +0.000 A 
ATOM     26  C   UNL     1      21.205   2.357 187.977  0.00  0.00    +0.000 A 
ATOM     27  C   UNL     1      20.251   2.802 187.072  0.00  0.00    +0.000 A 
ATOM     28  H   UNL     1      16.391   2.101 188.590  0.00  0.00    +0.000 HD
ENDBRANCH   4  20
TORSDOF 2
ENDMDL
MODEL 2
REMARK VINA RESULT:      -8.8      0.406      9.046
REMARK  Name = 179268_Nortopsentin.pdbqt.pdb
REMARK  2 active torsions:
REMARK  status: ('A' for Active; 'I' for Inactive)
REMARK    1  A    between atoms: C_3  and  C_9
REMARK    2  A    between atoms: C_4  and  C_20
REMARK                            x       y       z     vdW  Elec       q    Type
REMARK                         _______ _______ _______ _____ _____    ______ ____
ROOT
ATOM      1  N   UNL     1      19.521   1.185 193.101  0.00  0.00    +0.000 N 
ATOM      2  N   UNL     1      20.098  -0.923 193.447  0.00  0.00    +0.000 NA
ATOM      3  C   UNL     1      19.287   0.536 191.920  0.00  0.00    +0.000 A 
ATOM      4  C   UNL     1      20.011   0.270 193.999  0.00  0.00    +0.000 A 
ATOM      5  C   UNL     1      19.651  -0.770 192.157  0.00  0.00    +0.000 A 
ATOM      6  H   UNL     1      19.366   2.163 193.293  0.00  0.00    +0.000 HD
ENDROOT
BRANCH   3   9
ATOM      7 BR   UNL     1      20.757   3.513 185.469  0.00  0.00    +0.000 Br
ATOM      8  N   UNL     1      17.285   1.831 189.171  0.00  0.00    +0.000 N 
ATOM      9  C   UNL     1      18.758   1.121 190.671  0.00  0.00    +0.000 A 
ATOM     10  C   UNL     1      19.478   1.632 189.553  0.00  0.00    +0.000 A 
ATOM     11  C   UNL     1      18.526   2.071 188.627  0.00  0.00    +0.000 A 
ATOM     12  C   UNL     1      17.416   1.258 190.404  0.00  0.00    +0.000 A 
ATOM     13  C   UNL     1      20.841   1.769 189.229  0.00  0.00    +0.000 A 
ATOM     14  C   UNL     1      18.868   2.639 187.395  0.00  0.00    +0.000 A 
ATOM     15  C   UNL     1      21.205   2.332 188.006  0.00  0.00    +0.000 A 
ATOM     16  C   UNL     1      20.229   2.756 187.112  0.00  0.00    +0.000 A 
ATOM     17  H   UNL     1      16.404   2.046 188.724  0.00  0.00    +0.000 HD
ENDBRANCH   3   9
BRANCH   4  20
ATOM     18 BR   UNL     1      17.780   0.928 200.862  0.00  0.00    +0.000 Br
ATOM     19  N   UNL     1      21.626   1.149 197.152  0.00  0.00    +0.000 N 
ATOM     20  C   UNL     1      20.388   0.586 195.399  0.00  0.00    +0.000 A 
ATOM     21  C   UNL     1      19.549   0.595 196.548  0.00  0.00    +0.000 A 
ATOM     22  C   UNL     1      20.352   0.952 197.634  0.00  0.00    +0.000 A 
ATOM     23  C   UNL     1      21.658   0.931 195.802  0.00  0.00    +0.000 A 
ATOM     24  C   UNL     1      18.183   0.334 196.775  0.00  0.00    +0.000 A 
ATOM     25  C   UNL     1      19.862   1.062 198.938  0.00  0.00    +0.000 A 
ATOM     26  C   UNL     1      17.673   0.440 198.071  0.00  0.00    +0.000 A 
ATOM     27  C   UNL     1      18.504   0.797 199.124  0.00  0.00    +0.000 A 
ATOM     28  H   UNL     1      22.421   1.416 197.717  0.00  0.00    +0.000 HD
ENDBRANCH   4  20
TORSDOF 2
ENDMDL
MODEL 3
REMARK VINA RESULT:      -8.5      1.370      8.898
REMARK  Name = 179268_Nortopsentin.pdbqt.pdb
REMARK  2 active torsions:
REMARK  status: ('A' for Active; 'I' for Inactive)
REMARK    1  A    between atoms: C_3  and  C_9
REMARK    2  A    between atoms: C_4  and  C_20
REMARK                            x       y       z     vdW  Elec       q    Type
REMARK                         _______ _______ _______ _____ _____    ______ ____
ROOT
ATOM      1  N   UNL     1      18.491   0.833 193.104  0.00  0.00    +0.000 N 
ATOM      2  N   UNL     1      20.161  -0.580 193.433  0.00  0.00    +0.000 NA
ATOM      3  C   UNL     1      19.023   0.592 191.867  0.00  0.00    +0.000 A 
ATOM      4  C   UNL     1      19.206   0.107 194.023  0.00  0.00    +0.000 A 
ATOM      5  C   UNL     1      20.058  -0.287 192.094  0.00  0.00    +0.000 A 
ATOM      6  H   UNL     1      17.711   1.436 193.318  0.00  0.00    +0.000 HD
ENDROOT
BRANCH   3   9
ATOM      7 BR   UNL     1      20.907   3.552 185.516  0.00  0.00    +0.000 Br
ATOM      8  N   UNL     1      17.204   1.830 188.969  0.00  0.00    +0.000 N 
ATOM      9  C   UNL     1      18.576   1.158 190.579  0.00  0.00    +0.000 A 
ATOM     10  C   UNL     1      19.366   1.675 189.512  0.00  0.00    +0.000 A 
ATOM     11  C   UNL     1      18.477   2.090 188.515  0.00  0.00    +0.000 A 
ATOM     12  C   UNL     1      17.255   1.268 190.213  0.00  0.00    +0.000 A 
ATOM     13  C   UNL     1      20.747   1.835 189.287  0.00  0.00    +0.000 A 
ATOM     14  C   UNL     1      18.897   2.656 187.306  0.00  0.00    +0.000 A 
ATOM     15  C   UNL     1      21.189   2.397 188.089  0.00  0.00    +0.000 A 
ATOM     16  C   UNL     1      20.273   2.797 187.123  0.00  0.00    +0.000 A 
ATOM     17  H   UNL     1      16.354   2.026 188.458  0.00  0.00    +0.000 HD
ENDBRANCH   3   9
BRANCH   4  20
ATOM     18 BR   UNL     1      21.718   1.613 200.651  0.00  0.00    +0.000 Br
ATOM     19  N   UNL     1      17.871  -0.196 197.407  0.00  0.00    +0.000 N 
ATOM     20  C   UNL     1      18.934   0.100 195.482  0.00  0.00    +0.000 A 
ATOM     21  C   UNL     1      19.794   0.528 196.532  0.00  0.00    +0.000 A 
ATOM     22  C   UNL     1      19.101   0.330 197.729  0.00  0.00    +0.000 A 
ATOM     23  C   UNL     1      17.760  -0.339 196.051  0.00  0.00    +0.000 A 
ATOM     24  C   UNL     1      21.095   1.066 196.586  0.00  0.00    +0.000 A 
ATOM     25  C   UNL     1      19.640   0.642 198.980  0.00  0.00    +0.000 A 
ATOM     26  C   UNL     1      21.653   1.383 197.826  0.00  0.00    +0.000 A 
ATOM     27  C   UNL     1      20.932   1.172 198.993  0.00  0.00    +0.000 A 
ATOM     28  H   UNL     1      17.155  -0.441 198.078  0.00  0.00    +0.000 HD
ENDBRANCH   4  20
TORSDOF 2
ENDMDL
MODEL 4
REMARK VINA RESULT:      -8.5      2.413      9.315
REMARK  Name = 179268_Nortopsentin.pdbqt.pdb
REMARK  2 active torsions:
REMARK  status: ('A' for Active; 'I' for Inactive)
REMARK    1  A    between atoms: C_3  and  C_9
REMARK    2  A    between atoms: C_4  and  C_20
REMARK                            x       y       z     vdW  Elec       q    Type
REMARK                         _______ _______ _______ _____ _____    ______ ____
ROOT
ATOM      1  N   UNL     1      21.621   1.234 190.843  0.00  0.00    +0.000 N 
ATOM      2  N   UNL     1      19.447   0.831 190.756  0.00  0.00    +0.000 NA
ATOM      3  C   UNL     1      21.146   1.982 189.801  0.00  0.00    +0.000 A 
ATOM      4  C   UNL     1      20.565   0.553 191.394  0.00  0.00    +0.000 A 
ATOM      5  C   UNL     1      19.795   1.717 189.765  0.00  0.00    +0.000 A 
ATOM      6  H   UNL     1      22.577   1.182 191.161  0.00  0.00    +0.000 HD
ENDROOT
BRANCH   3   9
ATOM      7 BR   UNL     1      22.031   4.712 183.137  0.00  0.00    +0.000 Br
ATOM      8  N   UNL     1      23.476   4.320 188.271  0.00  0.00    +0.000 N 
ATOM      9  C   UNL     1      21.921   2.874 188.916  0.00  0.00    +0.000 A 
ATOM     10  C   UNL     1      21.730   3.139 187.530  0.00  0.00    +0.000 A 
ATOM     11  C   UNL     1      22.721   4.051 187.153  0.00  0.00    +0.000 A 
ATOM     12  C   UNL     1      23.000   3.614 189.339  0.00  0.00    +0.000 A 
ATOM     13  C   UNL     1      20.816   2.700 186.553  0.00  0.00    +0.000 A 
ATOM     14  C   UNL     1      22.845   4.545 185.849  0.00  0.00    +0.000 A 
ATOM     15  C   UNL     1      20.921   3.180 185.247  0.00  0.00    +0.000 A 
ATOM     16  C   UNL     1      21.920   4.085 184.912  0.00  0.00    +0.000 A 
ATOM     17  H   UNL     1      24.268   4.948 188.300  0.00  0.00    +0.000 HD
ENDBRANCH   3   9
BRANCH   4  20
ATOM     18 BR   UNL     1      18.362  -0.990 198.123  0.00  0.00    +0.000 Br
ATOM     19  N   UNL     1      21.321  -2.082 193.805  0.00  0.00    +0.000 N 
ATOM     20  C   UNL     1      20.673  -0.369 192.553  0.00  0.00    +0.000 A 
ATOM     21  C   UNL     1      19.992  -0.287 193.799  0.00  0.00    +0.000 A 
ATOM     22  C   UNL     1      20.418  -1.375 194.566  0.00  0.00    +0.000 A 
ATOM     23  C   UNL     1      21.483  -1.482 192.586  0.00  0.00    +0.000 A 
ATOM     24  C   UNL     1      19.054   0.604 194.356  0.00  0.00    +0.000 A 
ATOM     25  C   UNL     1      19.955  -1.620 195.861  0.00  0.00    +0.000 A 
ATOM     26  C   UNL     1      18.579   0.378 195.649  0.00  0.00    +0.000 A 
ATOM     27  C   UNL     1      19.027  -0.715 196.378  0.00  0.00    +0.000 A 
ATOM     28  H   UNL     1      21.795  -2.923 194.106  0.00  0.00    +0.000 HD
ENDBRANCH   4  20
TORSDOF 2
ENDMDL
MODEL 5
REMARK VINA RESULT:      -8.3      3.141      4.319
REMARK  Name = 179268_Nortopsentin.pdbqt.pdb
REMARK  2 active torsions:
REMARK  status: ('A' for Active; 'I' for Inactive)
REMARK    1  A    between atoms: C_3  and  C_9
REMARK    2  A    between atoms: C_4  and  C_20
REMARK                            x       y       z     vdW  Elec       q    Type
REMARK                         _______ _______ _______ _____ _____    ______ ____
ROOT
ATOM      1  N   UNL     1      20.349   0.888 191.933  0.00  0.00    +0.000 N 
ATOM      2  N   UNL     1      18.246   1.119 192.579  0.00  0.00    +0.000 NA
ATOM      3  C   UNL     1      20.336   0.595 193.268  0.00  0.00    +0.000 A 
ATOM      4  C   UNL     1      19.068   1.200 191.554  0.00  0.00    +0.000 A 
ATOM      5  C   UNL     1      19.022   0.744 193.649  0.00  0.00    +0.000 A 
ATOM      6  H   UNL     1      21.152   0.882 191.322  0.00  0.00    +0.000 HD
ENDROOT
BRANCH   3   9
ATOM      7 BR   UNL     1      27.076  -2.082 193.528  0.00  0.00    +0.000 Br
ATOM      8  N   UNL     1      22.713  -0.133 195.927  0.00  0.00    +0.000 N 
ATOM      9  C   UNL     1      21.487   0.204 194.107  0.00  0.00    +0.000 A 
ATOM     10  C   UNL     1      22.743  -0.332 193.701  0.00  0.00    +0.000 A 
ATOM     11  C   UNL     1      23.491  -0.534 194.866  0.00  0.00    +0.000 A 
ATOM     12  C   UNL     1      21.502   0.314 195.478  0.00  0.00    +0.000 A 
ATOM     13  C   UNL     1      23.325  -0.670 192.464  0.00  0.00    +0.000 A 
ATOM     14  C   UNL     1      24.790  -1.055 194.857  0.00  0.00    +0.000 A 
ATOM     15  C   UNL     1      24.619  -1.190 192.431  0.00  0.00    +0.000 A 
ATOM     16  C   UNL     1      25.329  -1.376 193.611  0.00  0.00    +0.000 A 
ATOM     17  H   UNL     1      22.993  -0.163 196.898  0.00  0.00    +0.000 HD
ENDBRANCH   3   9
BRANCH   4  20
ATOM     18 BR   UNL     1      21.217   3.729 185.112  0.00  0.00    +0.000 Br
ATOM     19  N   UNL     1      17.398   1.917 188.387  0.00  0.00    +0.000 N 
ATOM     20  C   UNL     1      18.669   1.576 190.174  0.00  0.00    +0.000 A 
ATOM     21  C   UNL     1      19.498   2.078 189.132  0.00  0.00    +0.000 A 
ATOM     22  C   UNL     1      18.674   2.283 188.023  0.00  0.00    +0.000 A 
ATOM     23  C   UNL     1      17.384   1.488 189.687  0.00  0.00    +0.000 A 
ATOM     24  C   UNL     1      20.869   2.380 189.020  0.00  0.00    +0.000 A 
ATOM     25  C   UNL     1      19.149   2.775 186.803  0.00  0.00    +0.000 A 
ATOM     26  C   UNL     1      21.364   2.873 187.811  0.00  0.00    +0.000 A 
ATOM     27  C   UNL     1      20.512   3.062 186.730  0.00  0.00    +0.000 A 
ATOM     28  H   UNL     1      16.590   1.960 187.781  0.00  0.00    +0.000 HD
ENDBRANCH   4  20
TORSDOF 2
ENDMDL
MODEL 6
REMARK VINA RESULT:      -7.8      2.221      8.680
REMARK  Name = 179268_Nortopsentin.pdbqt.pdb
REMARK  2 active torsions:
REMARK  status: ('A' for Active; 'I' for Inactive)
REMARK    1  A    between atoms: C_3  and  C_9
REMARK    2  A    between atoms: C_4  and  C_20
REMARK                            x       y       z     vdW  Elec       q    Type
REMARK                         _______ _______ _______ _____ _____    ______ ____
ROOT
ATOM      1  N   UNL     1      21.211  -0.365 193.124  0.00  0.00    +0.000 N 
ATOM      2  N   UNL     1      22.235   0.712 194.763  0.00  0.00    +0.000 NA
ATOM      3  C   UNL     1      22.108   0.470 192.517  0.00  0.00    +0.000 A 
ATOM      4  C   UNL     1      21.318  -0.189 194.480  0.00  0.00    +0.000 A 
ATOM      5  C   UNL     1      22.733   1.128 193.552  0.00  0.00    +0.000 A 
ATOM      6  H   UNL     1      20.577  -1.002 192.668  0.00  0.00    +0.000 HD
ENDROOT
BRANCH   3   9
ATOM      7 BR   UNL     1      19.787   3.180 186.199  0.00  0.00    +0.000 Br
ATOM      8  N   UNL     1      23.338   0.421 189.092  0.00  0.00    +0.000 N 
ATOM      9  C   UNL     1      22.346   0.622 191.067  0.00  0.00    +0.000 A 
ATOM     10  C   UNL     1      21.551   1.304 190.102  0.00  0.00    +0.000 A 
ATOM     11  C   UNL     1      22.200   1.161 188.871  0.00  0.00    +0.000 A 
ATOM     12  C   UNL     1      23.434   0.092 190.415  0.00  0.00    +0.000 A 
ATOM     13  C   UNL     1      20.345   2.031 190.144  0.00  0.00    +0.000 A 
ATOM     14  C   UNL     1      21.705   1.706 187.681  0.00  0.00    +0.000 A 
ATOM     15  C   UNL     1      19.834   2.584 188.969  0.00  0.00    +0.000 A 
ATOM     16  C   UNL     1      20.509   2.419 187.766  0.00  0.00    +0.000 A 
ATOM     17  H   UNL     1      24.008   0.158 188.381  0.00  0.00    +0.000 HD
ENDBRANCH   3   9
BRANCH   4  20
ATOM     18 BR   UNL     1      15.764   0.085 199.127  0.00  0.00    +0.000 Br
ATOM     19  N   UNL     1      19.790  -2.557 196.802  0.00  0.00    +0.000 N 
ATOM     20  C   UNL     1      20.508  -0.919 195.488  0.00  0.00    +0.000 A 
ATOM     21  C   UNL     1      19.397  -0.433 196.233  0.00  0.00    +0.000 A 
ATOM     22  C   UNL     1      18.967  -1.482 197.049  0.00  0.00    +0.000 A 
ATOM     23  C   UNL     1      20.725  -2.227 195.859  0.00  0.00    +0.000 A 
ATOM     24  C   UNL     1      18.712   0.796 196.295  0.00  0.00    +0.000 A 
ATOM     25  C   UNL     1      17.886  -1.367 197.928  0.00  0.00    +0.000 A 
ATOM     26  C   UNL     1      17.629   0.932 197.167  0.00  0.00    +0.000 A 
ATOM     27  C   UNL     1      17.232  -0.134 197.962  0.00  0.00    +0.000 A 
ATOM     28  H   UNL     1      19.712  -3.458 197.253  0.00  0.00    +0.000 HD
ENDBRANCH   4  20
TORSDOF 2
ENDMDL
MODEL 7
REMARK VINA RESULT:      -7.6      2.155      2.939
REMARK  Name = 179268_Nortopsentin.pdbqt.pdb
REMARK  2 active torsions:
REMARK  status: ('A' for Active; 'I' for Inactive)
REMARK    1  A    between atoms: C_3  and  C_9
REMARK    2  A    between atoms: C_4  and  C_20
REMARK                            x       y       z     vdW  Elec       q    Type
REMARK                         _______ _______ _______ _____ _____    ______ ____
ROOT
ATOM      1  N   UNL     1      22.443   0.894 192.852  0.00  0.00    +0.000 N 
ATOM      2  N   UNL     1      22.338  -1.129 191.963  0.00  0.00    +0.000 NA
ATOM      3  C   UNL     1      22.056   0.062 193.866  0.00  0.00    +0.000 A 
ATOM      4  C   UNL     1      22.603   0.138 191.719  0.00  0.00    +0.000 A 
ATOM      5  C   UNL     1      21.997  -1.188 193.293  0.00  0.00    +0.000 A 
ATOM      6  H   UNL     1      22.589   1.890 192.912  0.00  0.00    +0.000 HD
ENDROOT
BRANCH   3   9
ATOM      7 BR   UNL     1      17.106   0.631 199.141  0.00  0.00    +0.000 Br
ATOM      8  N   UNL     1      22.112   1.155 197.337  0.00  0.00    +0.000 N 
ATOM      9  C   UNL     1      21.768   0.436 195.266  0.00  0.00    +0.000 A 
ATOM     10  C   UNL     1      20.528   0.384 195.963  0.00  0.00    +0.000 A 
ATOM     11  C   UNL     1      20.775   0.842 197.261  0.00  0.00    +0.000 A 
ATOM     12  C   UNL     1      22.719   0.913 196.137  0.00  0.00    +0.000 A 
ATOM     13  C   UNL     1      19.216  -0.005 195.628  0.00  0.00    +0.000 A 
ATOM     14  C   UNL     1      19.779   0.931 198.241  0.00  0.00    +0.000 A 
ATOM     15  C   UNL     1      18.208   0.076 196.589  0.00  0.00    +0.000 A 
ATOM     16  C   UNL     1      18.494   0.536 197.868  0.00  0.00    +0.000 A 
ATOM     17  H   UNL     1      22.580   1.512 198.159  0.00  0.00    +0.000 HD
ENDBRANCH   3   9
BRANCH   4  20
ATOM     18 BR   UNL     1      20.533   3.437 185.608  0.00  0.00    +0.000 Br
ATOM     19  N   UNL     1      24.311   1.234 188.684  0.00  0.00    +0.000 N 
ATOM     20  C   UNL     1      23.019   0.678 190.400  0.00  0.00    +0.000 A 
ATOM     21  C   UNL     1      22.203   1.304 189.418  0.00  0.00    +0.000 A 
ATOM     22  C   UNL     1      23.040   1.642 188.352  0.00  0.00    +0.000 A 
ATOM     23  C   UNL     1      24.309   0.648 189.922  0.00  0.00    +0.000 A 
ATOM     24  C   UNL     1      20.833   1.620 189.326  0.00  0.00    +0.000 A 
ATOM     25  C   UNL     1      22.580   2.280 187.196  0.00  0.00    +0.000 A 
ATOM     26  C   UNL     1      20.352   2.256 188.180  0.00  0.00    +0.000 A 
ATOM     27  C   UNL     1      21.217   2.576 187.142  0.00  0.00    +0.000 A 
ATOM     28  H   UNL     1      25.127   1.349 188.098  0.00  0.00    +0.000 HD
ENDBRANCH   4  20
TORSDOF 2
ENDMDL
MODEL 8
REMARK VINA RESULT:      -7.4      1.773      2.159
REMARK  Name = 179268_Nortopsentin.pdbqt.pdb
REMARK  2 active torsions:
REMARK  status: ('A' for Active; 'I' for Inactive)
REMARK    1  A    between atoms: C_3  and  C_9
REMARK    2  A    between atoms: C_4  and  C_20
REMARK                            x       y       z     vdW  Elec       q    Type
REMARK                         _______ _______ _______ _____ _____    ______ ____
ROOT
ATOM      1  N   UNL     1      20.382   1.339 192.436  0.00  0.00    +0.000 N 
ATOM      2  N   UNL     1      18.310   0.761 192.954  0.00  0.00    +0.000 NA
ATOM      3  C   UNL     1      20.421   0.950 193.747  0.00  0.00    +0.000 A 
ATOM      4  C   UNL     1      19.090   1.211 191.993  0.00  0.00    +0.000 A 
ATOM      5  C   UNL     1      19.125   0.596 194.047  0.00  0.00    +0.000 A 
ATOM      6  H   UNL     1      21.158   1.664 191.881  0.00  0.00    +0.000 HD
ENDROOT
BRANCH   3   9
ATOM      7 BR   UNL     1      22.954   1.066 200.545  0.00  0.00    +0.000 Br
ATOM      8  N   UNL     1      23.728   0.834 195.259  0.00  0.00    +0.000 N 
ATOM      9  C   UNL     1      21.600   0.922 194.634  0.00  0.00    +0.000 A 
ATOM     10  C   UNL     1      21.646   0.971 196.057  0.00  0.00    +0.000 A 
ATOM     11  C   UNL     1      22.995   0.914 196.420  0.00  0.00    +0.000 A 
ATOM     12  C   UNL     1      22.895   0.838 194.177  0.00  0.00    +0.000 A 
ATOM     13  C   UNL     1      20.679   1.058 197.078  0.00  0.00    +0.000 A 
ATOM     14  C   UNL     1      23.428   0.941 197.751  0.00  0.00    +0.000 A 
ATOM     15  C   UNL     1      21.088   1.085 198.412  0.00  0.00    +0.000 A 
ATOM     16  C   UNL     1      22.439   1.027 198.732  0.00  0.00    +0.000 A 
ATOM     17  H   UNL     1      24.737   0.780 195.211  0.00  0.00    +0.000 HD
ENDBRANCH   3   9
BRANCH   4  20
ATOM     18 BR   UNL     1      20.965   3.640 185.428  0.00  0.00    +0.000 Br
ATOM     19  N   UNL     1      17.308   1.781 188.858  0.00  0.00    +0.000 N 
ATOM     20  C   UNL     1      18.639   1.535 190.616  0.00  0.00    +0.000 A 
ATOM     21  C   UNL     1      19.420   2.038 189.538  0.00  0.00    +0.000 A 
ATOM     22  C   UNL     1      18.558   2.183 188.448  0.00  0.00    +0.000 A 
ATOM     23  C   UNL     1      17.346   1.387 190.168  0.00  0.00    +0.000 A 
ATOM     24  C   UNL     1      20.775   2.385 189.378  0.00  0.00    +0.000 A 
ATOM     25  C   UNL     1      18.981   2.658 187.203  0.00  0.00    +0.000 A 
ATOM     26  C   UNL     1      21.218   2.863 188.143  0.00  0.00    +0.000 A 
ATOM     27  C   UNL     1      20.331   2.993 187.083  0.00  0.00    +0.000 A 
ATOM     28  H   UNL     1      16.482   1.778 188.274  0.00  0.00    +0.000 HD
ENDBRANCH   4  20
TORSDOF 2
ENDMDL
MODEL 9
REMARK VINA RESULT:      -7.3      4.535      5.523
REMARK  Name = 179268_Nortopsentin.pdbqt.pdb
REMARK  2 active torsions:
REMARK  status: ('A' for Active; 'I' for Inactive)
REMARK    1  A    between atoms: C_3  and  C_9
REMARK    2  A    between atoms: C_4  and  C_20
REMARK                            x       y       z     vdW  Elec       q    Type
REMARK                         _______ _______ _______ _____ _____    ______ ____
ROOT
ATOM      1  N   UNL     1      22.856  -0.549 192.648  0.00  0.00    +0.000 N 
ATOM      2  N   UNL     1      22.196   1.162 193.885  0.00  0.00    +0.000 NA
ATOM      3  C   UNL     1      23.785  -0.430 193.645  0.00  0.00    +0.000 A 
ATOM      4  C   UNL     1      21.913   0.431 192.827  0.00  0.00    +0.000 A 
ATOM      5  C   UNL     1      23.356   0.637 194.401  0.00  0.00    +0.000 A 
ATOM      6  H   UNL     1      22.853  -1.231 191.906  0.00  0.00    +0.000 HD
ENDROOT
BRANCH   3   9
ATOM      7 BR   UNL     1      27.489  -4.778 198.120  0.00  0.00    +0.000 Br
ATOM      8  N   UNL     1      26.913  -2.278 193.429  0.00  0.00    +0.000 N 
ATOM      9  C   UNL     1      24.981  -1.270 193.855  0.00  0.00    +0.000 A 
ATOM     10  C   UNL     1      25.349  -2.025 195.005  0.00  0.00    +0.000 A 
ATOM     11  C   UNL     1      26.566  -2.646 194.708  0.00  0.00    +0.000 A 
ATOM     12  C   UNL     1      25.961  -1.447 192.906  0.00  0.00    +0.000 A 
ATOM     13  C   UNL     1      24.775  -2.246 196.272  0.00  0.00    +0.000 A 
ATOM     14  C   UNL     1      27.238  -3.477 195.613  0.00  0.00    +0.000 A 
ATOM     15  C   UNL     1      25.428  -3.070 197.189  0.00  0.00    +0.000 A 
ATOM     16  C   UNL     1      26.636  -3.670 196.856  0.00  0.00    +0.000 A 
ATOM     17  H   UNL     1      27.748  -2.576 192.944  0.00  0.00    +0.000 HD
ENDBRANCH   3   9
BRANCH   4  20
ATOM     18 BR   UNL     1      19.436   3.086 186.556  0.00  0.00    +0.000 Br
ATOM     19  N   UNL     1      18.643   0.574 191.210  0.00  0.00    +0.000 N 
ATOM     20  C   UNL     1      20.735   0.634 191.946  0.00  0.00    +0.000 A 
ATOM     21  C   UNL     1      20.697   1.268 190.673  0.00  0.00    +0.000 A 
ATOM     22  C   UNL     1      19.372   1.217 190.235  0.00  0.00    +0.000 A 
ATOM     23  C   UNL     1      19.459   0.218 192.249  0.00  0.00    +0.000 A 
ATOM     24  C   UNL     1      21.658   1.883 189.847  0.00  0.00    +0.000 A 
ATOM     25  C   UNL     1      18.954   1.748 189.011  0.00  0.00    +0.000 A 
ATOM     26  C   UNL     1      21.262   2.421 188.621  0.00  0.00    +0.000 A 
ATOM     27  C   UNL     1      19.934   2.349 188.220  0.00  0.00    +0.000 A 
ATOM     28  H   UNL     1      17.649   0.393 191.162  0.00  0.00    +0.000 HD
ENDBRANCH   4  20
TORSDOF 2
ENDMDL
