MODEL 1
REMARK VINA RESULT:      -6.1      0.000      0.000
REMARK  Name = 21574552_Mertensene.pdbqt.pdb
REMARK  1 active torsions:
REMARK  status: ('A' for Active; 'I' for Inactive)
REMARK    1  A    between atoms: C_4  and  C_13
REMARK                            x       y       z     vdW  Elec       q    Type
REMARK                         _______ _______ _______ _____ _____    ______ ____
ROOT
ATOM      1 BR   UNL     1      18.797   2.812 187.330  0.00  0.00    +0.000 Br
ATOM      2 CL   UNL     1      24.687   2.473 188.071  0.00  0.00    +0.000 Cl
ATOM      3 CL   UNL     1      22.841   0.653 190.281  0.00  0.00    +0.000 Cl
ATOM      4  C   UNL     1      21.358   4.335 187.560  0.00  0.00    +0.000 C 
ATOM      5  C   UNL     1      22.650   4.087 188.208  0.00  0.00    +0.000 C 
ATOM      6  C   UNL     1      23.393   3.175 189.073  0.00  0.00    +0.000 C 
ATOM      7  C   UNL     1      20.461   3.169 188.045  0.00  0.00    +0.000 C 
ATOM      8  C   UNL     1      22.381   2.101 189.496  0.00  0.00    +0.000 C 
ATOM      9  C   UNL     1      21.081   2.234 188.925  0.00  0.00    +0.000 C 
ATOM     10  C   UNL     1      20.766   5.675 188.052  0.00  0.00    +0.000 C 
ATOM     11  C   UNL     1      24.027   3.877 190.279  0.00  0.00    +0.000 C 
ENDROOT
BRANCH   4  13
ATOM     12 CL   UNL     1      21.766   4.223 183.157  0.00  0.00    +0.000 Cl
ATOM     13  C   UNL     1      21.499   4.292 186.096  0.00  0.00    +0.000 C 
ATOM     14  C   UNL     1      21.611   4.260 184.901  0.00  0.00    +0.000 C 
ENDBRANCH   4  13
TORSDOF 1
ENDMDL
MODEL 2
REMARK VINA RESULT:      -5.8      2.713      5.210
REMARK  Name = 21574552_Mertensene.pdbqt.pdb
REMARK  1 active torsions:
REMARK  status: ('A' for Active; 'I' for Inactive)
REMARK    1  A    between atoms: C_4  and  C_13
REMARK                            x       y       z     vdW  Elec       q    Type
REMARK                         _______ _______ _______ _____ _____    ______ ____
ROOT
ATOM      1 BR   UNL     1      21.231   3.261 192.583  0.00  0.00    +0.000 Br
ATOM      2 CL   UNL     1      22.675   2.326 186.892  0.00  0.00    +0.000 Cl
ATOM      3 CL   UNL     1      21.582   5.470 187.612  0.00  0.00    +0.000 Cl
ATOM      4  C   UNL     1      20.921   1.473 190.209  0.00  0.00    +0.000 C 
ATOM      5  C   UNL     1      20.983   1.668 188.756  0.00  0.00    +0.000 C 
ATOM      6  C   UNL     1      21.120   2.659 187.692  0.00  0.00    +0.000 C 
ATOM      7  C   UNL     1      20.993   2.908 190.787  0.00  0.00    +0.000 C 
ATOM      8  C   UNL     1      21.148   4.018 188.405  0.00  0.00    +0.000 C 
ATOM      9  C   UNL     1      21.095   3.959 189.828  0.00  0.00    +0.000 C 
ATOM     10  C   UNL     1      19.570   0.832 190.600  0.00  0.00    +0.000 C 
ATOM     11  C   UNL     1      19.999   2.576 186.651  0.00  0.00    +0.000 C 
ENDROOT
BRANCH   4  13
ATOM     12 CL   UNL     1      24.374  -0.900 191.624  0.00  0.00    +0.000 Cl
ATOM     13  C   UNL     1      22.069   0.679 190.673  0.00  0.00    +0.000 C 
ATOM     14  C   UNL     1      23.007   0.034 191.056  0.00  0.00    +0.000 C 
ENDBRANCH   4  13
TORSDOF 1
ENDMDL
MODEL 3
REMARK VINA RESULT:      -5.8      3.036      5.573
REMARK  Name = 21574552_Mertensene.pdbqt.pdb
REMARK  1 active torsions:
REMARK  status: ('A' for Active; 'I' for Inactive)
REMARK    1  A    between atoms: C_4  and  C_13
REMARK                            x       y       z     vdW  Elec       q    Type
REMARK                         _______ _______ _______ _____ _____    ______ ____
ROOT
ATOM      1 BR   UNL     1      23.591   0.542 189.631  0.00  0.00    +0.000 Br
ATOM      2 CL   UNL     1      18.147   2.585 188.386  0.00  0.00    +0.000 Cl
ATOM      3 CL   UNL     1      20.443   2.969 185.900  0.00  0.00    +0.000 Cl
ATOM      4  C   UNL     1      21.290   2.199 190.574  0.00  0.00    +0.000 C 
ATOM      5  C   UNL     1      20.224   2.958 189.909  0.00  0.00    +0.000 C 
ATOM      6  C   UNL     1      19.710   3.407 188.618  0.00  0.00    +0.000 C 
ATOM      7  C   UNL     1      22.222   1.762 189.417  0.00  0.00    +0.000 C 
ATOM      8  C   UNL     1      20.740   2.934 187.584  0.00  0.00    +0.000 C 
ATOM      9  C   UNL     1      21.828   2.179 188.111  0.00  0.00    +0.000 C 
ATOM     10  C   UNL     1      22.071   3.118 191.541  0.00  0.00    +0.000 C 
ATOM     11  C   UNL     1      19.486   4.922 188.559  0.00  0.00    +0.000 C 
ENDROOT
BRANCH   4  13
ATOM     12 CL   UNL     1      19.643  -1.361 192.618  0.00  0.00    +0.000 Cl
ATOM     13  C   UNL     1      20.735   1.018 191.254  0.00  0.00    +0.000 C 
ATOM     14  C   UNL     1      20.286   0.053 191.809  0.00  0.00    +0.000 C 
ENDBRANCH   4  13
TORSDOF 1
ENDMDL
MODEL 4
REMARK VINA RESULT:      -5.5      2.791      4.615
REMARK  Name = 21574552_Mertensene.pdbqt.pdb
REMARK  1 active torsions:
REMARK  status: ('A' for Active; 'I' for Inactive)
REMARK    1  A    between atoms: C_4  and  C_13
REMARK                            x       y       z     vdW  Elec       q    Type
REMARK                         _______ _______ _______ _____ _____    ______ ____
ROOT
ATOM      1 BR   UNL     1      22.553   2.036 191.437  0.00  0.00    +0.000 Br
ATOM      2 CL   UNL     1      22.175   5.494 186.615  0.00  0.00    +0.000 Cl
ATOM      3 CL   UNL     1      19.448   5.548 188.655  0.00  0.00    +0.000 Cl
ATOM      4  C   UNL     1      22.904   2.204 188.474  0.00  0.00    +0.000 C 
ATOM      5  C   UNL     1      22.308   3.020 187.410  0.00  0.00    +0.000 C 
ATOM      6  C   UNL     1      21.295   4.027 187.107  0.00  0.00    +0.000 C 
ATOM      7  C   UNL     1      22.074   2.560 189.733  0.00  0.00    +0.000 C 
ATOM      8  C   UNL     1      20.540   4.253 188.424  0.00  0.00    +0.000 C 
ATOM      9  C   UNL     1      21.031   3.514 189.540  0.00  0.00    +0.000 C 
ATOM     10  C   UNL     1      22.729   0.703 188.153  0.00  0.00    +0.000 C 
ATOM     11  C   UNL     1      20.357   3.607 185.970  0.00  0.00    +0.000 C 
ENDROOT
BRANCH   4  13
ATOM     12 CL   UNL     1      27.141   3.323 189.072  0.00  0.00    +0.000 Cl
ATOM     13  C   UNL     1      24.315   2.570 188.676  0.00  0.00    +0.000 C 
ATOM     14  C   UNL     1      25.465   2.871 188.839  0.00  0.00    +0.000 C 
ENDBRANCH   4  13
TORSDOF 1
ENDMDL
MODEL 5
REMARK VINA RESULT:      -5.2     33.645     34.366
REMARK  Name = 21574552_Mertensene.pdbqt.pdb
REMARK  1 active torsions:
REMARK  status: ('A' for Active; 'I' for Inactive)
REMARK    1  A    between atoms: C_4  and  C_13
REMARK                            x       y       z     vdW  Elec       q    Type
REMARK                         _______ _______ _______ _____ _____    ______ ____
ROOT
ATOM      1 BR   UNL     1      40.873 -19.304 170.950  0.00  0.00    +0.000 Br
ATOM      2 CL   UNL     1      41.208 -23.676 174.966  0.00  0.00    +0.000 Cl
ATOM      3 CL   UNL     1      38.316 -23.577 173.168  0.00  0.00    +0.000 Cl
ATOM      4  C   UNL     1      41.508 -20.027 173.780  0.00  0.00    +0.000 C 
ATOM      5  C   UNL     1      41.077 -21.092 174.693  0.00  0.00    +0.000 C 
ATOM      6  C   UNL     1      40.176 -22.229 174.856  0.00  0.00    +0.000 C 
ATOM      7  C   UNL     1      40.595 -20.200 172.540  0.00  0.00    +0.000 C 
ATOM      8  C   UNL     1      39.323 -22.257 173.580  0.00  0.00    +0.000 C 
ATOM      9  C   UNL     1      39.651 -21.267 172.608  0.00  0.00    +0.000 C 
ATOM     10  C   UNL     1      41.248 -18.644 174.417  0.00  0.00    +0.000 C 
ATOM     11  C   UNL     1      39.318 -22.136 176.122  0.00  0.00    +0.000 C 
ENDROOT
BRANCH   4  13
ATOM     12 CL   UNL     1      45.752 -20.560 172.656  0.00  0.00    +0.000 Cl
ATOM     13  C   UNL     1      42.918 -20.211 173.402  0.00  0.00    +0.000 C 
ATOM     14  C   UNL     1      44.069 -20.357 173.096  0.00  0.00    +0.000 C 
ENDBRANCH   4  13
TORSDOF 1
ENDMDL
MODEL 6
REMARK VINA RESULT:      -5.1      2.894      5.148
REMARK  Name = 21574552_Mertensene.pdbqt.pdb
REMARK  1 active torsions:
REMARK  status: ('A' for Active; 'I' for Inactive)
REMARK    1  A    between atoms: C_4  and  C_13
REMARK                            x       y       z     vdW  Elec       q    Type
REMARK                         _______ _______ _______ _____ _____    ______ ____
ROOT
ATOM      1 BR   UNL     1      23.391   0.198 189.183  0.00  0.00    +0.000 Br
ATOM      2 CL   UNL     1      22.330   5.969 188.219  0.00  0.00    +0.000 Cl
ATOM      3 CL   UNL     1      22.709   4.076 185.413  0.00  0.00    +0.000 Cl
ATOM      4  C   UNL     1      24.138   3.007 189.882  0.00  0.00    +0.000 C 
ATOM      5  C   UNL     1      24.073   4.295 189.183  0.00  0.00    +0.000 C 
ATOM      6  C   UNL     1      23.757   4.948 187.916  0.00  0.00    +0.000 C 
ATOM      7  C   UNL     1      23.746   1.969 188.800  0.00  0.00    +0.000 C 
ATOM      8  C   UNL     1      23.422   3.808 186.944  0.00  0.00    +0.000 C 
ATOM      9  C   UNL     1      23.448   2.500 187.511  0.00  0.00    +0.000 C 
ATOM     10  C   UNL     1      25.583   2.731 190.355  0.00  0.00    +0.000 C 
ATOM     11  C   UNL     1      24.897   5.831 187.398  0.00  0.00    +0.000 C 
ENDROOT
BRANCH   4  13
ATOM     12 CL   UNL     1      21.228   2.885 193.211  0.00  0.00    +0.000 Cl
ATOM     13  C   UNL     1      23.172   2.973 190.992  0.00  0.00    +0.000 C 
ATOM     14  C   UNL     1      22.384   2.941 191.896  0.00  0.00    +0.000 C 
ENDBRANCH   4  13
TORSDOF 1
ENDMDL
MODEL 7
REMARK VINA RESULT:      -5.1     30.396     31.595
REMARK  Name = 21574552_Mertensene.pdbqt.pdb
REMARK  1 active torsions:
REMARK  status: ('A' for Active; 'I' for Inactive)
REMARK    1  A    between atoms: C_4  and  C_13
REMARK                            x       y       z     vdW  Elec       q    Type
REMARK                         _______ _______ _______ _____ _____    ______ ____
ROOT
ATOM      1 BR   UNL     1      41.219  -8.662 163.167  0.00  0.00    +0.000 Br
ATOM      2 CL   UNL     1      43.574  -4.441 166.629  0.00  0.00    +0.000 Cl
ATOM      3 CL   UNL     1      45.039  -7.505 166.880  0.00  0.00    +0.000 Cl
ATOM      4  C   UNL     1      40.673  -6.480 165.135  0.00  0.00    +0.000 C 
ATOM      5  C   UNL     1      41.433  -5.864 166.228  0.00  0.00    +0.000 C 
ATOM      6  C   UNL     1      42.669  -5.928 167.003  0.00  0.00    +0.000 C 
ATOM      7  C   UNL     1      41.548  -7.681 164.696  0.00  0.00    +0.000 C 
ATOM      8  C   UNL     1      43.410  -7.168 166.485  0.00  0.00    +0.000 C 
ATOM      9  C   UNL     1      42.768  -7.855 165.413  0.00  0.00    +0.000 C 
ATOM     10  C   UNL     1      39.316  -7.002 165.660  0.00  0.00    +0.000 C 
ATOM     11  C   UNL     1      42.424  -5.991 168.514  0.00  0.00    +0.000 C 
ENDROOT
BRANCH   4  13
ATOM     12 CL   UNL     1      40.182  -3.620 161.798  0.00  0.00    +0.000 Cl
ATOM     13  C   UNL     1      40.512  -5.534 164.020  0.00  0.00    +0.000 C 
ATOM     14  C   UNL     1      40.380  -4.759 163.113  0.00  0.00    +0.000 C 
ENDBRANCH   4  13
TORSDOF 1
ENDMDL
MODEL 8
REMARK VINA RESULT:      -4.9     29.486     31.077
REMARK  Name = 21574552_Mertensene.pdbqt.pdb
REMARK  1 active torsions:
REMARK  status: ('A' for Active; 'I' for Inactive)
REMARK    1  A    between atoms: C_4  and  C_13
REMARK                            x       y       z     vdW  Elec       q    Type
REMARK                         _______ _______ _______ _____ _____    ______ ____
ROOT
ATOM      1 BR   UNL     1      40.154  -4.914 162.871  0.00  0.00    +0.000 Br
ATOM      2 CL   UNL     1      42.178  -5.719 168.405  0.00  0.00    +0.000 Cl
ATOM      3 CL   UNL     1      44.116  -3.735 166.427  0.00  0.00    +0.000 Cl
ATOM      4  C   UNL     1      40.770  -6.896 165.022  0.00  0.00    +0.000 C 
ATOM      5  C   UNL     1      41.704  -6.933 166.153  0.00  0.00    +0.000 C 
ATOM      6  C   UNL     1      42.799  -6.232 166.817  0.00  0.00    +0.000 C 
ATOM      7  C   UNL     1      41.170  -5.618 164.243  0.00  0.00    +0.000 C 
ATOM      8  C   UNL     1      43.104  -5.020 165.926  0.00  0.00    +0.000 C 
ATOM      9  C   UNL     1      42.256  -4.872 164.790  0.00  0.00    +0.000 C 
ATOM     10  C   UNL     1      40.980  -8.132 164.118  0.00  0.00    +0.000 C 
ATOM     11  C   UNL     1      44.032  -7.117 167.030  0.00  0.00    +0.000 C 
ENDROOT
BRANCH   4  13
ATOM     12 CL   UNL     1      36.596  -6.553 166.445  0.00  0.00    +0.000 Cl
ATOM     13  C   UNL     1      39.383  -6.786 165.501  0.00  0.00    +0.000 C 
ATOM     14  C   UNL     1      38.251  -6.694 165.889  0.00  0.00    +0.000 C 
ENDBRANCH   4  13
TORSDOF 1
ENDMDL
MODEL 9
REMARK VINA RESULT:      -4.7     19.026     20.819
REMARK  Name = 21574552_Mertensene.pdbqt.pdb
REMARK  1 active torsions:
REMARK  status: ('A' for Active; 'I' for Inactive)
REMARK    1  A    between atoms: C_4  and  C_13
REMARK                            x       y       z     vdW  Elec       q    Type
REMARK                         _______ _______ _______ _____ _____    ______ ____
ROOT
ATOM      1 BR   UNL     1      23.470   8.450 171.062  0.00  0.00    +0.000 Br
ATOM      2 CL   UNL     1      25.276  11.702 166.423  0.00  0.00    +0.000 Cl
ATOM      3 CL   UNL     1      23.859   8.708 165.631  0.00  0.00    +0.000 Cl
ATOM      4  C   UNL     1      25.698  10.046 169.871  0.00  0.00    +0.000 C 
ATOM      5  C   UNL     1      26.110  10.381 168.504  0.00  0.00    +0.000 C 
ATOM      6  C   UNL     1      25.839  10.149 167.088  0.00  0.00    +0.000 C 
ATOM      7  C   UNL     1      24.556   9.017 169.682  0.00  0.00    +0.000 C 
ATOM      8  C   UNL     1      24.721   9.098 167.055  0.00  0.00    +0.000 C 
ATOM      9  C   UNL     1      24.232   8.693 168.331  0.00  0.00    +0.000 C 
ATOM     10  C   UNL     1      26.867   9.379 170.630  0.00  0.00    +0.000 C 
ATOM     11  C   UNL     1      27.079   9.698 166.308  0.00  0.00    +0.000 C 
ENDROOT
BRANCH   4  13
ATOM     12 CL   UNL     1      24.165  13.629 171.963  0.00  0.00    +0.000 Cl
ATOM     13  C   UNL     1      25.195  11.242 170.566  0.00  0.00    +0.000 C 
ATOM     14  C   UNL     1      24.780  12.215 171.133  0.00  0.00    +0.000 C 
ENDBRANCH   4  13
TORSDOF 1
ENDMDL
