MODEL 1
REMARK VINA RESULT:      -9.4      0.000      0.000
REMARK  Name = 222284_BetaSitosterol.pdbqt.pdb
REMARK  5 active torsions:
REMARK  status: ('A' for Active; 'I' for Inactive)
REMARK    1  A    between atoms: C_5  and  C_22
REMARK    2  A    between atoms: C_19  and  O_20
REMARK    3  A    between atoms: C_22  and  C_24
REMARK    4  A    between atoms: C_25  and  C_26
REMARK    5  A    between atoms: C_26  and  C_30
REMARK                            x       y       z     vdW  Elec       q    Type
REMARK                         _______ _______ _______ _____ _____    ______ ____
ROOT
ATOM      1  C   UNL     1      20.177   0.985 192.217  0.00  0.00    +0.000 C 
ATOM      2  C   UNL     1      19.153   1.032 190.972  0.00  0.00    +0.000 C 
ATOM      3  C   UNL     1      19.347   1.951 189.832  0.00  0.00    +0.000 C 
ATOM      4  C   UNL     1      20.605   2.724 189.522  0.00  0.00    +0.000 C 
ATOM      5  C   UNL     1      20.347  -0.502 192.487  0.00  0.00    +0.000 C 
ATOM      6  C   UNL     1      21.395   1.639 191.733  0.00  0.00    +0.000 C 
ATOM      7  C   UNL     1      20.728   3.737 188.352  0.00  0.00    +0.000 C 
ATOM      8  C   UNL     1      18.713  -0.309 190.739  0.00  0.00    +0.000 C 
ATOM      9  C   UNL     1      21.612   2.473 190.494  0.00  0.00    +0.000 C 
ATOM     10  C   UNL     1      19.476  -1.244 191.638  0.00  0.00    +0.000 C 
ATOM     11  C   UNL     1      18.362   2.083 188.823  0.00  0.00    +0.000 C 
ATOM     12  C   UNL     1      19.513   1.708 193.417  0.00  0.00    +0.000 C 
ATOM     13  C   UNL     1      19.546   3.588 187.207  0.00  0.00    +0.000 C 
ATOM     14  C   UNL     1      21.992   3.501 187.595  0.00  0.00    +0.000 C 
ATOM     15  C   UNL     1      18.512   2.890 187.568  0.00  0.00    +0.000 C 
ATOM     16  C   UNL     1      20.636   5.183 188.921  0.00  0.00    +0.000 C 
ATOM     17  C   UNL     1      20.014   3.439 185.849  0.00  0.00    +0.000 C 
ATOM     18  C   UNL     1      22.330   3.288 186.109  0.00  0.00    +0.000 C 
ATOM     19  C   UNL     1      21.261   3.281 185.165  0.00  0.00    +0.000 C 
ENDROOT
BRANCH  19  20
ATOM     20  O   UNL     1      21.444   3.708 183.883  0.00  0.00    +0.000 OA
ATOM     21  H   UNL     1      20.600   3.771 183.404  0.00  0.00    +0.000 HD
ENDBRANCH  19  20
BRANCH   5  22
ATOM     22  C   UNL     1      21.283  -1.063 193.410  0.00  0.00    +0.000 C 
ATOM     23  C   UNL     1      20.854  -1.711 194.703  0.00  0.00    +0.000 C 
BRANCH  22  24
ATOM     24  C   UNL     1      22.682  -1.066 193.162  0.00  0.00    +0.000 C 
ATOM     25  C   UNL     1      24.191  -1.050 192.874  0.00  0.00    +0.000 C 
BRANCH  25  26
ATOM     26  C   UNL     1      25.590  -1.034 192.587  0.00  0.00    +0.000 C 
ATOM     27  C   UNL     1      26.127  -0.129 191.594  0.00  0.00    +0.000 C 
ATOM     28  C   UNL     1      25.256   0.849 190.828  0.00  0.00    +0.000 C 
ATOM     29  C   UNL     1      27.588  -0.088 191.203  0.00  0.00    +0.000 C 
BRANCH  26  30
ATOM     30  C   UNL     1      26.466  -1.906 193.285  0.00  0.00    +0.000 C 
ATOM     31  C   UNL     1      27.397  -2.824 194.085  0.00  0.00    +0.000 C 
ENDBRANCH  26  30
ENDBRANCH  25  26
ENDBRANCH  22  24
ENDBRANCH   5  22
TORSDOF 5
ENDMDL
MODEL 2
REMARK VINA RESULT:      -9.1      3.397      5.482
REMARK  Name = 222284_BetaSitosterol.pdbqt.pdb
REMARK  5 active torsions:
REMARK  status: ('A' for Active; 'I' for Inactive)
REMARK    1  A    between atoms: C_5  and  C_22
REMARK    2  A    between atoms: C_19  and  O_20
REMARK    3  A    between atoms: C_22  and  C_24
REMARK    4  A    between atoms: C_25  and  C_26
REMARK    5  A    between atoms: C_26  and  C_30
REMARK                            x       y       z     vdW  Elec       q    Type
REMARK                         _______ _______ _______ _____ _____    ______ ____
ROOT
ATOM      1  C   UNL     1      24.335   3.084 190.696  0.00  0.00    +0.000 C 
ATOM      2  C   UNL     1      23.357   2.150 189.818  0.00  0.00    +0.000 C 
ATOM      3  C   UNL     1      22.538   2.692 188.714  0.00  0.00    +0.000 C 
ATOM      4  C   UNL     1      22.699   4.049 188.078  0.00  0.00    +0.000 C 
ATOM      5  C   UNL     1      25.599   2.250 190.837  0.00  0.00    +0.000 C 
ATOM      6  C   UNL     1      24.516   4.300 189.901  0.00  0.00    +0.000 C 
ATOM      7  C   UNL     1      21.758   4.599 186.971  0.00  0.00    +0.000 C 
ATOM      8  C   UNL     1      24.009   0.885 189.667  0.00  0.00    +0.000 C 
ATOM      9  C   UNL     1      23.751   4.782 188.692  0.00  0.00    +0.000 C 
ATOM     10  C   UNL     1      25.392   0.967 190.255  0.00  0.00    +0.000 C 
ATOM     11  C   UNL     1      21.579   1.887 188.053  0.00  0.00    +0.000 C 
ATOM     12  C   UNL     1      23.662   3.331 192.071  0.00  0.00    +0.000 C 
ATOM     13  C   UNL     1      20.847   3.438 186.227  0.00  0.00    +0.000 C 
ATOM     14  C   UNL     1      22.558   5.193 185.861  0.00  0.00    +0.000 C 
ATOM     15  C   UNL     1      20.787   2.300 186.848  0.00  0.00    +0.000 C 
ATOM     16  C   UNL     1      20.770   5.620 187.605  0.00  0.00    +0.000 C 
ATOM     17  C   UNL     1      20.937   3.411 184.785  0.00  0.00    +0.000 C 
ATOM     18  C   UNL     1      22.583   5.005 184.334  0.00  0.00    +0.000 C 
ATOM     19  C   UNL     1      21.687   4.060 183.753  0.00  0.00    +0.000 C 
ENDROOT
BRANCH  19  20
ATOM     20  O   UNL     1      21.189   4.233 182.495  0.00  0.00    +0.000 OA
ATOM     21  H   UNL     1      20.376   4.766 182.504  0.00  0.00    +0.000 HD
ENDBRANCH  19  20
BRANCH   5  22
ATOM     22  C   UNL     1      26.823   2.713 191.412  0.00  0.00    +0.000 C 
ATOM     23  C   UNL     1      27.008   2.873 192.900  0.00  0.00    +0.000 C 
BRANCH  22  24
ATOM     24  C   UNL     1      27.958   3.036 190.620  0.00  0.00    +0.000 C 
ATOM     25  C   UNL     1      29.175   3.367 189.743  0.00  0.00    +0.000 C 
BRANCH  25  26
ATOM     26  C   UNL     1      30.308   3.656 188.923  0.00  0.00    +0.000 C 
ATOM     27  C   UNL     1      31.521   2.876 189.042  0.00  0.00    +0.000 C 
ATOM     28  C   UNL     1      31.651   1.717 190.013  0.00  0.00    +0.000 C 
ATOM     29  C   UNL     1      32.775   3.153 188.242  0.00  0.00    +0.000 C 
BRANCH  26  30
ATOM     30  C   UNL     1      30.246   4.711 187.975  0.00  0.00    +0.000 C 
ATOM     31  C   UNL     1      30.131   5.832 186.935  0.00  0.00    +0.000 C 
ENDBRANCH  26  30
ENDBRANCH  25  26
ENDBRANCH  22  24
ENDBRANCH   5  22
TORSDOF 5
ENDMDL
MODEL 3
REMARK VINA RESULT:      -9.1      2.493      4.627
REMARK  Name = 222284_BetaSitosterol.pdbqt.pdb
REMARK  5 active torsions:
REMARK  status: ('A' for Active; 'I' for Inactive)
REMARK    1  A    between atoms: C_5  and  C_22
REMARK    2  A    between atoms: C_19  and  O_20
REMARK    3  A    between atoms: C_22  and  C_24
REMARK    4  A    between atoms: C_25  and  C_26
REMARK    5  A    between atoms: C_26  and  C_30
REMARK                            x       y       z     vdW  Elec       q    Type
REMARK                         _______ _______ _______ _____ _____    ______ ____
ROOT
ATOM      1  C   UNL     1      19.747   1.455 192.237  0.00  0.00    +0.000 C 
ATOM      2  C   UNL     1      18.949   1.225 190.855  0.00  0.00    +0.000 C 
ATOM      3  C   UNL     1      19.144   2.101 189.682  0.00  0.00    +0.000 C 
ATOM      4  C   UNL     1      20.262   3.096 189.496  0.00  0.00    +0.000 C 
ATOM      5  C   UNL     1      20.154   0.051 192.656  0.00  0.00    +0.000 C 
ATOM      6  C   UNL     1      20.877   2.317 191.885  0.00  0.00    +0.000 C 
ATOM      7  C   UNL     1      20.375   4.048 188.275  0.00  0.00    +0.000 C 
ATOM      8  C   UNL     1      18.820  -0.189 190.675  0.00  0.00    +0.000 C 
ATOM      9  C   UNL     1      21.127   3.109 190.625  0.00  0.00    +0.000 C 
ATOM     10  C   UNL     1      19.593  -0.898 191.754  0.00  0.00    +0.000 C 
ATOM     11  C   UNL     1      18.329   1.974 188.530  0.00  0.00    +0.000 C 
ATOM     12  C   UNL     1      18.770   2.091 193.259  0.00  0.00    +0.000 C 
ATOM     13  C   UNL     1      19.445   3.599 186.985  0.00  0.00    +0.000 C 
ATOM     14  C   UNL     1      21.767   4.035 187.736  0.00  0.00    +0.000 C 
ATOM     15  C   UNL     1      18.521   2.725 187.247  0.00  0.00    +0.000 C 
ATOM     16  C   UNL     1      19.915   5.473 188.698  0.00  0.00    +0.000 C 
ATOM     17  C   UNL     1      20.148   3.475 185.729  0.00  0.00    +0.000 C 
ATOM     18  C   UNL     1      22.376   3.814 186.341  0.00  0.00    +0.000 C 
ATOM     19  C   UNL     1      21.496   3.538 185.253  0.00  0.00    +0.000 C 
ENDROOT
BRANCH  19  20
ATOM     20  O   UNL     1      21.798   3.923 183.980  0.00  0.00    +0.000 OA
ATOM     21  H   UNL     1      22.705   4.269 183.918  0.00  0.00    +0.000 HD
ENDBRANCH  19  20
BRANCH   5  22
ATOM     22  C   UNL     1      21.019  -0.256 193.752  0.00  0.00    +0.000 C 
ATOM     23  C   UNL     1      22.357  -0.924 193.563  0.00  0.00    +0.000 C 
BRANCH  22  24
ATOM     24  C   UNL     1      20.683   0.066 195.095  0.00  0.00    +0.000 C 
ATOM     25  C   UNL     1      20.304   0.437 196.536  0.00  0.00    +0.000 C 
BRANCH  25  26
ATOM     26  C   UNL     1      19.955   0.800 197.873  0.00  0.00    +0.000 C 
ATOM     27  C   UNL     1      18.638   0.509 198.395  0.00  0.00    +0.000 C 
ATOM     28  C   UNL     1      17.578  -0.203 197.575  0.00  0.00    +0.000 C 
ATOM     29  C   UNL     1      18.182   0.904 199.782  0.00  0.00    +0.000 C 
BRANCH  26  30
ATOM     30  C   UNL     1      20.909   1.447 198.703  0.00  0.00    +0.000 C 
ATOM     31  C   UNL     1      21.898   2.162 199.631  0.00  0.00    +0.000 C 
ENDBRANCH  26  30
ENDBRANCH  25  26
ENDBRANCH  22  24
ENDBRANCH   5  22
TORSDOF 5
ENDMDL
MODEL 4
REMARK VINA RESULT:      -8.8      1.443      2.454
REMARK  Name = 222284_BetaSitosterol.pdbqt.pdb
REMARK  5 active torsions:
REMARK  status: ('A' for Active; 'I' for Inactive)
REMARK    1  A    between atoms: C_5  and  C_22
REMARK    2  A    between atoms: C_19  and  O_20
REMARK    3  A    between atoms: C_22  and  C_24
REMARK    4  A    between atoms: C_25  and  C_26
REMARK    5  A    between atoms: C_26  and  C_30
REMARK                            x       y       z     vdW  Elec       q    Type
REMARK                         _______ _______ _______ _____ _____    ______ ____
ROOT
ATOM      1  C   UNL     1      21.703   2.180 192.164  0.00  0.00    +0.000 C 
ATOM      2  C   UNL     1      20.603   1.756 191.064  0.00  0.00    +0.000 C 
ATOM      3  C   UNL     1      20.421   2.510 189.807  0.00  0.00    +0.000 C 
ATOM      4  C   UNL     1      21.370   3.541 189.248  0.00  0.00    +0.000 C 
ATOM      5  C   UNL     1      22.317   0.854 192.587  0.00  0.00    +0.000 C 
ATOM      6  C   UNL     1      22.632   3.060 191.454  0.00  0.00    +0.000 C 
ATOM      7  C   UNL     1      21.091   4.360 187.959  0.00  0.00    +0.000 C 
ATOM      8  C   UNL     1      20.549   0.327 191.052  0.00  0.00    +0.000 C 
ATOM      9  C   UNL     1      22.489   3.725 190.106  0.00  0.00    +0.000 C 
ATOM     10  C   UNL     1      21.625  -0.217 191.952  0.00  0.00    +0.000 C 
ATOM     11  C   UNL     1      19.355   2.214 188.923  0.00  0.00    +0.000 C 
ATOM     12  C   UNL     1      20.968   2.866 193.344  0.00  0.00    +0.000 C 
ATOM     13  C   UNL     1      19.906   3.723 187.001  0.00  0.00    +0.000 C 
ATOM     14  C   UNL     1      22.298   4.367 187.080  0.00  0.00    +0.000 C 
ATOM     15  C   UNL     1      19.153   2.832 187.572  0.00  0.00    +0.000 C 
ATOM     16  C   UNL     1      20.638   5.795 188.357  0.00  0.00    +0.000 C 
ATOM     17  C   UNL     1      20.275   3.504 185.622  0.00  0.00    +0.000 C 
ATOM     18  C   UNL     1      22.550   4.032 185.600  0.00  0.00    +0.000 C 
ATOM     19  C   UNL     1      21.449   3.590 184.808  0.00  0.00    +0.000 C 
ENDROOT
BRANCH  19  20
ATOM     20  O   UNL     1      21.386   3.852 183.471  0.00  0.00    +0.000 OA
ATOM     21  H   UNL     1      20.595   4.371 183.246  0.00  0.00    +0.000 HD
ENDBRANCH  19  20
BRANCH   5  22
ATOM     22  C   UNL     1      23.453   0.716 193.444  0.00  0.00    +0.000 C 
ATOM     23  C   UNL     1      23.326   0.597 194.941  0.00  0.00    +0.000 C 
BRANCH  22  24
ATOM     24  C   UNL     1      24.780   0.662 192.938  0.00  0.00    +0.000 C 
ATOM     25  C   UNL     1      26.225   0.612 192.418  0.00  0.00    +0.000 C 
BRANCH  25  26
ATOM     26  C   UNL     1      27.571   0.582 191.944  0.00  0.00    +0.000 C 
ATOM     27  C   UNL     1      28.505  -0.404 192.442  0.00  0.00    +0.000 C 
ATOM     28  C   UNL     1      28.111  -1.455 193.464  0.00  0.00    +0.000 C 
ATOM     29  C   UNL     1      29.957  -0.469 192.022  0.00  0.00    +0.000 C 
BRANCH  26  30
ATOM     30  C   UNL     1      28.000   1.520 190.968  0.00  0.00    +0.000 C 
ATOM     31  C   UNL     1      28.445   2.574 189.947  0.00  0.00    +0.000 C 
ENDBRANCH  26  30
ENDBRANCH  25  26
ENDBRANCH  22  24
ENDBRANCH   5  22
TORSDOF 5
ENDMDL
MODEL 5
REMARK VINA RESULT:      -8.7      1.892      2.406
REMARK  Name = 222284_BetaSitosterol.pdbqt.pdb
REMARK  5 active torsions:
REMARK  status: ('A' for Active; 'I' for Inactive)
REMARK    1  A    between atoms: C_5  and  C_22
REMARK    2  A    between atoms: C_19  and  O_20
REMARK    3  A    between atoms: C_22  and  C_24
REMARK    4  A    between atoms: C_25  and  C_26
REMARK    5  A    between atoms: C_26  and  C_30
REMARK                            x       y       z     vdW  Elec       q    Type
REMARK                         _______ _______ _______ _____ _____    ______ ____
ROOT
ATOM      1  C   UNL     1      21.710   2.215 192.149  0.00  0.00    +0.000 C 
ATOM      2  C   UNL     1      20.659   1.717 191.032  0.00  0.00    +0.000 C 
ATOM      3  C   UNL     1      20.439   2.463 189.776  0.00  0.00    +0.000 C 
ATOM      4  C   UNL     1      21.316   3.564 189.235  0.00  0.00    +0.000 C 
ATOM      5  C   UNL     1      22.415   0.936 192.574  0.00  0.00    +0.000 C 
ATOM      6  C   UNL     1      22.581   3.165 191.456  0.00  0.00    +0.000 C 
ATOM      7  C   UNL     1      20.994   4.367 187.946  0.00  0.00    +0.000 C 
ATOM      8  C   UNL     1      20.711   0.288 191.013  0.00  0.00    +0.000 C 
ATOM      9  C   UNL     1      22.406   3.825 190.109  0.00  0.00    +0.000 C 
ATOM     10  C   UNL     1      21.813  -0.180 191.925  0.00  0.00    +0.000 C 
ATOM     11  C   UNL     1      19.409   2.093 188.877  0.00  0.00    +0.000 C 
ATOM     12  C   UNL     1      20.910   2.839 193.322  0.00  0.00    +0.000 C 
ATOM     13  C   UNL     1      19.872   3.649 186.969  0.00  0.00    +0.000 C 
ATOM     14  C   UNL     1      22.208   4.468 187.083  0.00  0.00    +0.000 C 
ATOM     15  C   UNL     1      19.180   2.702 187.526  0.00  0.00    +0.000 C 
ATOM     16  C   UNL     1      20.431   5.762 188.344  0.00  0.00    +0.000 C 
ATOM     17  C   UNL     1      20.275   3.466 185.594  0.00  0.00    +0.000 C 
ATOM     18  C   UNL     1      22.504   4.161 185.605  0.00  0.00    +0.000 C 
ATOM     19  C   UNL     1      21.450   3.643 184.797  0.00  0.00    +0.000 C 
ENDROOT
BRANCH  19  20
ATOM     20  O   UNL     1      21.385   3.908 183.460  0.00  0.00    +0.000 OA
ATOM     21  H   UNL     1      20.561   4.367 183.227  0.00  0.00    +0.000 HD
ENDBRANCH  19  20
BRANCH   5  22
ATOM     22  C   UNL     1      23.547   0.877 193.446  0.00  0.00    +0.000 C 
ATOM     23  C   UNL     1      23.446   0.394 194.870  0.00  0.00    +0.000 C 
BRANCH  22  24
ATOM     24  C   UNL     1      24.850   1.253 193.021  0.00  0.00    +0.000 C 
ATOM     25  C   UNL     1      26.264   1.666 192.588  0.00  0.00    +0.000 C 
BRANCH  25  26
ATOM     26  C   UNL     1      27.579   2.064 192.198  0.00  0.00    +0.000 C 
ATOM     27  C   UNL     1      27.790   2.810 190.977  0.00  0.00    +0.000 C 
ATOM     28  C   UNL     1      26.647   3.221 190.067  0.00  0.00    +0.000 C 
ATOM     29  C   UNL     1      29.155   3.226 190.475  0.00  0.00    +0.000 C 
BRANCH  26  30
ATOM     30  C   UNL     1      28.692   1.735 193.017  0.00  0.00    +0.000 C 
ATOM     31  C   UNL     1      29.877   1.327 193.899  0.00  0.00    +0.000 C 
ENDBRANCH  26  30
ENDBRANCH  25  26
ENDBRANCH  22  24
ENDBRANCH   5  22
TORSDOF 5
ENDMDL
MODEL 6
REMARK VINA RESULT:      -8.7      2.545      4.942
REMARK  Name = 222284_BetaSitosterol.pdbqt.pdb
REMARK  5 active torsions:
REMARK  status: ('A' for Active; 'I' for Inactive)
REMARK    1  A    between atoms: C_5  and  C_22
REMARK    2  A    between atoms: C_19  and  O_20
REMARK    3  A    between atoms: C_22  and  C_24
REMARK    4  A    between atoms: C_25  and  C_26
REMARK    5  A    between atoms: C_26  and  C_30
REMARK                            x       y       z     vdW  Elec       q    Type
REMARK                         _______ _______ _______ _____ _____    ______ ____
ROOT
ATOM      1  C   UNL     1      21.798   1.021 191.868  0.00  0.00    +0.000 C 
ATOM      2  C   UNL     1      22.264   0.634 190.373  0.00  0.00    +0.000 C 
ATOM      3  C   UNL     1      21.833   1.409 189.192  0.00  0.00    +0.000 C 
ATOM      4  C   UNL     1      21.182   2.769 189.216  0.00  0.00    +0.000 C 
ATOM      5  C   UNL     1      23.067   0.864 192.692  0.00  0.00    +0.000 C 
ATOM      6  C   UNL     1      21.324   2.402 191.773  0.00  0.00    +0.000 C 
ATOM      7  C   UNL     1      20.677   3.506 187.946  0.00  0.00    +0.000 C 
ATOM      8  C   UNL     1      23.612   0.161 190.462  0.00  0.00    +0.000 C 
ATOM      9  C   UNL     1      21.007   3.229 190.550  0.00  0.00    +0.000 C 
ATOM     10  C   UNL     1      24.109   0.344 191.871  0.00  0.00    +0.000 C 
ATOM     11  C   UNL     1      22.130   0.969 187.879  0.00  0.00    +0.000 C 
ATOM     12  C   UNL     1      20.706   0.013 192.310  0.00  0.00    +0.000 C 
ATOM     13  C   UNL     1      21.293   2.909 186.534  0.00  0.00    +0.000 C 
ATOM     14  C   UNL     1      21.127   4.929 187.961  0.00  0.00    +0.000 C 
ATOM     15  C   UNL     1      21.847   1.738 186.624  0.00  0.00    +0.000 C 
ATOM     16  C   UNL     1      19.129   3.373 187.863  0.00  0.00    +0.000 C 
ATOM     17  C   UNL     1      21.922   3.883 185.672  0.00  0.00    +0.000 C 
ATOM     18  C   UNL     1      21.868   5.831 186.959  0.00  0.00    +0.000 C 
ATOM     19  C   UNL     1      22.273   5.270 185.712  0.00  0.00    +0.000 C 
ENDROOT
BRANCH  19  20
ATOM     20  O   UNL     1      22.351   6.031 184.583  0.00  0.00    +0.000 OA
ATOM     21  H   UNL     1      22.649   5.507 183.820  0.00  0.00    +0.000 HD
ENDBRANCH  19  20
BRANCH   5  22
ATOM     22  C   UNL     1      23.201   1.240 194.064  0.00  0.00    +0.000 C 
ATOM     23  C   UNL     1      24.467   1.847 194.616  0.00  0.00    +0.000 C 
BRANCH  22  24
ATOM     24  C   UNL     1      22.142   1.086 194.999  0.00  0.00    +0.000 C 
ATOM     25  C   UNL     1      21.015   0.905 196.026  0.00  0.00    +0.000 C 
BRANCH  25  26
ATOM     26  C   UNL     1      19.971   0.719 196.984  0.00  0.00    +0.000 C 
ATOM     27  C   UNL     1      18.670   0.241 196.571  0.00  0.00    +0.000 C 
ATOM     28  C   UNL     1      18.349  -0.100 195.128  0.00  0.00    +0.000 C 
ATOM     29  C   UNL     1      17.504   0.065 197.519  0.00  0.00    +0.000 C 
BRANCH  26  30
ATOM     30  C   UNL     1      20.211   0.995 198.356  0.00  0.00    +0.000 C 
ATOM     31  C   UNL     1      20.496   1.245 199.842  0.00  0.00    +0.000 C 
ENDBRANCH  26  30
ENDBRANCH  25  26
ENDBRANCH  22  24
ENDBRANCH   5  22
TORSDOF 5
ENDMDL
MODEL 7
REMARK VINA RESULT:      -8.6      2.958      5.139
REMARK  Name = 222284_BetaSitosterol.pdbqt.pdb
REMARK  5 active torsions:
REMARK  status: ('A' for Active; 'I' for Inactive)
REMARK    1  A    between atoms: C_5  and  C_22
REMARK    2  A    between atoms: C_19  and  O_20
REMARK    3  A    between atoms: C_22  and  C_24
REMARK    4  A    between atoms: C_25  and  C_26
REMARK    5  A    between atoms: C_26  and  C_30
REMARK                            x       y       z     vdW  Elec       q    Type
REMARK                         _______ _______ _______ _____ _____    ______ ____
ROOT
ATOM      1  C   UNL     1      21.551   1.498 192.529  0.00  0.00    +0.000 C 
ATOM      2  C   UNL     1      21.631   0.934 191.021  0.00  0.00    +0.000 C 
ATOM      3  C   UNL     1      21.599   1.828 189.846  0.00  0.00    +0.000 C 
ATOM      4  C   UNL     1      21.779   3.326 189.869  0.00  0.00    +0.000 C 
ATOM      5  C   UNL     1      22.593   0.680 193.275  0.00  0.00    +0.000 C 
ATOM      6  C   UNL     1      21.883   2.920 192.421  0.00  0.00    +0.000 C 
ATOM      7  C   UNL     1      21.658   4.228 188.611  0.00  0.00    +0.000 C 
ATOM      8  C   UNL     1      22.520  -0.187 191.038  0.00  0.00    +0.000 C 
ATOM      9  C   UNL     1      21.972   3.797 191.196  0.00  0.00    +0.000 C 
ATOM     10  C   UNL     1      23.135  -0.310 192.407  0.00  0.00    +0.000 C 
ATOM     11  C   UNL     1      21.522   1.307 188.531  0.00  0.00    +0.000 C 
ATOM     12  C   UNL     1      20.123   1.228 193.071  0.00  0.00    +0.000 C 
ATOM     13  C   UNL     1      21.759   3.404 187.182  0.00  0.00    +0.000 C 
ATOM     14  C   UNL     1      22.799   5.188 188.552  0.00  0.00    +0.000 C 
ATOM     15  C   UNL     1      21.606   2.118 187.273  0.00  0.00    +0.000 C 
ATOM     16  C   UNL     1      20.277   4.945 188.631  0.00  0.00    +0.000 C 
ATOM     17  C   UNL     1      22.748   3.898 186.251  0.00  0.00    +0.000 C 
ATOM     18  C   UNL     1      23.835   5.561 187.478  0.00  0.00    +0.000 C 
ATOM     19  C   UNL     1      23.788   4.880 186.226  0.00  0.00    +0.000 C 
ENDROOT
BRANCH  19  20
ATOM     20  O   UNL     1      24.181   5.490 185.071  0.00  0.00    +0.000 OA
ATOM     21  H   UNL     1      25.129   5.358 184.902  0.00  0.00    +0.000 HD
ENDBRANCH  19  20
BRANCH   5  22
ATOM     22  C   UNL     1      23.004   0.916 194.624  0.00  0.00    +0.000 C 
ATOM     23  C   UNL     1      24.432   1.232 194.990  0.00  0.00    +0.000 C 
BRANCH  22  24
ATOM     24  C   UNL     1      22.089   0.888 195.711  0.00  0.00    +0.000 C 
ATOM     25  C   UNL     1      21.081   0.875 196.870  0.00  0.00    +0.000 C 
BRANCH  25  26
ATOM     26  C   UNL     1      20.142   0.882 197.946  0.00  0.00    +0.000 C 
ATOM     27  C   UNL     1      20.490   1.468 199.222  0.00  0.00    +0.000 C 
ATOM     28  C   UNL     1      21.839   2.113 199.481  0.00  0.00    +0.000 C 
ATOM     29  C   UNL     1      19.567   1.470 200.421  0.00  0.00    +0.000 C 
BRANCH  26  30
ATOM     30  C   UNL     1      18.852   0.317 197.764  0.00  0.00    +0.000 C 
ATOM     31  C   UNL     1      17.472  -0.302 197.516  0.00  0.00    +0.000 C 
ENDBRANCH  26  30
ENDBRANCH  25  26
ENDBRANCH  22  24
ENDBRANCH   5  22
TORSDOF 5
ENDMDL
MODEL 8
REMARK VINA RESULT:      -8.5      2.088      3.312
REMARK  Name = 222284_BetaSitosterol.pdbqt.pdb
REMARK  5 active torsions:
REMARK  status: ('A' for Active; 'I' for Inactive)
REMARK    1  A    between atoms: C_5  and  C_22
REMARK    2  A    between atoms: C_19  and  O_20
REMARK    3  A    between atoms: C_22  and  C_24
REMARK    4  A    between atoms: C_25  and  C_26
REMARK    5  A    between atoms: C_26  and  C_30
REMARK                            x       y       z     vdW  Elec       q    Type
REMARK                         _______ _______ _______ _____ _____    ______ ____
ROOT
ATOM      1  C   UNL     1      22.036   2.346 192.063  0.00  0.00    +0.000 C 
ATOM      2  C   UNL     1      20.950   1.812 190.996  0.00  0.00    +0.000 C 
ATOM      3  C   UNL     1      20.654   2.543 189.747  0.00  0.00    +0.000 C 
ATOM      4  C   UNL     1      21.475   3.664 189.162  0.00  0.00    +0.000 C 
ATOM      5  C   UNL     1      22.795   1.090 192.463  0.00  0.00    +0.000 C 
ATOM      6  C   UNL     1      22.848   3.316 191.326  0.00  0.00    +0.000 C 
ATOM      7  C   UNL     1      21.074   4.450 187.884  0.00  0.00    +0.000 C 
ATOM      8  C   UNL     1      21.042   0.384 190.982  0.00  0.00    +0.000 C 
ATOM      9  C   UNL     1      22.595   3.962 189.985  0.00  0.00    +0.000 C 
ATOM     10  C   UNL     1      22.196  -0.047 191.847  0.00  0.00    +0.000 C 
ATOM     11  C   UNL     1      19.596   2.138 188.897  0.00  0.00    +0.000 C 
ATOM     12  C   UNL     1      21.272   2.955 193.267  0.00  0.00    +0.000 C 
ATOM     13  C   UNL     1      19.930   3.694 186.962  0.00  0.00    +0.000 C 
ATOM     14  C   UNL     1      22.245   4.579 186.968  0.00  0.00    +0.000 C 
ATOM     15  C   UNL     1      19.290   2.732 187.554  0.00  0.00    +0.000 C 
ATOM     16  C   UNL     1      20.489   5.831 188.300  0.00  0.00    +0.000 C 
ATOM     17  C   UNL     1      20.276   3.513 185.571  0.00  0.00    +0.000 C 
ATOM     18  C   UNL     1      22.483   4.270 185.480  0.00  0.00    +0.000 C 
ATOM     19  C   UNL     1      21.409   3.719 184.722  0.00  0.00    +0.000 C 
ENDROOT
BRANCH  19  20
ATOM     20  O   UNL     1      21.278   3.972 183.388  0.00  0.00    +0.000 OA
ATOM     21  H   UNL     1      20.388   4.300 183.173  0.00  0.00    +0.000 HD
ENDBRANCH  19  20
BRANCH   5  22
ATOM     22  C   UNL     1      23.965   1.069 193.283  0.00  0.00    +0.000 C 
ATOM     23  C   UNL     1      25.078   2.075 193.129  0.00  0.00    +0.000 C 
BRANCH  22  24
ATOM     24  C   UNL     1      24.150   0.109 194.315  0.00  0.00    +0.000 C 
ATOM     25  C   UNL     1      24.344  -0.908 195.448  0.00  0.00    +0.000 C 
BRANCH  25  26
ATOM     26  C   UNL     1      24.532  -1.841 196.513  0.00  0.00    +0.000 C 
ATOM     27  C   UNL     1      25.532  -2.882 196.411  0.00  0.00    +0.000 C 
ATOM     28  C   UNL     1      26.433  -3.028 195.200  0.00  0.00    +0.000 C 
ATOM     29  C   UNL     1      25.757  -3.932 197.476  0.00  0.00    +0.000 C 
BRANCH  26  30
ATOM     30  C   UNL     1      23.740  -1.746 197.688  0.00  0.00    +0.000 C 
ATOM     31  C   UNL     1      22.903  -1.693 198.971  0.00  0.00    +0.000 C 
ENDBRANCH  26  30
ENDBRANCH  25  26
ENDBRANCH  22  24
ENDBRANCH   5  22
TORSDOF 5
ENDMDL
MODEL 9
REMARK VINA RESULT:      -7.7      2.746      3.941
REMARK  Name = 222284_BetaSitosterol.pdbqt.pdb
REMARK  5 active torsions:
REMARK  status: ('A' for Active; 'I' for Inactive)
REMARK    1  A    between atoms: C_5  and  C_22
REMARK    2  A    between atoms: C_19  and  O_20
REMARK    3  A    between atoms: C_22  and  C_24
REMARK    4  A    between atoms: C_25  and  C_26
REMARK    5  A    between atoms: C_26  and  C_30
REMARK                            x       y       z     vdW  Elec       q    Type
REMARK                         _______ _______ _______ _____ _____    ______ ____
ROOT
ATOM      1  C   UNL     1      22.816   2.565 191.685  0.00  0.00    +0.000 C 
ATOM      2  C   UNL     1      21.850   1.880 190.589  0.00  0.00    +0.000 C 
ATOM      3  C   UNL     1      21.404   2.599 189.379  0.00  0.00    +0.000 C 
ATOM      4  C   UNL     1      21.981   3.890 188.853  0.00  0.00    +0.000 C 
ATOM      5  C   UNL     1      23.813   1.467 192.022  0.00  0.00    +0.000 C 
ATOM      6  C   UNL     1      23.412   3.714 191.001  0.00  0.00    +0.000 C 
ATOM      7  C   UNL     1      21.421   4.644 187.617  0.00  0.00    +0.000 C 
ATOM      8  C   UNL     1      22.225   0.502 190.502  0.00  0.00    +0.000 C 
ATOM      9  C   UNL     1      23.025   4.363 189.694  0.00  0.00    +0.000 C 
ATOM     10  C   UNL     1      23.449   0.267 191.347  0.00  0.00    +0.000 C 
ATOM     11  C   UNL     1      20.442   2.035 188.506  0.00  0.00    +0.000 C 
ATOM     12  C   UNL     1      21.955   2.947 192.916  0.00  0.00    +0.000 C 
ATOM     13  C   UNL     1      20.444   3.722 186.654  0.00  0.00    +0.000 C 
ATOM     14  C   UNL     1      22.535   5.050 186.711  0.00  0.00    +0.000 C 
ATOM     15  C   UNL     1      20.014   2.623 187.195  0.00  0.00    +0.000 C 
ATOM     16  C   UNL     1      20.576   5.857 188.101  0.00  0.00    +0.000 C 
ATOM     17  C   UNL     1      20.808   3.685 185.257  0.00  0.00    +0.000 C 
ATOM     18  C   UNL     1      22.819   4.871 185.210  0.00  0.00    +0.000 C 
ATOM     19  C   UNL     1      21.871   4.155 184.422  0.00  0.00    +0.000 C 
ENDROOT
BRANCH  19  20
ATOM     20  O   UNL     1      21.681   4.445 183.102  0.00  0.00    +0.000 OA
ATOM     21  H   UNL     1      20.899   3.990 182.746  0.00  0.00    +0.000 HD
ENDBRANCH  19  20
BRANCH   5  22
ATOM     22  C   UNL     1      24.970   1.639 192.843  0.00  0.00    +0.000 C 
ATOM     23  C   UNL     1      26.255   2.226 192.316  0.00  0.00    +0.000 C 
BRANCH  22  24
ATOM     24  C   UNL     1      24.981   1.287 194.220  0.00  0.00    +0.000 C 
ATOM     25  C   UNL     1      24.990   0.933 195.714  0.00  0.00    +0.000 C 
BRANCH  25  26
ATOM     26  C   UNL     1      25.009   0.620 197.107  0.00  0.00    +0.000 C 
ATOM     27  C   UNL     1      23.794   0.675 197.891  0.00  0.00    +0.000 C 
ATOM     28  C   UNL     1      22.452   1.045 197.287  0.00  0.00    +0.000 C 
ATOM     29  C   UNL     1      23.745   0.403 199.378  0.00  0.00    +0.000 C 
BRANCH  26  30
ATOM     30  C   UNL     1      26.227   0.241 197.732  0.00  0.00    +0.000 C 
ATOM     31  C   UNL     1      27.555  -0.114 198.410  0.00  0.00    +0.000 C 
ENDBRANCH  26  30
ENDBRANCH  25  26
ENDBRANCH  22  24
ENDBRANCH   5  22
TORSDOF 5
ENDMDL
