REMARK  Name = 222284_BetaSitosterol.pdbqt.pdb
REMARK  5 active torsions:
REMARK  status: ('A' for Active; 'I' for Inactive)
REMARK    1  A    between atoms: C_5  and  C_22
REMARK    2  A    between atoms: C_19  and  O_20
REMARK    3  A    between atoms: C_22  and  C_24
REMARK    4  A    between atoms: C_25  and  C_26
REMARK    5  A    between atoms: C_26  and  C_30
REMARK                            x       y       z     vdW  Elec       q    Type
REMARK                         _______ _______ _______ _____ _____    ______ ____
ROOT
ATOM      1  C   UNL     1      -0.692  -1.360   0.305  0.00  0.00    +0.000 C 
ATOM      2  C   UNL     1       0.755  -2.070   0.355  0.00  0.00    +0.000 C 
ATOM      3  C   UNL     1       1.972  -1.406  -0.155  0.00  0.00    +0.000 C 
ATOM      4  C   UNL     1       2.103   0.056  -0.502  0.00  0.00    +0.000 C 
ATOM      5  C   UNL     1      -1.297  -1.681   1.663  0.00  0.00    +0.000 C 
ATOM      6  C   UNL     1      -0.411   0.063   0.106  0.00  0.00    +0.000 C 
ATOM      7  C   UNL     1       3.386   0.686  -1.109  0.00  0.00    +0.000 C 
ATOM      8  C   UNL     1       0.811  -2.825   1.569  0.00  0.00    +0.000 C 
ATOM      9  C   UNL     1       0.876   0.743  -0.293  0.00  0.00    +0.000 C 
ATOM     10  C   UNL     1      -0.426  -2.550   2.381  0.00  0.00    +0.000 C 
ATOM     11  C   UNL     1       3.204  -2.100  -0.238  0.00  0.00    +0.000 C 
ATOM     12  C   UNL     1      -1.507  -2.004  -0.846  0.00  0.00    +0.000 C 
ATOM     13  C   UNL     1       4.738  -0.248  -0.939  0.00  0.00    +0.000 C 
ATOM     14  C   UNL     1       3.730   1.949  -0.392  0.00  0.00    +0.000 C 
ATOM     15  C   UNL     1       4.517  -1.488  -0.623  0.00  0.00    +0.000 C 
ATOM     16  C   UNL     1       3.170   0.908  -2.634  0.00  0.00    +0.000 C 
ATOM     17  C   UNL     1       5.871   0.408  -0.328  0.00  0.00    +0.000 C 
ATOM     18  C   UNL     1       5.003   2.488   0.283  0.00  0.00    +0.000 C 
ATOM     19  C   UNL     1       6.166   1.663   0.293  0.00  0.00    +0.000 C 
ENDROOT
BRANCH  19  20
ATOM     20  O   UNL     1       7.419   2.202   0.278  0.00  0.00    +0.000 OA
ATOM     21  H   UNL     1       8.089   1.540   0.038  0.00  0.00    +0.000 HD
ENDBRANCH  19  20
BRANCH   5  22
ATOM     22  C   UNL     1      -2.524  -1.140   2.159  0.00  0.00    +0.000 C 
ATOM     23  C   UNL     1      -2.884  -1.163   3.623  0.00  0.00    +0.000 C 
BRANCH  22  24
ATOM     24  C   UNL     1      -3.480  -0.525   1.306  0.00  0.00    +0.000 C 
ATOM     25  C   UNL     1      -4.505   0.122   0.363  0.00  0.00    +0.000 C 
BRANCH  25  26
ATOM     26  C   UNL     1      -5.445   0.724  -0.528  0.00  0.00    +0.000 C 
ATOM     27  C   UNL     1      -5.134   1.970  -1.194  0.00  0.00    +0.000 C 
ATOM     28  C   UNL     1      -3.810   2.686  -1.003  0.00  0.00    +0.000 C 
ATOM     29  C   UNL     1      -6.096   2.690  -2.113  0.00  0.00    +0.000 C 
BRANCH  26  30
ATOM     30  C   UNL     1      -6.694   0.094  -0.772  0.00  0.00    +0.000 C 
ATOM     31  C   UNL     1      -8.028  -0.626  -1.001  0.00  0.00    +0.000 C 
ENDBRANCH  26  30
ENDBRANCH  25  26
ENDBRANCH  22  24
ENDBRANCH   5  22
TORSDOF 5
