MODEL 1
REMARK VINA RESULT:      -8.6      0.000      0.000
REMARK  Name = 25023738_BI-D-1870.pdbqt.pdb
REMARK  4 active torsions:
REMARK  status: ('A' for Active; 'I' for Inactive)
REMARK    1  A    between atoms: N_2  and  C_26
REMARK    2  A    between atoms: N_14  and  C_16
REMARK    3  A    between atoms: C_20  and  O_24
REMARK    4  A    between atoms: C_27  and  C_28
REMARK                            x       y       z     vdW  Elec       q    Type
REMARK                         _______ _______ _______ _____ _____    ______ ____
ROOT
ATOM      1  O   UNL     1      21.353  -1.447 194.884  0.00  0.00    +0.000 OA
ATOM      2  N   UNL     1      22.010   0.613 191.983  0.00  0.00    +0.000 N 
ATOM      3  N   UNL     1      19.869  -0.138 193.655  0.00  0.00    +0.000 N 
ATOM      4  N   UNL     1      20.528   1.967 190.693  0.00  0.00    +0.000 NA
ATOM      5  N   UNL     1      18.247   2.140 191.203  0.00  0.00    +0.000 NA
ATOM      6  C   UNL     1      22.263  -0.250 193.028  0.00  0.00    +0.000 C 
ATOM      7  C   UNL     1      20.719   1.123 191.733  0.00  0.00    +0.000 A 
ATOM      8  C   UNL     1      21.142  -0.675 193.944  0.00  0.00    +0.000 C 
ATOM      9  C   UNL     1      19.682   0.747 192.558  0.00  0.00    +0.000 A 
ATOM     10  C   UNL     1      23.675  -0.775 193.257  0.00  0.00    +0.000 C 
ATOM     11  C   UNL     1      18.667  -0.433 194.428  0.00  0.00    +0.000 C 
ATOM     12  C   UNL     1      18.463   1.299 192.231  0.00  0.00    +0.000 A 
ATOM     13  C   UNL     1      19.302   2.453 190.453  0.00  0.00    +0.000 A 
ATOM     14  N   UNL     1      19.066   3.322 189.396  0.00  0.00    +0.000 N 
ATOM     15  H   UNL     1      18.090   3.591 189.359  0.00  0.00    +0.000 HD
ENDROOT
BRANCH  14  16
ATOM     16  C   UNL     1      19.921   3.857 188.427  0.00  0.00    +0.000 A 
ATOM     17  C   UNL     1      20.887   4.797 188.811  0.00  0.00    +0.000 A 
ATOM     18  C   UNL     1      21.757   5.351 187.873  0.00  0.00    +0.000 A 
ATOM     19  F   UNL     1      22.667   6.248 188.281  0.00  0.00    +0.000 F 
ATOM     20  C   UNL     1      21.681   4.981 186.537  0.00  0.00    +0.000 A 
ATOM     21  C   UNL     1      20.727   4.051 186.149  0.00  0.00    +0.000 A 
ATOM     22  F   UNL     1      20.644   3.685 184.861  0.00  0.00    +0.000 F 
ATOM     23  C   UNL     1      19.856   3.492 187.079  0.00  0.00    +0.000 A 
BRANCH  20  24
ATOM     24  O   UNL     1      22.536   5.528 185.623  0.00  0.00    +0.000 OA
ATOM     25  H   UNL     1      22.112   6.327 185.254  0.00  0.00    +0.000 HD
ENDBRANCH  20  24
ENDBRANCH  14  16
BRANCH   2  26
ATOM     26  C   UNL     1      23.091   1.026 191.092  0.00  0.00    +0.000 C 
ATOM     27  C   UNL     1      24.230   1.457 190.160  0.00  0.00    +0.000 C 
BRANCH  27  28
ATOM     28  C   UNL     1      25.276   1.855 189.298  0.00  0.00    +0.000 C 
ATOM     29  C   UNL     1      26.530   1.040 189.220  0.00  0.00    +0.000 C 
ATOM     30  C   UNL     1      25.148   3.119 188.504  0.00  0.00    +0.000 C 
ENDBRANCH  27  28
ENDBRANCH   2  26
TORSDOF 4
ENDMDL
MODEL 2
REMARK VINA RESULT:      -8.1      1.919      4.554
REMARK  Name = 25023738_BI-D-1870.pdbqt.pdb
REMARK  4 active torsions:
REMARK  status: ('A' for Active; 'I' for Inactive)
REMARK    1  A    between atoms: N_2  and  C_26
REMARK    2  A    between atoms: N_14  and  C_16
REMARK    3  A    between atoms: C_20  and  O_24
REMARK    4  A    between atoms: C_27  and  C_28
REMARK                            x       y       z     vdW  Elec       q    Type
REMARK                         _______ _______ _______ _____ _____    ______ ____
ROOT
ATOM      1  O   UNL     1      20.301  -0.432 195.002  0.00  0.00    +0.000 OA
ATOM      2  N   UNL     1      21.027   1.407 191.973  0.00  0.00    +0.000 N 
ATOM      3  N   UNL     1      22.371   0.093 194.072  0.00  0.00    +0.000 N 
ATOM      4  N   UNL     1      23.122   1.970 190.981  0.00  0.00    +0.000 NA
ATOM      5  N   UNL     1      25.161   1.336 191.949  0.00  0.00    +0.000 NA
ATOM      6  C   UNL     1      20.276   0.815 192.966  0.00  0.00    +0.000 C 
ATOM      7  C   UNL     1      22.436   1.372 191.983  0.00  0.00    +0.000 A 
ATOM      8  C   UNL     1      20.961   0.103 194.106  0.00  0.00    +0.000 C 
ATOM      9  C   UNL     1      23.080   0.727 193.015  0.00  0.00    +0.000 A 
ATOM     10  C   UNL     1      18.754   0.881 192.912  0.00  0.00    +0.000 C 
ATOM     11  C   UNL     1      23.206  -0.545 195.085  0.00  0.00    +0.000 C 
ATOM     12  C   UNL     1      24.456   0.748 192.933  0.00  0.00    +0.000 A 
ATOM     13  C   UNL     1      24.463   1.938 190.988  0.00  0.00    +0.000 A 
ATOM     14  N   UNL     1      25.203   2.540 189.979  0.00  0.00    +0.000 N 
ATOM     15  H   UNL     1      26.196   2.422 190.137  0.00  0.00    +0.000 HD
ENDROOT
BRANCH  14  16
ATOM     16  C   UNL     1      24.810   3.245 188.835  0.00  0.00    +0.000 A 
ATOM     17  C   UNL     1      23.784   2.728 188.033  0.00  0.00    +0.000 A 
ATOM     18  C   UNL     1      23.366   3.402 186.887  0.00  0.00    +0.000 A 
ATOM     19  F   UNL     1      22.381   2.874 186.145  0.00  0.00    +0.000 F 
ATOM     20  C   UNL     1      23.961   4.601 186.519  0.00  0.00    +0.000 A 
ATOM     21  C   UNL     1      24.979   5.119 187.308  0.00  0.00    +0.000 A 
ATOM     22  F   UNL     1      25.561   6.277 186.963  0.00  0.00    +0.000 F 
ATOM     23  C   UNL     1      25.401   4.452 188.454  0.00  0.00    +0.000 A 
BRANCH  20  24
ATOM     24  O   UNL     1      23.547   5.256 185.393  0.00  0.00    +0.000 OA
ATOM     25  H   UNL     1      24.124   6.034 185.267  0.00  0.00    +0.000 HD
ENDBRANCH  20  24
ENDBRANCH  14  16
BRANCH   2  26
ATOM     26  C   UNL     1      20.368   2.100 190.868  0.00  0.00    +0.000 C 
ATOM     27  C   UNL     1      19.681   2.825 189.705  0.00  0.00    +0.000 C 
BRANCH  27  28
ATOM     28  C   UNL     1      19.044   3.495 188.636  0.00  0.00    +0.000 C 
ATOM     29  C   UNL     1      18.074   2.757 187.766  0.00  0.00    +0.000 C 
ATOM     30  C   UNL     1      19.379   4.925 188.346  0.00  0.00    +0.000 C 
ENDBRANCH  27  28
ENDBRANCH   2  26
TORSDOF 4
ENDMDL
MODEL 3
REMARK VINA RESULT:      -7.4      2.205      4.470
REMARK  Name = 25023738_BI-D-1870.pdbqt.pdb
REMARK  4 active torsions:
REMARK  status: ('A' for Active; 'I' for Inactive)
REMARK    1  A    between atoms: N_2  and  C_26
REMARK    2  A    between atoms: N_14  and  C_16
REMARK    3  A    between atoms: C_20  and  O_24
REMARK    4  A    between atoms: C_27  and  C_28
REMARK                            x       y       z     vdW  Elec       q    Type
REMARK                         _______ _______ _______ _____ _____    ______ ____
ROOT
ATOM      1  O   UNL     1      20.180  -0.345 196.586  0.00  0.00    +0.000 OA
ATOM      2  N   UNL     1      20.807   0.970 193.274  0.00  0.00    +0.000 N 
ATOM      3  N   UNL     1      22.178   0.435 195.677  0.00  0.00    +0.000 N 
ATOM      4  N   UNL     1      22.829   1.779 192.299  0.00  0.00    +0.000 NA
ATOM      5  N   UNL     1      24.848   1.823 193.490  0.00  0.00    +0.000 NA
ATOM      6  C   UNL     1      20.100   0.435 194.329  0.00  0.00    +0.000 C 
ATOM      7  C   UNL     1      22.185   1.254 193.368  0.00  0.00    +0.000 A 
ATOM      8  C   UNL     1      20.800   0.135 195.632  0.00  0.00    +0.000 C 
ATOM      9  C   UNL     1      22.843   0.988 194.548  0.00  0.00    +0.000 A 
ATOM     10  C   UNL     1      18.611   0.145 194.180  0.00  0.00    +0.000 C 
ATOM     11  C   UNL     1      23.021   0.215 196.848  0.00  0.00    +0.000 C 
ATOM     12  C   UNL     1      24.185   1.300 194.538  0.00  0.00    +0.000 A 
ATOM     13  C   UNL     1      24.140   2.050 192.385  0.00  0.00    +0.000 A 
ATOM     14  N   UNL     1      24.836   2.589 191.312  0.00  0.00    +0.000 N 
ATOM     15  H   UNL     1      25.811   2.731 191.546  0.00  0.00    +0.000 HD
ENDROOT
BRANCH  14  16
ATOM     16  C   UNL     1      24.422   2.946 190.024  0.00  0.00    +0.000 A 
ATOM     17  C   UNL     1      24.255   4.302 189.711  0.00  0.00    +0.000 A 
ATOM     18  C   UNL     1      23.844   4.695 188.438  0.00  0.00    +0.000 A 
ATOM     19  F   UNL     1      23.696   6.003 188.179  0.00  0.00    +0.000 F 
ATOM     20  C   UNL     1      23.592   3.748 187.455  0.00  0.00    +0.000 A 
ATOM     21  C   UNL     1      23.754   2.403 187.758  0.00  0.00    +0.000 A 
ATOM     22  F   UNL     1      23.514   1.479 186.816  0.00  0.00    +0.000 F 
ATOM     23  C   UNL     1      24.165   2.003 189.025  0.00  0.00    +0.000 A 
BRANCH  20  24
ATOM     24  O   UNL     1      23.189   4.141 186.210  0.00  0.00    +0.000 OA
ATOM     25  H   UNL     1      23.455   3.449 185.575  0.00  0.00    +0.000 HD
ENDBRANCH  20  24
ENDBRANCH  14  16
BRANCH   2  26
ATOM     26  C   UNL     1      20.134   1.263 192.011  0.00  0.00    +0.000 C 
ATOM     27  C   UNL     1      19.426   1.576 190.687  0.00  0.00    +0.000 C 
BRANCH  27  28
ATOM     28  C   UNL     1      18.776   1.859 189.466  0.00  0.00    +0.000 C 
ATOM     29  C   UNL     1      19.470   2.681 188.423  0.00  0.00    +0.000 C 
ATOM     30  C   UNL     1      17.374   1.382 189.239  0.00  0.00    +0.000 C 
ENDBRANCH  27  28
ENDBRANCH   2  26
TORSDOF 4
ENDMDL
MODEL 4
REMARK VINA RESULT:      -7.3      3.527      5.877
REMARK  Name = 25023738_BI-D-1870.pdbqt.pdb
REMARK  4 active torsions:
REMARK  status: ('A' for Active; 'I' for Inactive)
REMARK    1  A    between atoms: N_2  and  C_26
REMARK    2  A    between atoms: N_14  and  C_16
REMARK    3  A    between atoms: C_20  and  O_24
REMARK    4  A    between atoms: C_27  and  C_28
REMARK                            x       y       z     vdW  Elec       q    Type
REMARK                         _______ _______ _______ _____ _____    ______ ____
ROOT
ATOM      1  O   UNL     1      18.383   0.637 191.408  0.00  0.00    +0.000 OA
ATOM      2  N   UNL     1      21.758   1.723 190.687  0.00  0.00    +0.000 N 
ATOM      3  N   UNL     1      20.400  -0.313 192.084  0.00  0.00    +0.000 N 
ATOM      4  N   UNL     1      23.848   0.788 191.354  0.00  0.00    +0.000 NA
ATOM      5  N   UNL     1      23.976  -1.135 192.687  0.00  0.00    +0.000 NA
ATOM      6  C   UNL     1      20.379   1.724 190.674  0.00  0.00    +0.000 C 
ATOM      7  C   UNL     1      22.496   0.739 191.375  0.00  0.00    +0.000 A 
ATOM      8  C   UNL     1      19.617   0.649 191.411  0.00  0.00    +0.000 C 
ATOM      9  C   UNL     1      21.820  -0.250 192.054  0.00  0.00    +0.000 A 
ATOM     10  C   UNL     1      19.624   2.810 189.916  0.00  0.00    +0.000 C 
ATOM     11  C   UNL     1      19.843  -1.424 192.848  0.00  0.00    +0.000 C 
ATOM     12  C   UNL     1      22.631  -1.162 192.693  0.00  0.00    +0.000 A 
ATOM     13  C   UNL     1      24.554  -0.147 192.008  0.00  0.00    +0.000 A 
ATOM     14  N   UNL     1      25.942  -0.131 192.009  0.00  0.00    +0.000 N 
ATOM     15  H   UNL     1      26.313  -0.904 192.548  0.00  0.00    +0.000 HD
ENDROOT
BRANCH  14  16
ATOM     16  C   UNL     1      26.861   0.739 191.412  0.00  0.00    +0.000 A 
ATOM     17  C   UNL     1      27.117   1.979 192.012  0.00  0.00    +0.000 A 
ATOM     18  C   UNL     1      28.026   2.872 191.446  0.00  0.00    +0.000 A 
ATOM     19  F   UNL     1      28.243   4.049 192.051  0.00  0.00    +0.000 F 
ATOM     20  C   UNL     1      28.694   2.548 190.273  0.00  0.00    +0.000 A 
ATOM     21  C   UNL     1      28.444   1.322 189.672  0.00  0.00    +0.000 A 
ATOM     22  F   UNL     1      29.084   0.997 188.539  0.00  0.00    +0.000 F 
ATOM     23  C   UNL     1      27.540   0.425 190.232  0.00  0.00    +0.000 A 
BRANCH  20  24
ATOM     24  O   UNL     1      29.582   3.428 189.723  0.00  0.00    +0.000 OA
ATOM     25  H   UNL     1      29.534   4.261 190.230  0.00  0.00    +0.000 HD
ENDBRANCH  20  24
ENDBRANCH  14  16
BRANCH   2  26
ATOM     26  C   UNL     1      22.499   2.762 189.977  0.00  0.00    +0.000 C 
ATOM     27  C   UNL     1      23.283   3.851 189.233  0.00  0.00    +0.000 C 
BRANCH  27  28
ATOM     28  C   UNL     1      24.000   4.855 188.546  0.00  0.00    +0.000 C 
ATOM     29  C   UNL     1      25.427   4.619 188.156  0.00  0.00    +0.000 C 
ATOM     30  C   UNL     1      23.347   6.171 188.255  0.00  0.00    +0.000 C 
ENDBRANCH  27  28
ENDBRANCH   2  26
TORSDOF 4
ENDMDL
MODEL 5
REMARK VINA RESULT:      -6.3     24.177     25.467
REMARK  Name = 25023738_BI-D-1870.pdbqt.pdb
REMARK  4 active torsions:
REMARK  status: ('A' for Active; 'I' for Inactive)
REMARK    1  A    between atoms: N_2  and  C_26
REMARK    2  A    between atoms: N_14  and  C_16
REMARK    3  A    between atoms: C_20  and  O_24
REMARK    4  A    between atoms: C_27  and  C_28
REMARK                            x       y       z     vdW  Elec       q    Type
REMARK                         _______ _______ _______ _____ _____    ______ ____
ROOT
ATOM      1  O   UNL     1      10.810 -12.514 176.305  0.00  0.00    +0.000 OA
ATOM      2  N   UNL     1      12.512 -15.703 176.451  0.00  0.00    +0.000 N 
ATOM      3  N   UNL     1      12.044 -13.433 178.054  0.00  0.00    +0.000 N 
ATOM      4  N   UNL     1      13.785 -16.686 178.213  0.00  0.00    +0.000 NA
ATOM      5  N   UNL     1      14.117 -15.594 180.260  0.00  0.00    +0.000 NA
ATOM      6  C   UNL     1      11.757 -14.675 175.930  0.00  0.00    +0.000 C 
ATOM      7  C   UNL     1      13.051 -15.647 177.753  0.00  0.00    +0.000 A 
ATOM      8  C   UNL     1      11.485 -13.443 176.758  0.00  0.00    +0.000 C 
ATOM      9  C   UNL     1      12.815 -14.531 178.525  0.00  0.00    +0.000 A 
ATOM     10  C   UNL     1      11.197 -14.781 174.516  0.00  0.00    +0.000 C 
ATOM     11  C   UNL     1      11.890 -12.332 178.999  0.00  0.00    +0.000 C 
ATOM     12  C   UNL     1      13.383 -14.574 179.780  0.00  0.00    +0.000 A 
ATOM     13  C   UNL     1      14.299 -16.636 179.451  0.00  0.00    +0.000 A 
ATOM     14  N   UNL     1      15.057 -17.682 179.959  0.00  0.00    +0.000 N 
ATOM     15  H   UNL     1      15.365 -17.481 180.903  0.00  0.00    +0.000 HD
ENDROOT
BRANCH  14  16
ATOM     16  C   UNL     1      15.440 -18.907 179.401  0.00  0.00    +0.000 A 
ATOM     17  C   UNL     1      15.965 -18.931 178.102  0.00  0.00    +0.000 A 
ATOM     18  C   UNL     1      16.358 -20.132 177.513  0.00  0.00    +0.000 A 
ATOM     19  F   UNL     1      16.856 -20.113 176.268  0.00  0.00    +0.000 F 
ATOM     20  C   UNL     1      16.233 -21.329 178.205  0.00  0.00    +0.000 A 
ATOM     21  C   UNL     1      15.713 -21.313 179.491  0.00  0.00    +0.000 A 
ATOM     22  F   UNL     1      15.589 -22.463 180.170  0.00  0.00    +0.000 F 
ATOM     23  C   UNL     1      15.320 -20.118 180.087  0.00  0.00    +0.000 A 
BRANCH  20  24
ATOM     24  O   UNL     1      16.619 -22.503 177.621  0.00  0.00    +0.000 OA
ATOM     25  H   UNL     1      15.884 -22.816 177.060  0.00  0.00    +0.000 HD
ENDBRANCH  20  24
ENDBRANCH  14  16
BRANCH   2  26
ATOM     26  C   UNL     1      12.780 -16.897 175.652  0.00  0.00    +0.000 C 
ATOM     27  C   UNL     1      13.065 -18.150 174.815  0.00  0.00    +0.000 C 
BRANCH  27  28
ATOM     28  C   UNL     1      13.324 -19.304 174.043  0.00  0.00    +0.000 C 
ATOM     29  C   UNL     1      12.188 -20.174 173.600  0.00  0.00    +0.000 C 
ATOM     30  C   UNL     1      14.735 -19.682 173.714  0.00  0.00    +0.000 C 
ENDBRANCH  27  28
ENDBRANCH   2  26
TORSDOF 4
ENDMDL
MODEL 6
REMARK VINA RESULT:      -6.2     34.746     36.185
REMARK  Name = 25023738_BI-D-1870.pdbqt.pdb
REMARK  4 active torsions:
REMARK  status: ('A' for Active; 'I' for Inactive)
REMARK    1  A    between atoms: N_2  and  C_26
REMARK    2  A    between atoms: N_14  and  C_16
REMARK    3  A    between atoms: C_20  and  O_24
REMARK    4  A    between atoms: C_27  and  C_28
REMARK                            x       y       z     vdW  Elec       q    Type
REMARK                         _______ _______ _______ _____ _____    ______ ____
ROOT
ATOM      1  O   UNL     1      39.314 -23.918 176.840  0.00  0.00    +0.000 OA
ATOM      2  N   UNL     1      40.320 -22.497 173.669  0.00  0.00    +0.000 N 
ATOM      3  N   UNL     1      38.455 -24.333 174.714  0.00  0.00    +0.000 N 
ATOM      4  N   UNL     1      39.475 -22.888 171.472  0.00  0.00    +0.000 NA
ATOM      5  N   UNL     1      37.719 -24.388 171.069  0.00  0.00    +0.000 NA
ATOM      6  C   UNL     1      40.315 -22.727 175.028  0.00  0.00    +0.000 C 
ATOM      7  C   UNL     1      39.425 -23.153 172.798  0.00  0.00    +0.000 A 
ATOM      8  C   UNL     1      39.330 -23.703 175.624  0.00  0.00    +0.000 C 
ATOM      9  C   UNL     1      38.519 -24.047 173.323  0.00  0.00    +0.000 A 
ATOM     10  C   UNL     1      41.303 -21.995 175.928  0.00  0.00    +0.000 C 
ATOM     11  C   UNL     1      37.438 -25.304 175.104  0.00  0.00    +0.000 C 
ATOM     12  C   UNL     1      37.689 -24.633 172.392  0.00  0.00    +0.000 A 
ATOM     13  C   UNL     1      38.625 -23.510 170.642  0.00  0.00    +0.000 A 
ATOM     14  N   UNL     1      38.645 -23.266 169.275  0.00  0.00    +0.000 N 
ATOM     15  H   UNL     1      37.940 -23.816 168.799  0.00  0.00    +0.000 HD
ENDROOT
BRANCH  14  16
ATOM     16  C   UNL     1      39.443 -22.422 168.496  0.00  0.00    +0.000 A 
ATOM     17  C   UNL     1      39.075 -21.077 168.349  0.00  0.00    +0.000 A 
ATOM     18  C   UNL     1      39.846 -20.206 167.581  0.00  0.00    +0.000 A 
ATOM     19  F   UNL     1      39.461 -18.927 167.465  0.00  0.00    +0.000 F 
ATOM     20  C   UNL     1      40.995 -20.657 166.944  0.00  0.00    +0.000 A 
ATOM     21  C   UNL     1      41.365 -21.988 167.084  0.00  0.00    +0.000 A 
ATOM     22  F   UNL     1      42.473 -22.435 166.474  0.00  0.00    +0.000 F 
ATOM     23  C   UNL     1      40.601 -22.863 167.850  0.00  0.00    +0.000 A 
BRANCH  20  24
ATOM     24  O   UNL     1      41.745 -19.798 166.192  0.00  0.00    +0.000 OA
ATOM     25  H   UNL     1      42.447 -20.316 165.752  0.00  0.00    +0.000 HD
ENDBRANCH  20  24
ENDBRANCH  14  16
BRANCH   2  26
ATOM     26  C   UNL     1      41.272 -21.555 173.086  0.00  0.00    +0.000 C 
ATOM     27  C   UNL     1      42.268 -20.563 172.472  0.00  0.00    +0.000 C 
BRANCH  27  28
ATOM     28  C   UNL     1      43.189 -19.652 171.910  0.00  0.00    +0.000 C 
ATOM     29  C   UNL     1      42.739 -18.696 170.848  0.00  0.00    +0.000 C 
ATOM     30  C   UNL     1      44.623 -19.679 172.340  0.00  0.00    +0.000 C 
ENDBRANCH  27  28
ENDBRANCH   2  26
TORSDOF 4
ENDMDL
MODEL 7
REMARK VINA RESULT:      -6.2     21.255     25.664
REMARK  Name = 25023738_BI-D-1870.pdbqt.pdb
REMARK  4 active torsions:
REMARK  status: ('A' for Active; 'I' for Inactive)
REMARK    1  A    between atoms: N_2  and  C_26
REMARK    2  A    between atoms: N_14  and  C_16
REMARK    3  A    between atoms: C_20  and  O_24
REMARK    4  A    between atoms: C_27  and  C_28
REMARK                            x       y       z     vdW  Elec       q    Type
REMARK                         _______ _______ _______ _____ _____    ______ ____
ROOT
ATOM      1  O   UNL     1      29.660  13.829 163.731  0.00  0.00    +0.000 OA
ATOM      2  N   UNL     1      27.312  11.977 165.768  0.00  0.00    +0.000 N 
ATOM      3  N   UNL     1      29.350  13.905 166.039  0.00  0.00    +0.000 N 
ATOM      4  N   UNL     1      26.958  12.019 168.126  0.00  0.00    +0.000 NA
ATOM      5  N   UNL     1      28.213  13.401 169.544  0.00  0.00    +0.000 NA
ATOM      6  C   UNL     1      27.967  12.405 164.633  0.00  0.00    +0.000 C 
ATOM      7  C   UNL     1      27.634  12.475 167.047  0.00  0.00    +0.000 A 
ATOM      8  C   UNL     1      29.064  13.436 164.739  0.00  0.00    +0.000 C 
ATOM      9  C   UNL     1      28.632  13.416 167.165  0.00  0.00    +0.000 A 
ATOM     10  C   UNL     1      27.584  11.837 163.271  0.00  0.00    +0.000 C 
ATOM     11  C   UNL     1      30.375  14.899 166.338  0.00  0.00    +0.000 C 
ATOM     12  C   UNL     1      28.871  13.839 168.455  0.00  0.00    +0.000 A 
ATOM     13  C   UNL     1      27.262  12.490 169.345  0.00  0.00    +0.000 A 
ATOM     14  N   UNL     1      26.590  12.047 170.477  0.00  0.00    +0.000 N 
ATOM     15  H   UNL     1      26.943  12.504 171.309  0.00  0.00    +0.000 HD
ENDROOT
BRANCH  14  16
ATOM     16  C   UNL     1      25.556  11.119 170.637  0.00  0.00    +0.000 A 
ATOM     17  C   UNL     1      25.705  10.084 171.570  0.00  0.00    +0.000 A 
ATOM     18  C   UNL     1      24.695   9.142 171.758  0.00  0.00    +0.000 A 
ATOM     19  F   UNL     1      24.877   8.166 172.660  0.00  0.00    +0.000 F 
ATOM     20  C   UNL     1      23.521   9.211 171.021  0.00  0.00    +0.000 A 
ATOM     21  C   UNL     1      23.366  10.233 170.094  0.00  0.00    +0.000 A 
ATOM     22  F   UNL     1      22.236  10.311 169.377  0.00  0.00    +0.000 F 
ATOM     23  C   UNL     1      24.369  11.178 169.902  0.00  0.00    +0.000 A 
BRANCH  20  24
ATOM     24  O   UNL     1      22.536   8.283 171.210  0.00  0.00    +0.000 OA
ATOM     25  H   UNL     1      22.951   7.467 171.548  0.00  0.00    +0.000 HD
ENDBRANCH  20  24
ENDBRANCH  14  16
BRANCH   2  26
ATOM     26  C   UNL     1      26.251  10.978 165.671  0.00  0.00    +0.000 C 
ATOM     27  C   UNL     1      25.140   9.926 165.570  0.00  0.00    +0.000 C 
BRANCH  27  28
ATOM     28  C   UNL     1      24.114   8.960 165.477  0.00  0.00    +0.000 C 
ATOM     29  C   UNL     1      23.718   8.419 164.137  0.00  0.00    +0.000 C 
ATOM     30  C   UNL     1      23.390   8.518 166.712  0.00  0.00    +0.000 C 
ENDBRANCH  27  28
ENDBRANCH   2  26
TORSDOF 4
ENDMDL
MODEL 8
REMARK VINA RESULT:      -6.0      8.674     11.000
REMARK  Name = 25023738_BI-D-1870.pdbqt.pdb
REMARK  4 active torsions:
REMARK  status: ('A' for Active; 'I' for Inactive)
REMARK    1  A    between atoms: N_2  and  C_26
REMARK    2  A    between atoms: N_14  and  C_16
REMARK    3  A    between atoms: C_20  and  O_24
REMARK    4  A    between atoms: C_27  and  C_28
REMARK                            x       y       z     vdW  Elec       q    Type
REMARK                         _______ _______ _______ _____ _____    ______ ____
ROOT
ATOM      1  O   UNL     1      31.236   4.688 197.076  0.00  0.00    +0.000 OA
ATOM      2  N   UNL     1      30.859   4.013 193.542  0.00  0.00    +0.000 N 
ATOM      3  N   UNL     1      32.058   5.895 195.261  0.00  0.00    +0.000 N 
ATOM      4  N   UNL     1      31.678   5.216 191.651  0.00  0.00    +0.000 NA
ATOM      5  N   UNL     1      32.951   7.170 191.883  0.00  0.00    +0.000 NA
ATOM      6  C   UNL     1      30.722   3.841 194.902  0.00  0.00    +0.000 C 
ATOM      7  C   UNL     1      31.576   5.097 192.995  0.00  0.00    +0.000 A 
ATOM      8  C   UNL     1      31.350   4.829 195.855  0.00  0.00    +0.000 C 
ATOM      9  C   UNL     1      32.157   6.009 193.848  0.00  0.00    +0.000 A 
ATOM     10  C   UNL     1      29.935   2.654 195.446  0.00  0.00    +0.000 C 
ATOM     11  C   UNL     1      32.732   6.946 196.018  0.00  0.00    +0.000 C 
ATOM     12  C   UNL     1      32.835   7.029 193.216  0.00  0.00    +0.000 A 
ATOM     13  C   UNL     1      32.360   6.246 191.129  0.00  0.00    +0.000 A 
ATOM     14  N   UNL     1      32.488   6.402 189.755  0.00  0.00    +0.000 N 
ATOM     15  H   UNL     1      33.031   7.227 189.533  0.00  0.00    +0.000 HD
ENDROOT
BRANCH  14  16
ATOM     16  C   UNL     1      32.010   5.636 188.686  0.00  0.00    +0.000 A 
ATOM     17  C   UNL     1      30.808   6.005 188.065  0.00  0.00    +0.000 A 
ATOM     18  C   UNL     1      30.301   5.266 186.997  0.00  0.00    +0.000 A 
ATOM     19  F   UNL     1      29.148   5.651 186.430  0.00  0.00    +0.000 F 
ATOM     20  C   UNL     1      30.979   4.148 186.529  0.00  0.00    +0.000 A 
ATOM     21  C   UNL     1      32.168   3.777 187.140  0.00  0.00    +0.000 A 
ATOM     22  F   UNL     1      32.832   2.699 186.696  0.00  0.00    +0.000 F 
ATOM     23  C   UNL     1      32.682   4.510 188.205  0.00  0.00    +0.000 A 
BRANCH  20  24
ATOM     24  O   UNL     1      30.475   3.429 185.483  0.00  0.00    +0.000 OA
ATOM     25  H   UNL     1      30.693   3.903 184.658  0.00  0.00    +0.000 HD
ENDBRANCH  20  24
ENDBRANCH  14  16
BRANCH   2  26
ATOM     26  C   UNL     1      30.250   3.061 192.616  0.00  0.00    +0.000 C 
ATOM     27  C   UNL     1      29.613   2.057 191.647  0.00  0.00    +0.000 C 
BRANCH  27  28
ATOM     28  C   UNL     1      29.024   1.137 190.752  0.00  0.00    +0.000 C 
ATOM     29  C   UNL     1      29.380   1.179 189.297  0.00  0.00    +0.000 C 
ATOM     30  C   UNL     1      28.007   0.157 191.251  0.00  0.00    +0.000 C 
ENDBRANCH  27  28
ENDBRANCH   2  26
TORSDOF 4
ENDMDL
MODEL 9
REMARK VINA RESULT:      -5.9     10.603     13.527
REMARK  Name = 25023738_BI-D-1870.pdbqt.pdb
REMARK  4 active torsions:
REMARK  status: ('A' for Active; 'I' for Inactive)
REMARK    1  A    between atoms: N_2  and  C_26
REMARK    2  A    between atoms: N_14  and  C_16
REMARK    3  A    between atoms: C_20  and  O_24
REMARK    4  A    between atoms: C_27  and  C_28
REMARK                            x       y       z     vdW  Elec       q    Type
REMARK                         _______ _______ _______ _____ _____    ______ ____
ROOT
ATOM      1  O   UNL     1      37.932   4.661 194.920  0.00  0.00    +0.000 OA
ATOM      2  N   UNL     1      35.481   3.483 192.534  0.00  0.00    +0.000 N 
ATOM      3  N   UNL     1      36.802   5.860 193.273  0.00  0.00    +0.000 N 
ATOM      4  N   UNL     1      34.298   4.667 190.834  0.00  0.00    +0.000 NA
ATOM      5  N   UNL     1      34.616   6.961 190.472  0.00  0.00    +0.000 NA
ATOM      6  C   UNL     1      36.388   3.436 193.570  0.00  0.00    +0.000 C 
ATOM      7  C   UNL     1      35.199   4.679 191.843  0.00  0.00    +0.000 A 
ATOM      8  C   UNL     1      37.115   4.688 193.994  0.00  0.00    +0.000 C 
ATOM      9  C   UNL     1      35.852   5.834 192.215  0.00  0.00    +0.000 A 
ATOM     10  C   UNL     1      36.658   2.118 194.288  0.00  0.00    +0.000 C 
ATOM     11  C   UNL     1      37.401   7.164 193.538  0.00  0.00    +0.000 C 
ATOM     12  C   UNL     1      35.509   6.947 191.479  0.00  0.00    +0.000 A 
ATOM     13  C   UNL     1      34.029   5.803 190.175  0.00  0.00    +0.000 A 
ATOM     14  N   UNL     1      33.111   5.832 189.133  0.00  0.00    +0.000 N 
ATOM     15  H   UNL     1      33.029   6.764 188.748  0.00  0.00    +0.000 HD
ENDROOT
BRANCH  14  16
ATOM     16  C   UNL     1      32.326   4.824 188.562  0.00  0.00    +0.000 A 
ATOM     17  C   UNL     1      32.803   4.143 187.434  0.00  0.00    +0.000 A 
ATOM     18  C   UNL     1      32.048   3.133 186.839  0.00  0.00    +0.000 A 
ATOM     19  F   UNL     1      32.540   2.505 185.761  0.00  0.00    +0.000 F 
ATOM     20  C   UNL     1      30.807   2.785 187.353  0.00  0.00    +0.000 A 
ATOM     21  C   UNL     1      30.327   3.456 188.468  0.00  0.00    +0.000 A 
ATOM     22  F   UNL     1      29.129   3.129 188.975  0.00  0.00    +0.000 F 
ATOM     23  C   UNL     1      31.075   4.464 189.070  0.00  0.00    +0.000 A 
BRANCH  20  24
ATOM     24  O   UNL     1      30.072   1.795 186.763  0.00  0.00    +0.000 OA
ATOM     25  H   UNL     1      29.239   1.699 187.263  0.00  0.00    +0.000 HD
ENDBRANCH  20  24
ENDBRANCH  14  16
BRANCH   2  26
ATOM     26  C   UNL     1      34.773   2.273 192.122  0.00  0.00    +0.000 C 
ATOM     27  C   UNL     1      34.034   1.001 191.690  0.00  0.00    +0.000 C 
BRANCH  27  28
ATOM     28  C   UNL     1      33.349  -0.169 191.292  0.00  0.00    +0.000 C 
ATOM     29  C   UNL     1      31.959  -0.068 190.741  0.00  0.00    +0.000 C 
ATOM     30  C   UNL     1      33.994  -1.508 191.469  0.00  0.00    +0.000 C 
ENDBRANCH  27  28
ENDBRANCH   2  26
TORSDOF 4
ENDMDL
