MODEL 1
REMARK VINA RESULT:      -6.2      0.000      0.000
REMARK  Name = 26879_Levamisole.pdbqt.pdb
REMARK  1 active torsions:
REMARK  status: ('A' for Active; 'I' for Inactive)
REMARK    1  A    between atoms: C_5  and  C_9
REMARK                            x       y       z     vdW  Elec       q    Type
REMARK                         _______ _______ _______ _____ _____    ______ ____
ROOT
ATOM      1  S   UNL     1      22.760   4.762 185.512  0.00  0.00    +0.000 S 
ATOM      2  N   UNL     1      21.910   5.796 187.989  0.00  0.00    +0.000 NA
ATOM      3  N   UNL     1      20.595   4.031 186.941  0.00  0.00    +0.000 NA
ATOM      4  C   UNL     1      21.205   4.938 188.890  0.00  0.00    +0.000 C 
ATOM      5  C   UNL     1      20.359   3.999 188.277  0.00  0.00    +0.000 C 
ATOM      6  C   UNL     1      23.339   5.628 187.928  0.00  0.00    +0.000 C 
ATOM      7  C   UNL     1      21.519   5.022 186.761  0.00  0.00    +0.000 C 
ATOM      8  C   UNL     1      23.946   5.151 186.644  0.00  0.00    +0.000 C 
ENDROOT
BRANCH   5   9
ATOM      9  C   UNL     1      19.426   3.081 188.912  0.00  0.00    +0.000 A 
ATOM     10  C   UNL     1      18.434   2.424 188.178  0.00  0.00    +0.000 A 
ATOM     11  C   UNL     1      19.505   2.843 190.287  0.00  0.00    +0.000 A 
ATOM     12  C   UNL     1      17.545   1.549 188.800  0.00  0.00    +0.000 A 
ATOM     13  C   UNL     1      18.619   1.969 190.914  0.00  0.00    +0.000 A 
ATOM     14  C   UNL     1      17.639   1.322 190.170  0.00  0.00    +0.000 A 
ENDBRANCH   5   9
TORSDOF 1
ENDMDL
MODEL 2
REMARK VINA RESULT:      -6.2      3.966      5.898
REMARK  Name = 26879_Levamisole.pdbqt.pdb
REMARK  1 active torsions:
REMARK  status: ('A' for Active; 'I' for Inactive)
REMARK    1  A    between atoms: C_5  and  C_9
REMARK                            x       y       z     vdW  Elec       q    Type
REMARK                         _______ _______ _______ _____ _____    ______ ____
ROOT
ATOM      1  S   UNL     1      22.320  -0.414 192.813  0.00  0.00    +0.000 S 
ATOM      2  N   UNL     1      19.607   0.164 192.333  0.00  0.00    +0.000 NA
ATOM      3  N   UNL     1      21.301   1.272 190.974  0.00  0.00    +0.000 NA
ATOM      4  C   UNL     1      19.199   0.513 191.007  0.00  0.00    +0.000 C 
ATOM      5  C   UNL     1      20.140   1.253 190.272  0.00  0.00    +0.000 C 
ATOM      6  C   UNL     1      19.831  -1.236 192.588  0.00  0.00    +0.000 C 
ATOM      7  C   UNL     1      21.029   0.609 192.138  0.00  0.00    +0.000 C 
ATOM      8  C   UNL     1      21.218  -1.684 192.930  0.00  0.00    +0.000 C 
ENDROOT
BRANCH   5   9
ATOM      9  C   UNL     1      19.978   1.857 188.959  0.00  0.00    +0.000 A 
ATOM     10  C   UNL     1      21.040   1.929 188.052  0.00  0.00    +0.000 A 
ATOM     11  C   UNL     1      18.742   2.388 188.579  0.00  0.00    +0.000 A 
ATOM     12  C   UNL     1      20.873   2.513 186.797  0.00  0.00    +0.000 A 
ATOM     13  C   UNL     1      18.569   2.973 187.326  0.00  0.00    +0.000 A 
ATOM     14  C   UNL     1      19.635   3.035 186.435  0.00  0.00    +0.000 A 
ENDBRANCH   5   9
TORSDOF 1
ENDMDL
MODEL 3
REMARK VINA RESULT:      -6.0      1.719      2.128
REMARK  Name = 26879_Levamisole.pdbqt.pdb
REMARK  1 active torsions:
REMARK  status: ('A' for Active; 'I' for Inactive)
REMARK    1  A    between atoms: C_5  and  C_9
REMARK                            x       y       z     vdW  Elec       q    Type
REMARK                         _______ _______ _______ _____ _____    ______ ____
ROOT
ATOM      1  S   UNL     1      23.383   4.526 186.595  0.00  0.00    +0.000 S 
ATOM      2  N   UNL     1      21.406   2.706 185.754  0.00  0.00    +0.000 NA
ATOM      3  N   UNL     1      21.772   3.020 188.144  0.00  0.00    +0.000 NA
ATOM      4  C   UNL     1      20.259   2.502 186.584  0.00  0.00    +0.000 C 
ATOM      5  C   UNL     1      20.505   2.569 187.965  0.00  0.00    +0.000 C 
ATOM      6  C   UNL     1      21.417   3.908 184.960  0.00  0.00    +0.000 C 
ATOM      7  C   UNL     1      22.289   3.152 186.885  0.00  0.00    +0.000 C 
ATOM      8  C   UNL     1      22.463   4.941 185.245  0.00  0.00    +0.000 C 
ENDROOT
BRANCH   5   9
ATOM      9  C   UNL     1      19.585   2.286 189.056  0.00  0.00    +0.000 A 
ATOM     10  C   UNL     1      18.368   1.633 188.835  0.00  0.00    +0.000 A 
ATOM     11  C   UNL     1      19.905   2.673 190.360  0.00  0.00    +0.000 A 
ATOM     12  C   UNL     1      17.495   1.370 189.888  0.00  0.00    +0.000 A 
ATOM     13  C   UNL     1      19.036   2.413 191.418  0.00  0.00    +0.000 A 
ATOM     14  C   UNL     1      17.830   1.761 191.181  0.00  0.00    +0.000 A 
ENDBRANCH   5   9
TORSDOF 1
ENDMDL
MODEL 4
REMARK VINA RESULT:      -5.9      3.938      4.351
REMARK  Name = 26879_Levamisole.pdbqt.pdb
REMARK  1 active torsions:
REMARK  status: ('A' for Active; 'I' for Inactive)
REMARK    1  A    between atoms: C_5  and  C_9
REMARK                            x       y       z     vdW  Elec       q    Type
REMARK                         _______ _______ _______ _____ _____    ______ ____
ROOT
ATOM      1  S   UNL     1      25.066   0.883 190.900  0.00  0.00    +0.000 S 
ATOM      2  N   UNL     1      24.666   0.693 188.120  0.00  0.00    +0.000 NA
ATOM      3  N   UNL     1      22.728   0.995 189.567  0.00  0.00    +0.000 NA
ATOM      4  C   UNL     1      23.564   1.388 187.532  0.00  0.00    +0.000 C 
ATOM      5  C   UNL     1      22.410   1.455 188.330  0.00  0.00    +0.000 C 
ATOM      6  C   UNL     1      25.822   1.487 188.454  0.00  0.00    +0.000 C 
ATOM      7  C   UNL     1      24.033   0.599 189.480  0.00  0.00    +0.000 C 
ATOM      8  C   UNL     1      26.202   1.620 189.896  0.00  0.00    +0.000 C 
ENDROOT
BRANCH   5   9
ATOM      9  C   UNL     1      21.100   1.978 187.973  0.00  0.00    +0.000 A 
ATOM     10  C   UNL     1      20.850   2.521 186.709  0.00  0.00    +0.000 A 
ATOM     11  C   UNL     1      20.057   1.949 188.903  0.00  0.00    +0.000 A 
ATOM     12  C   UNL     1      19.591   3.021 186.380  0.00  0.00    +0.000 A 
ATOM     13  C   UNL     1      18.797   2.448 188.580  0.00  0.00    +0.000 A 
ATOM     14  C   UNL     1      18.564   2.983 187.318  0.00  0.00    +0.000 A 
ENDBRANCH   5   9
TORSDOF 1
ENDMDL
MODEL 5
REMARK VINA RESULT:      -5.7      4.150      5.228
REMARK  Name = 26879_Levamisole.pdbqt.pdb
REMARK  1 active torsions:
REMARK  status: ('A' for Active; 'I' for Inactive)
REMARK    1  A    between atoms: C_5  and  C_9
REMARK                            x       y       z     vdW  Elec       q    Type
REMARK                         _______ _______ _______ _____ _____    ______ ____
ROOT
ATOM      1  S   UNL     1      21.827   1.020 193.117  0.00  0.00    +0.000 S 
ATOM      2  N   UNL     1      23.180   0.244 190.773  0.00  0.00    +0.000 NA
ATOM      3  N   UNL     1      20.953   1.214 190.576  0.00  0.00    +0.000 NA
ATOM      4  C   UNL     1      22.928   0.959 189.561  0.00  0.00    +0.000 C 
ATOM      5  C   UNL     1      21.608   1.414 189.404  0.00  0.00    +0.000 C 
ATOM      6  C   UNL     1      24.055   0.881 191.725  0.00  0.00    +0.000 C 
ATOM      7  C   UNL     1      21.854   0.588 191.391  0.00  0.00    +0.000 C 
ATOM      8  C   UNL     1      23.491   1.286 193.051  0.00  0.00    +0.000 C 
ENDROOT
BRANCH   5   9
ATOM      9  C   UNL     1      21.012   2.056 188.243  0.00  0.00    +0.000 A 
ATOM     10  C   UNL     1      21.753   2.302 187.083  0.00  0.00    +0.000 A 
ATOM     11  C   UNL     1      19.670   2.446 188.270  0.00  0.00    +0.000 A 
ATOM     12  C   UNL     1      21.171   2.921 185.978  0.00  0.00    +0.000 A 
ATOM     13  C   UNL     1      19.082   3.065 187.169  0.00  0.00    +0.000 A 
ATOM     14  C   UNL     1      19.833   3.302 186.023  0.00  0.00    +0.000 A 
ENDBRANCH   5   9
TORSDOF 1
ENDMDL
MODEL 6
REMARK VINA RESULT:      -5.5      4.564      6.280
REMARK  Name = 26879_Levamisole.pdbqt.pdb
REMARK  1 active torsions:
REMARK  status: ('A' for Active; 'I' for Inactive)
REMARK    1  A    between atoms: C_5  and  C_9
REMARK                            x       y       z     vdW  Elec       q    Type
REMARK                         _______ _______ _______ _____ _____    ______ ____
ROOT
ATOM      1  S   UNL     1      19.059   0.595 195.109  0.00  0.00    +0.000 S 
ATOM      2  N   UNL     1      21.076   0.260 193.174  0.00  0.00    +0.000 NA
ATOM      3  N   UNL     1      18.874   1.017 192.454  0.00  0.00    +0.000 NA
ATOM      4  C   UNL     1      21.063   1.092 192.012  0.00  0.00    +0.000 C 
ATOM      5  C   UNL     1      19.785   1.427 191.536  0.00  0.00    +0.000 C 
ATOM      6  C   UNL     1      21.575   0.858 194.386  0.00  0.00    +0.000 C 
ATOM      7  C   UNL     1      19.600   0.388 193.427  0.00  0.00    +0.000 C 
ATOM      8  C   UNL     1      20.630   1.034 195.534  0.00  0.00    +0.000 C 
ENDROOT
BRANCH   5   9
ATOM      9  C   UNL     1      19.439   2.146 190.319  0.00  0.00    +0.000 A 
ATOM     10  C   UNL     1      20.024   3.377 190.006  0.00  0.00    +0.000 A 
ATOM     11  C   UNL     1      18.500   1.611 189.432  0.00  0.00    +0.000 A 
ATOM     12  C   UNL     1      19.682   4.056 188.838  0.00  0.00    +0.000 A 
ATOM     13  C   UNL     1      18.154   2.286 188.263  0.00  0.00    +0.000 A 
ATOM     14  C   UNL     1      18.746   3.509 187.967  0.00  0.00    +0.000 A 
ENDBRANCH   5   9
TORSDOF 1
ENDMDL
MODEL 7
REMARK VINA RESULT:      -5.2      4.168      5.735
REMARK  Name = 26879_Levamisole.pdbqt.pdb
REMARK  1 active torsions:
REMARK  status: ('A' for Active; 'I' for Inactive)
REMARK    1  A    between atoms: C_5  and  C_9
REMARK                            x       y       z     vdW  Elec       q    Type
REMARK                         _______ _______ _______ _____ _____    ______ ____
ROOT
ATOM      1  S   UNL     1      24.150   0.864 193.208  0.00  0.00    +0.000 S 
ATOM      2  N   UNL     1      21.844   0.283 191.700  0.00  0.00    +0.000 NA
ATOM      3  N   UNL     1      22.603   2.596 191.840  0.00  0.00    +0.000 NA
ATOM      4  C   UNL     1      21.536   1.100 190.568  0.00  0.00    +0.000 C 
ATOM      5  C   UNL     1      21.872   2.457 190.705  0.00  0.00    +0.000 C 
ATOM      6  C   UNL     1      22.880  -0.702 191.518  0.00  0.00    +0.000 C 
ATOM      7  C   UNL     1      22.640   1.349 192.400  0.00  0.00    +0.000 C 
ATOM      8  C   UNL     1      24.141  -0.564 192.312  0.00  0.00    +0.000 C 
ENDROOT
BRANCH   5   9
ATOM      9  C   UNL     1      21.578   3.552 189.793  0.00  0.00    +0.000 A 
ATOM     10  C   UNL     1      22.598   4.281 189.174  0.00  0.00    +0.000 A 
ATOM     11  C   UNL     1      20.252   3.900 189.522  0.00  0.00    +0.000 A 
ATOM     12  C   UNL     1      22.302   5.330 188.305  0.00  0.00    +0.000 A 
ATOM     13  C   UNL     1      19.950   4.947 188.654  0.00  0.00    +0.000 A 
ATOM     14  C   UNL     1      20.976   5.662 188.045  0.00  0.00    +0.000 A 
ENDBRANCH   5   9
TORSDOF 1
ENDMDL
MODEL 8
REMARK VINA RESULT:      -5.0      4.088      5.088
REMARK  Name = 26879_Levamisole.pdbqt.pdb
REMARK  1 active torsions:
REMARK  status: ('A' for Active; 'I' for Inactive)
REMARK    1  A    between atoms: C_5  and  C_9
REMARK                            x       y       z     vdW  Elec       q    Type
REMARK                         _______ _______ _______ _____ _____    ______ ____
ROOT
ATOM      1  S   UNL     1      25.144   1.786 191.910  0.00  0.00    +0.000 S 
ATOM      2  N   UNL     1      22.616   0.592 191.582  0.00  0.00    +0.000 NA
ATOM      3  N   UNL     1      23.056   2.727 190.491  0.00  0.00    +0.000 NA
ATOM      4  C   UNL     1      21.897   0.821 190.367  0.00  0.00    +0.000 C 
ATOM      5  C   UNL     1      22.067   2.098 189.808  0.00  0.00    +0.000 C 
ATOM      6  C   UNL     1      23.687  -0.370 191.523  0.00  0.00    +0.000 C 
ATOM      7  C   UNL     1      23.419   1.859 191.483  0.00  0.00    +0.000 C 
ATOM      8  C   UNL     1      25.087   0.108 191.752  0.00  0.00    +0.000 C 
ENDROOT
BRANCH   5   9
ATOM      9  C   UNL     1      21.384   2.673 188.659  0.00  0.00    +0.000 A 
ATOM     10  C   UNL     1      20.964   1.881 187.586  0.00  0.00    +0.000 A 
ATOM     11  C   UNL     1      21.137   4.048 188.608  0.00  0.00    +0.000 A 
ATOM     12  C   UNL     1      20.313   2.446 186.491  0.00  0.00    +0.000 A 
ATOM     13  C   UNL     1      20.487   4.618 187.515  0.00  0.00    +0.000 A 
ATOM     14  C   UNL     1      20.075   3.816 186.457  0.00  0.00    +0.000 A 
ENDBRANCH   5   9
TORSDOF 1
ENDMDL
MODEL 9
REMARK VINA RESULT:      -4.8      5.760      7.632
REMARK  Name = 26879_Levamisole.pdbqt.pdb
REMARK  1 active torsions:
REMARK  status: ('A' for Active; 'I' for Inactive)
REMARK    1  A    between atoms: C_5  and  C_9
REMARK                            x       y       z     vdW  Elec       q    Type
REMARK                         _______ _______ _______ _____ _____    ______ ____
ROOT
ATOM      1  S   UNL     1      19.543  -0.999 196.173  0.00  0.00    +0.000 S 
ATOM      2  N   UNL     1      20.851  -2.078 193.926  0.00  0.00    +0.000 NA
ATOM      3  N   UNL     1      19.118  -0.399 193.581  0.00  0.00    +0.000 NA
ATOM      4  C   UNL     1      21.009  -1.263 192.761  0.00  0.00    +0.000 C 
ATOM      5  C   UNL     1      19.947  -0.380 192.507  0.00  0.00    +0.000 C 
ATOM      6  C   UNL     1      21.758  -1.822 195.016  0.00  0.00    +0.000 C 
ATOM      7  C   UNL     1      19.647  -1.332 194.428  0.00  0.00    +0.000 C 
ATOM      8  C   UNL     1      21.194  -1.312 196.306  0.00  0.00    +0.000 C 
ENDROOT
BRANCH   5   9
ATOM      9  C   UNL     1      19.753   0.481 191.349  0.00  0.00    +0.000 A 
ATOM     10  C   UNL     1      20.822   1.158 190.755  0.00  0.00    +0.000 A 
ATOM     11  C   UNL     1      18.475   0.649 190.809  0.00  0.00    +0.000 A 
ATOM     12  C   UNL     1      20.622   1.981 189.648  0.00  0.00    +0.000 A 
ATOM     13  C   UNL     1      18.269   1.471 189.703  0.00  0.00    +0.000 A 
ATOM     14  C   UNL     1      19.343   2.137 189.122  0.00  0.00    +0.000 A 
ENDBRANCH   5   9
TORSDOF 1
ENDMDL
