MODEL 1
REMARK VINA RESULT:      -4.8      0.000      0.000
REMARK  Name = 27924_Phorbol.pdbqt.pdb
REMARK  26 active torsions:
REMARK  status: ('A' for Active; 'I' for Inactive)
REMARK    1  A    between atoms: O_1  and  C_10
REMARK    2  A    between atoms: O_1  and  C_26
REMARK    3  A    between atoms: O_2  and  C_13
REMARK    4  A    between atoms: O_2  and  C_28
REMARK    5  A    between atoms: O_3  and  C_14
REMARK    6  A    between atoms: O_4  and  C_20
REMARK    7  A    between atoms: O_7  and  C_29
REMARK    8  A    between atoms: C_11  and  C_16
REMARK    9  A    between atoms: C_11  and  C_17
REMARK   10  A    between atoms: C_15  and  C_21
REMARK   11  A    between atoms: C_22  and  C_29
REMARK   12  A    between atoms: C_26  and  C_30
REMARK   13  A    between atoms: C_27  and  C_31
REMARK   14  A    between atoms: C_28  and  C_32
REMARK   15  A    between atoms: C_32  and  C_33
REMARK   16  A    between atoms: C_33  and  C_34
REMARK   17  A    between atoms: C_34  and  C_35
REMARK   18  A    between atoms: C_35  and  C_36
REMARK   19  A    between atoms: C_36  and  C_37
REMARK   20  A    between atoms: C_37  and  C_38
REMARK   21  A    between atoms: C_38  and  C_39
REMARK   22  A    between atoms: C_39  and  C_40
REMARK   23  A    between atoms: C_40  and  C_41
REMARK   24  A    between atoms: C_41  and  C_42
REMARK   25  A    between atoms: C_42  and  C_43
REMARK   26  A    between atoms: C_43  and  C_44
REMARK                            x       y       z     vdW  Elec       q    Type
REMARK                         _______ _______ _______ _____ _____    ______ ____
ROOT
ATOM      1  O   UNL     1      34.929   7.611 195.128  0.00  0.00    +0.000 OA
ATOM      2  C   UNL     1      33.943   2.993 189.831  0.00  0.00    +0.000 C 
ATOM      3  C   UNL     1      32.624   2.252 189.711  0.00  0.00    +0.000 C 
ATOM      4  C   UNL     1      33.914   1.517 190.177  0.00  0.00    +0.000 C 
ATOM      5  C   UNL     1      34.067   4.204 190.706  0.00  0.00    +0.000 C 
ATOM      6  C   UNL     1      31.488   2.683 190.658  0.00  0.00    +0.000 C 
ATOM      7  C   UNL     1      32.932   4.464 191.800  0.00  0.00    +0.000 C 
ATOM      8  C   UNL     1      31.585   4.207 191.016  0.00  0.00    +0.000 C 
ATOM      9  C   UNL     1      34.672   0.633 189.201  0.00  0.00    +0.000 C 
ATOM     10  C   UNL     1      34.100   1.047 191.599  0.00  0.00    +0.000 C 
ATOM     11  C   UNL     1      33.178   5.911 192.466  0.00  0.00    +0.000 C 
ATOM     12  C   UNL     1      35.471   4.425 191.236  0.00  0.00    +0.000 C 
ATOM     13  C   UNL     1      34.520   6.043 193.314  0.00  0.00    +0.000 C 
ATOM     14  C   UNL     1      30.306   4.670 191.714  0.00  0.00    +0.000 C 
ATOM     15  C   UNL     1      35.916   5.700 191.232  0.00  0.00    +0.000 C 
ATOM     16  C   UNL     1      35.788   6.463 192.539  0.00  0.00    +0.000 C 
ATOM     17  C   UNL     1      32.175   6.460 193.473  0.00  0.00    +0.000 C 
ATOM     18  C   UNL     1      34.143   7.054 194.376  0.00  0.00    +0.000 C 
ATOM     19  C   UNL     1      32.685   7.157 194.497  0.00  0.00    +0.000 C 
ATOM     20  C   UNL     1      32.016   7.892 195.591  0.00  0.00    +0.000 C 
ENDROOT
BRANCH   7  21
ATOM     21  O   UNL     1      32.968   3.495 192.857  0.00  0.00    +0.000 OA
ATOM     22  H   UNL     1      32.353   2.766 192.618  0.00  0.00    +0.000 HD
ENDBRANCH   7  21
BRANCH  13  23
ATOM     23  O   UNL     1      34.785   4.840 194.076  0.00  0.00    +0.000 OA
ATOM     24  H   UNL     1      34.268   4.127 193.647  0.00  0.00    +0.000 HD
ENDBRANCH  13  23
BRANCH   3  25
ATOM     25  O   UNL     1      32.238   2.166 188.315  0.00  0.00    +0.000 OA
BRANCH  25  27
ATOM     26  O   UNL     1      33.377   2.781 186.481  0.00  0.00    +0.000 OA
ATOM     27  C   UNL     1      32.569   3.072 187.360  0.00  0.00    +0.000 C 
ATOM     28  C   UNL     1      31.871   4.399 187.351  0.00  0.00    +0.000 C 
ENDBRANCH  25  27
ENDBRANCH   3  25
BRANCH  15  29
ATOM     29  C   UNL     1      35.972   6.556 189.995  0.00  0.00    +0.000 C 
BRANCH  29  30
ATOM     30  O   UNL     1      35.552   7.865 190.342  0.00  0.00    +0.000 OA
ATOM     31  H   UNL     1      35.298   8.306 189.512  0.00  0.00    +0.000 HD
ENDBRANCH  29  30
ENDBRANCH  15  29
BRANCH   6  32
ATOM     32  O   UNL     1      30.225   2.409 189.993  0.00  0.00    +0.000 OA
BRANCH  32  34
ATOM     33  O   UNL     1      29.250   0.483 189.408  0.00  0.00    +0.000 OA
ATOM     34  C   UNL     1      29.411   1.360 190.253  0.00  0.00    +0.000 C 
BRANCH  34  35
ATOM     35  C   UNL     1      28.708   1.281 191.585  0.00  0.00    +0.000 C 
BRANCH  35  36
ATOM     36  C   UNL     1      27.926  -0.019 191.733  0.00  0.00    +0.000 C 
BRANCH  36  37
ATOM     37  C   UNL     1      26.405   0.149 191.639  0.00  0.00    +0.000 C 
BRANCH  37  38
ATOM     38  C   UNL     1      25.601  -0.970 192.314  0.00  0.00    +0.000 C 
BRANCH  38  39
ATOM     39  C   UNL     1      26.495  -2.094 192.848  0.00  0.00    +0.000 C 
BRANCH  39  40
ATOM     40  C   UNL     1      26.474  -2.219 194.374  0.00  0.00    +0.000 C 
BRANCH  40  41
ATOM     41  C   UNL     1      25.355  -1.405 195.028  0.00  0.00    +0.000 C 
BRANCH  41  42
ATOM     42  C   UNL     1      25.863  -0.402 196.067  0.00  0.00    +0.000 C 
BRANCH  42  43
ATOM     43  C   UNL     1      26.829   0.666 195.545  0.00  0.00    +0.000 C 
BRANCH  43  44
ATOM     44  C   UNL     1      28.257   0.591 196.097  0.00  0.00    +0.000 C 
BRANCH  44  45
ATOM     45  C   UNL     1      29.339   0.216 195.081  0.00  0.00    +0.000 C 
BRANCH  45  46
ATOM     46  C   UNL     1      29.969  -1.167 195.260  0.00  0.00    +0.000 C 
ATOM     47  C   UNL     1      30.132  -1.931 193.955  0.00  0.00    +0.000 C 
ENDBRANCH  45  46
ENDBRANCH  44  45
ENDBRANCH  43  44
ENDBRANCH  42  43
ENDBRANCH  41  42
ENDBRANCH  40  41
ENDBRANCH  39  40
ENDBRANCH  38  39
ENDBRANCH  37  38
ENDBRANCH  36  37
ENDBRANCH  35  36
ENDBRANCH  34  35
ENDBRANCH  32  34
ENDBRANCH   6  32
TORSDOF 20
ENDMDL
MODEL 2
REMARK VINA RESULT:      -4.5     30.075     35.870
REMARK  Name = 27924_Phorbol.pdbqt.pdb
REMARK  26 active torsions:
REMARK  status: ('A' for Active; 'I' for Inactive)
REMARK    1  A    between atoms: O_1  and  C_10
REMARK    2  A    between atoms: O_1  and  C_26
REMARK    3  A    between atoms: O_2  and  C_13
REMARK    4  A    between atoms: O_2  and  C_28
REMARK    5  A    between atoms: O_3  and  C_14
REMARK    6  A    between atoms: O_4  and  C_20
REMARK    7  A    between atoms: O_7  and  C_29
REMARK    8  A    between atoms: C_11  and  C_16
REMARK    9  A    between atoms: C_11  and  C_17
REMARK   10  A    between atoms: C_15  and  C_21
REMARK   11  A    between atoms: C_22  and  C_29
REMARK   12  A    between atoms: C_26  and  C_30
REMARK   13  A    between atoms: C_27  and  C_31
REMARK   14  A    between atoms: C_28  and  C_32
REMARK   15  A    between atoms: C_32  and  C_33
REMARK   16  A    between atoms: C_33  and  C_34
REMARK   17  A    between atoms: C_34  and  C_35
REMARK   18  A    between atoms: C_35  and  C_36
REMARK   19  A    between atoms: C_36  and  C_37
REMARK   20  A    between atoms: C_37  and  C_38
REMARK   21  A    between atoms: C_38  and  C_39
REMARK   22  A    between atoms: C_39  and  C_40
REMARK   23  A    between atoms: C_40  and  C_41
REMARK   24  A    between atoms: C_41  and  C_42
REMARK   25  A    between atoms: C_42  and  C_43
REMARK   26  A    between atoms: C_43  and  C_44
REMARK                            x       y       z     vdW  Elec       q    Type
REMARK                         _______ _______ _______ _____ _____    ______ ____
ROOT
ATOM      1  O   UNL     1      10.245 -25.607 173.154  0.00  0.00    +0.000 OA
ATOM      2  C   UNL     1      12.755 -23.828 179.549  0.00  0.00    +0.000 C 
ATOM      3  C   UNL     1      13.184 -22.398 179.821  0.00  0.00    +0.000 C 
ATOM      4  C   UNL     1      14.237 -23.534 179.670  0.00  0.00    +0.000 C 
ATOM      5  C   UNL     1      11.914 -24.164 178.354  0.00  0.00    +0.000 C 
ATOM      6  C   UNL     1      12.880 -21.355 178.730  0.00  0.00    +0.000 C 
ATOM      7  C   UNL     1      11.816 -23.090 177.175  0.00  0.00    +0.000 C 
ATOM      8  C   UNL     1      11.581 -21.722 177.929  0.00  0.00    +0.000 C 
ATOM      9  C   UNL     1      14.891 -24.125 180.908  0.00  0.00    +0.000 C 
ATOM     10  C   UNL     1      15.149 -23.627 178.471  0.00  0.00    +0.000 C 
ATOM     11  C   UNL     1      10.710 -23.589 176.113  0.00  0.00    +0.000 C 
ATOM     12  C   UNL     1      12.113 -25.583 177.856  0.00  0.00    +0.000 C 
ATOM     13  C   UNL     1      11.080 -24.930 175.336  0.00  0.00    +0.000 C 
ATOM     14  C   UNL     1      11.146 -20.544 177.057  0.00  0.00    +0.000 C 
ATOM     15  C   UNL     1      10.995 -26.250 177.494  0.00  0.00    +0.000 C 
ATOM     16  C   UNL     1      10.664 -26.255 176.012  0.00  0.00    +0.000 C 
ATOM     17  C   UNL     1      10.337 -22.697 174.936  0.00  0.00    +0.000 C 
ATOM     18  C   UNL     1      10.399 -24.737 173.999  0.00  0.00    +0.000 C 
ATOM     19  C   UNL     1      10.090 -23.320 173.776  0.00  0.00    +0.000 C 
ATOM     20  C   UNL     1       9.627 -22.790 172.476  0.00  0.00    +0.000 C 
ENDROOT
BRANCH   7  21
ATOM     21  O   UNL     1      13.055 -22.948 176.469  0.00  0.00    +0.000 OA
ATOM     22  H   UNL     1      13.028 -22.096 175.980  0.00  0.00    +0.000 HD
ENDBRANCH   7  21
BRANCH  13  23
ATOM     23  O   UNL     1      12.487 -24.973 174.993  0.00  0.00    +0.000 OA
ATOM     24  H   UNL     1      12.654 -24.183 174.437  0.00  0.00    +0.000 HD
ENDBRANCH  13  23
BRANCH   3  25
ATOM     25  O   UNL     1      12.766 -22.008 181.155  0.00  0.00    +0.000 OA
BRANCH  25  27
ATOM     26  O   UNL     1      10.525 -21.987 181.297  0.00  0.00    +0.000 OA
ATOM     27  C   UNL     1      11.601 -22.380 181.743  0.00  0.00    +0.000 C 
ATOM     28  C   UNL     1      11.648 -23.342 182.892  0.00  0.00    +0.000 C 
ENDBRANCH  25  27
ENDBRANCH   3  25
BRANCH  15  29
ATOM     29  C   UNL     1       9.821 -26.463 178.412  0.00  0.00    +0.000 C 
BRANCH  29  30
ATOM     30  O   UNL     1       8.660 -25.963 177.770  0.00  0.00    +0.000 OA
ATOM     31  H   UNL     1       8.042 -26.710 177.688  0.00  0.00    +0.000 HD
ENDBRANCH  29  30
ENDBRANCH  15  29
BRANCH   6  32
ATOM     32  O   UNL     1      12.713 -20.065 179.380  0.00  0.00    +0.000 OA
BRANCH  32  34
ATOM     33  O   UNL     1      13.319 -17.959 178.932  0.00  0.00    +0.000 OA
ATOM     34  C   UNL     1      13.621 -19.062 179.381  0.00  0.00    +0.000 C 
BRANCH  34  35
ATOM     35  C   UNL     1      15.001 -19.314 179.937  0.00  0.00    +0.000 C 
BRANCH  35  36
ATOM     36  C   UNL     1      16.079 -18.641 179.095  0.00  0.00    +0.000 C 
BRANCH  36  37
ATOM     37  C   UNL     1      17.029 -19.619 178.395  0.00  0.00    +0.000 C 
BRANCH  37  38
ATOM     38  C   UNL     1      16.376 -20.456 177.288  0.00  0.00    +0.000 C 
BRANCH  38  39
ATOM     39  C   UNL     1      15.958 -19.608 176.082  0.00  0.00    +0.000 C 
BRANCH  39  40
ATOM     40  C   UNL     1      14.449 -19.616 175.822  0.00  0.00    +0.000 C 
BRANCH  40  41
ATOM     41  C   UNL     1      14.092 -19.399 174.349  0.00  0.00    +0.000 C 
BRANCH  41  42
ATOM     42  C   UNL     1      14.674 -20.469 173.421  0.00  0.00    +0.000 C 
BRANCH  42  43
ATOM     43  C   UNL     1      15.433 -19.948 172.196  0.00  0.00    +0.000 C 
BRANCH  43  44
ATOM     44  C   UNL     1      16.851 -20.498 172.014  0.00  0.00    +0.000 C 
BRANCH  44  45
ATOM     45  C   UNL     1      16.988 -21.663 171.030  0.00  0.00    +0.000 C 
BRANCH  45  46
ATOM     46  C   UNL     1      18.365 -22.328 170.972  0.00  0.00    +0.000 C 
ATOM     47  C   UNL     1      18.534 -23.268 169.789  0.00  0.00    +0.000 C 
ENDBRANCH  45  46
ENDBRANCH  44  45
ENDBRANCH  43  44
ENDBRANCH  42  43
ENDBRANCH  41  42
ENDBRANCH  40  41
ENDBRANCH  39  40
ENDBRANCH  38  39
ENDBRANCH  37  38
ENDBRANCH  36  37
ENDBRANCH  35  36
ENDBRANCH  34  35
ENDBRANCH  32  34
ENDBRANCH   6  32
TORSDOF 20
ENDMDL
MODEL 3
REMARK VINA RESULT:      -4.5     28.112     34.156
REMARK  Name = 27924_Phorbol.pdbqt.pdb
REMARK  26 active torsions:
REMARK  status: ('A' for Active; 'I' for Inactive)
REMARK    1  A    between atoms: O_1  and  C_10
REMARK    2  A    between atoms: O_1  and  C_26
REMARK    3  A    between atoms: O_2  and  C_13
REMARK    4  A    between atoms: O_2  and  C_28
REMARK    5  A    between atoms: O_3  and  C_14
REMARK    6  A    between atoms: O_4  and  C_20
REMARK    7  A    between atoms: O_7  and  C_29
REMARK    8  A    between atoms: C_11  and  C_16
REMARK    9  A    between atoms: C_11  and  C_17
REMARK   10  A    between atoms: C_15  and  C_21
REMARK   11  A    between atoms: C_22  and  C_29
REMARK   12  A    between atoms: C_26  and  C_30
REMARK   13  A    between atoms: C_27  and  C_31
REMARK   14  A    between atoms: C_28  and  C_32
REMARK   15  A    between atoms: C_32  and  C_33
REMARK   16  A    between atoms: C_33  and  C_34
REMARK   17  A    between atoms: C_34  and  C_35
REMARK   18  A    between atoms: C_35  and  C_36
REMARK   19  A    between atoms: C_36  and  C_37
REMARK   20  A    between atoms: C_37  and  C_38
REMARK   21  A    between atoms: C_38  and  C_39
REMARK   22  A    between atoms: C_39  and  C_40
REMARK   23  A    between atoms: C_40  and  C_41
REMARK   24  A    between atoms: C_41  and  C_42
REMARK   25  A    between atoms: C_42  and  C_43
REMARK   26  A    between atoms: C_43  and  C_44
REMARK                            x       y       z     vdW  Elec       q    Type
REMARK                         _______ _______ _______ _____ _____    ______ ____
ROOT
ATOM      1  O   UNL     1      11.501 -25.699 172.152  0.00  0.00    +0.000 OA
ATOM      2  C   UNL     1      13.425 -23.140 178.485  0.00  0.00    +0.000 C 
ATOM      3  C   UNL     1      14.321 -21.918 178.565  0.00  0.00    +0.000 C 
ATOM      4  C   UNL     1      14.866 -23.332 178.917  0.00  0.00    +0.000 C 
ATOM      5  C   UNL     1      12.727 -23.498 177.208  0.00  0.00    +0.000 C 
ATOM      6  C   UNL     1      14.623 -21.181 177.247  0.00  0.00    +0.000 C 
ATOM      7  C   UNL     1      13.241 -22.827 175.852  0.00  0.00    +0.000 C 
ATOM      8  C   UNL     1      13.432 -21.305 176.233  0.00  0.00    +0.000 C 
ATOM      9  C   UNL     1      15.032 -23.735 180.372  0.00  0.00    +0.000 C 
ATOM     10  C   UNL     1      15.853 -24.053 178.033  0.00  0.00    +0.000 C 
ATOM     11  C   UNL     1      12.217 -23.207 174.667  0.00  0.00    +0.000 C 
ATOM     12  C   UNL     1      12.442 -24.982 177.071  0.00  0.00    +0.000 C 
ATOM     13  C   UNL     1      12.165 -24.755 174.294  0.00  0.00    +0.000 C 
ATOM     14  C   UNL     1      13.630 -20.344 175.061  0.00  0.00    +0.000 C 
ATOM     15  C   UNL     1      11.230 -25.314 176.577  0.00  0.00    +0.000 C 
ATOM     16  C   UNL     1      11.168 -25.624 175.092  0.00  0.00    +0.000 C 
ATOM     17  C   UNL     1      12.413 -22.609 173.279  0.00  0.00    +0.000 C 
ATOM     18  C   UNL     1      11.837 -24.729 172.816  0.00  0.00    +0.000 C 
ATOM     19  C   UNL     1      12.138 -23.412 172.244  0.00  0.00    +0.000 C 
ATOM     20  C   UNL     1      12.131 -23.144 170.790  0.00  0.00    +0.000 C 
ENDROOT
BRANCH   7  21
ATOM     21  O   UNL     1      14.537 -23.307 175.470  0.00  0.00    +0.000 OA
ATOM     22  H   UNL     1      15.059 -22.540 175.145  0.00  0.00    +0.000 HD
ENDBRANCH   7  21
BRANCH  13  23
ATOM     23  O   UNL     1      13.483 -25.356 174.334  0.00  0.00    +0.000 OA
ATOM     24  H   UNL     1      14.114 -24.616 174.455  0.00  0.00    +0.000 HD
ENDBRANCH  13  23
BRANCH   3  25
ATOM     25  O   UNL     1      13.874 -21.055 179.643  0.00  0.00    +0.000 OA
BRANCH  25  27
ATOM     26  O   UNL     1      12.083 -21.420 180.947  0.00  0.00    +0.000 OA
ATOM     27  C   UNL     1      12.577 -20.843 179.981  0.00  0.00    +0.000 C 
ATOM     28  C   UNL     1      11.785 -19.832 179.206  0.00  0.00    +0.000 C 
ENDBRANCH  25  27
ENDBRANCH   3  25
BRANCH  15  29
ATOM     29  C   UNL     1       9.931 -24.861 177.190  0.00  0.00    +0.000 C 
BRANCH  29  30
ATOM     30  O   UNL     1       9.343 -23.903 176.326  0.00  0.00    +0.000 OA
ATOM     31  H   UNL     1       9.951 -23.143 176.296  0.00  0.00    +0.000 HD
ENDBRANCH  29  30
ENDBRANCH  15  29
BRANCH   6  32
ATOM     32  O   UNL     1      14.861 -19.782 177.562  0.00  0.00    +0.000 OA
BRANCH  32  34
ATOM     33  O   UNL     1      17.086 -19.562 177.489  0.00  0.00    +0.000 OA
ATOM     34  C   UNL     1      16.022 -19.268 178.029  0.00  0.00    +0.000 C 
BRANCH  34  35
ATOM     35  C   UNL     1      15.995 -18.336 179.214  0.00  0.00    +0.000 C 
BRANCH  35  36
ATOM     36  C   UNL     1      14.745 -17.464 179.217  0.00  0.00    +0.000 C 
BRANCH  36  37
ATOM     37  C   UNL     1      15.027 -15.962 179.341  0.00  0.00    +0.000 C 
BRANCH  37  38
ATOM     38  C   UNL     1      13.773 -15.093 179.508  0.00  0.00    +0.000 C 
BRANCH  38  39
ATOM     39  C   UNL     1      12.966 -15.461 180.757  0.00  0.00    +0.000 C 
BRANCH  39  40
ATOM     40  C   UNL     1      11.764 -14.545 181.001  0.00  0.00    +0.000 C 
BRANCH  40  41
ATOM     41  C   UNL     1      12.043 -13.452 182.036  0.00  0.00    +0.000 C 
BRANCH  41  42
ATOM     42  C   UNL     1      12.051 -12.041 181.440  0.00  0.00    +0.000 C 
BRANCH  42  43
ATOM     43  C   UNL     1      11.757 -11.950 179.940  0.00  0.00    +0.000 C 
BRANCH  43  44
ATOM     44  C   UNL     1      12.912 -11.445 179.069  0.00  0.00    +0.000 C 
BRANCH  44  45
ATOM     45  C   UNL     1      12.588 -10.253 178.164  0.00  0.00    +0.000 C 
BRANCH  45  46
ATOM     46  C   UNL     1      11.884 -10.589 176.848  0.00  0.00    +0.000 C 
ATOM     47  C   UNL     1      12.609 -10.058 175.621  0.00  0.00    +0.000 C 
ENDBRANCH  45  46
ENDBRANCH  44  45
ENDBRANCH  43  44
ENDBRANCH  42  43
ENDBRANCH  41  42
ENDBRANCH  40  41
ENDBRANCH  39  40
ENDBRANCH  38  39
ENDBRANCH  37  38
ENDBRANCH  36  37
ENDBRANCH  35  36
ENDBRANCH  34  35
ENDBRANCH  32  34
ENDBRANCH   6  32
TORSDOF 20
ENDMDL
MODEL 4
REMARK VINA RESULT:      -4.3     24.538     29.276
REMARK  Name = 27924_Phorbol.pdbqt.pdb
REMARK  26 active torsions:
REMARK  status: ('A' for Active; 'I' for Inactive)
REMARK    1  A    between atoms: O_1  and  C_10
REMARK    2  A    between atoms: O_1  and  C_26
REMARK    3  A    between atoms: O_2  and  C_13
REMARK    4  A    between atoms: O_2  and  C_28
REMARK    5  A    between atoms: O_3  and  C_14
REMARK    6  A    between atoms: O_4  and  C_20
REMARK    7  A    between atoms: O_7  and  C_29
REMARK    8  A    between atoms: C_11  and  C_16
REMARK    9  A    between atoms: C_11  and  C_17
REMARK   10  A    between atoms: C_15  and  C_21
REMARK   11  A    between atoms: C_22  and  C_29
REMARK   12  A    between atoms: C_26  and  C_30
REMARK   13  A    between atoms: C_27  and  C_31
REMARK   14  A    between atoms: C_28  and  C_32
REMARK   15  A    between atoms: C_32  and  C_33
REMARK   16  A    between atoms: C_33  and  C_34
REMARK   17  A    between atoms: C_34  and  C_35
REMARK   18  A    between atoms: C_35  and  C_36
REMARK   19  A    between atoms: C_36  and  C_37
REMARK   20  A    between atoms: C_37  and  C_38
REMARK   21  A    between atoms: C_38  and  C_39
REMARK   22  A    between atoms: C_39  and  C_40
REMARK   23  A    between atoms: C_40  and  C_41
REMARK   24  A    between atoms: C_41  and  C_42
REMARK   25  A    between atoms: C_42  and  C_43
REMARK   26  A    between atoms: C_43  and  C_44
REMARK                            x       y       z     vdW  Elec       q    Type
REMARK                         _______ _______ _______ _____ _____    ______ ____
ROOT
ATOM      1  O   UNL     1      34.388   7.163 162.828  0.00  0.00    +0.000 OA
ATOM      2  C   UNL     1      27.877   8.629 160.418  0.00  0.00    +0.000 C 
ATOM      3  C   UNL     1      26.727   8.785 161.396  0.00  0.00    +0.000 C 
ATOM      4  C   UNL     1      26.835   7.530 160.483  0.00  0.00    +0.000 C 
ATOM      5  C   UNL     1      29.299   8.664 160.892  0.00  0.00    +0.000 C 
ATOM      6  C   UNL     1      27.077   8.793 162.895  0.00  0.00    +0.000 C 
ATOM      7  C   UNL     1      29.579   8.466 162.452  0.00  0.00    +0.000 C 
ATOM      8  C   UNL     1      28.505   9.392 163.149  0.00  0.00    +0.000 C 
ATOM      9  C   UNL     1      25.964   7.422 159.243  0.00  0.00    +0.000 C 
ATOM     10  C   UNL     1      27.176   6.166 161.032  0.00  0.00    +0.000 C 
ATOM     11  C   UNL     1      31.142   8.742 162.736  0.00  0.00    +0.000 C 
ATOM     12  C   UNL     1      30.249   7.878 160.008  0.00  0.00    +0.000 C 
ATOM     13  C   UNL     1      32.142   7.700 162.065  0.00  0.00    +0.000 C 
ATOM     14  C   UNL     1      28.714   9.650 164.642  0.00  0.00    +0.000 C 
ATOM     15  C   UNL     1      31.443   8.456 159.753  0.00  0.00    +0.000 C 
ATOM     16  C   UNL     1      32.605   8.017 160.626  0.00  0.00    +0.000 C 
ATOM     17  C   UNL     1      31.664   8.725 164.166  0.00  0.00    +0.000 C 
ATOM     18  C   UNL     1      33.299   7.675 163.040  0.00  0.00    +0.000 C 
ATOM     19  C   UNL     1      32.886   8.205 164.344  0.00  0.00    +0.000 C 
ATOM     20  C   UNL     1      33.725   8.107 165.557  0.00  0.00    +0.000 C 
ENDROOT
BRANCH   7  21
ATOM     21  O   UNL     1      29.294   7.130 162.887  0.00  0.00    +0.000 OA
ATOM     22  H   UNL     1      28.880   7.183 163.777  0.00  0.00    +0.000 HD
ENDBRANCH   7  21
BRANCH  13  23
ATOM     23  O   UNL     1      31.621   6.350 162.128  0.00  0.00    +0.000 OA
ATOM     24  H   UNL     1      31.198   6.181 161.260  0.00  0.00    +0.000 HD
ENDBRANCH  13  23
BRANCH   3  25
ATOM     25  O   UNL     1      25.874   9.881 160.975  0.00  0.00    +0.000 OA
BRANCH  25  27
ATOM     26  O   UNL     1      26.631  11.967 161.322  0.00  0.00    +0.000 OA
ATOM     27  C   UNL     1      26.318  11.083 160.527  0.00  0.00    +0.000 C 
ATOM     28  C   UNL     1      26.499  11.281 159.052  0.00  0.00    +0.000 C 
ENDBRANCH  25  27
ENDBRANCH   3  25
BRANCH  15  29
ATOM     29  C   UNL     1      31.588   9.821 159.135  0.00  0.00    +0.000 C 
BRANCH  29  30
ATOM     30  O   UNL     1      32.398  10.612 159.989  0.00  0.00    +0.000 OA
ATOM     31  H   UNL     1      32.372  11.519 159.638  0.00  0.00    +0.000 HD
ENDBRANCH  29  30
ENDBRANCH  15  29
BRANCH   6  32
ATOM     32  O   UNL     1      26.076   9.591 163.584  0.00  0.00    +0.000 OA
BRANCH  32  34
ATOM     33  O   UNL     1      24.205   8.381 163.777  0.00  0.00    +0.000 OA
ATOM     34  C   UNL     1      25.045   9.102 164.310  0.00  0.00    +0.000 C 
BRANCH  34  35
ATOM     35  C   UNL     1      24.939   9.451 165.774  0.00  0.00    +0.000 C 
BRANCH  35  36
ATOM     36  C   UNL     1      23.688   8.853 166.407  0.00  0.00    +0.000 C 
BRANCH  36  37
ATOM     37  C   UNL     1      23.541   9.145 167.904  0.00  0.00    +0.000 C 
BRANCH  37  38
ATOM     38  C   UNL     1      24.116   8.058 168.822  0.00  0.00    +0.000 C 
BRANCH  38  39
ATOM     39  C   UNL     1      23.719   8.259 170.288  0.00  0.00    +0.000 C 
BRANCH  39  40
ATOM     40  C   UNL     1      23.291   9.693 170.615  0.00  0.00    +0.000 C 
BRANCH  40  41
ATOM     41  C   UNL     1      24.240  10.395 171.590  0.00  0.00    +0.000 C 
BRANCH  41  42
ATOM     42  C   UNL     1      25.499   9.581 171.902  0.00  0.00    +0.000 C 
BRANCH  42  43
ATOM     43  C   UNL     1      26.790  10.071 171.240  0.00  0.00    +0.000 C 
BRANCH  43  44
ATOM     44  C   UNL     1      26.637  11.274 170.303  0.00  0.00    +0.000 C 
BRANCH  44  45
ATOM     45  C   UNL     1      26.610  10.948 168.807  0.00  0.00    +0.000 C 
BRANCH  45  46
ATOM     46  C   UNL     1      27.287  11.969 167.891  0.00  0.00    +0.000 C 
ATOM     47  C   UNL     1      27.409  13.352 168.512  0.00  0.00    +0.000 C 
ENDBRANCH  45  46
ENDBRANCH  44  45
ENDBRANCH  43  44
ENDBRANCH  42  43
ENDBRANCH  41  42
ENDBRANCH  40  41
ENDBRANCH  39  40
ENDBRANCH  38  39
ENDBRANCH  37  38
ENDBRANCH  36  37
ENDBRANCH  35  36
ENDBRANCH  34  35
ENDBRANCH  32  34
ENDBRANCH   6  32
TORSDOF 20
ENDMDL
MODEL 5
REMARK VINA RESULT:      -4.3     23.521     28.260
REMARK  Name = 27924_Phorbol.pdbqt.pdb
REMARK  26 active torsions:
REMARK  status: ('A' for Active; 'I' for Inactive)
REMARK    1  A    between atoms: O_1  and  C_10
REMARK    2  A    between atoms: O_1  and  C_26
REMARK    3  A    between atoms: O_2  and  C_13
REMARK    4  A    between atoms: O_2  and  C_28
REMARK    5  A    between atoms: O_3  and  C_14
REMARK    6  A    between atoms: O_4  and  C_20
REMARK    7  A    between atoms: O_7  and  C_29
REMARK    8  A    between atoms: C_11  and  C_16
REMARK    9  A    between atoms: C_11  and  C_17
REMARK   10  A    between atoms: C_15  and  C_21
REMARK   11  A    between atoms: C_22  and  C_29
REMARK   12  A    between atoms: C_26  and  C_30
REMARK   13  A    between atoms: C_27  and  C_31
REMARK   14  A    between atoms: C_28  and  C_32
REMARK   15  A    between atoms: C_32  and  C_33
REMARK   16  A    between atoms: C_33  and  C_34
REMARK   17  A    between atoms: C_34  and  C_35
REMARK   18  A    between atoms: C_35  and  C_36
REMARK   19  A    between atoms: C_36  and  C_37
REMARK   20  A    between atoms: C_37  and  C_38
REMARK   21  A    between atoms: C_38  and  C_39
REMARK   22  A    between atoms: C_39  and  C_40
REMARK   23  A    between atoms: C_40  and  C_41
REMARK   24  A    between atoms: C_41  and  C_42
REMARK   25  A    between atoms: C_42  and  C_43
REMARK   26  A    between atoms: C_43  and  C_44
REMARK                            x       y       z     vdW  Elec       q    Type
REMARK                         _______ _______ _______ _____ _____    ______ ____
ROOT
ATOM      1  O   UNL     1      29.712  11.684 163.878  0.00  0.00    +0.000 OA
ATOM      2  C   UNL     1      24.780  13.199 168.751  0.00  0.00    +0.000 C 
ATOM      3  C   UNL     1      23.582  12.285 168.922  0.00  0.00    +0.000 C 
ATOM      4  C   UNL     1      23.430  13.686 168.263  0.00  0.00    +0.000 C 
ATOM      5  C   UNL     1      25.992  12.744 167.995  0.00  0.00    +0.000 C 
ATOM      6  C   UNL     1      23.592  10.959 168.138  0.00  0.00    +0.000 C 
ATOM      7  C   UNL     1      25.855  11.466 167.047  0.00  0.00    +0.000 C 
ATOM      8  C   UNL     1      25.054  10.427 167.928  0.00  0.00    +0.000 C 
ATOM      9  C   UNL     1      22.855  14.839 169.067  0.00  0.00    +0.000 C 
ATOM     10  C   UNL     1      23.150  13.852 166.790  0.00  0.00    +0.000 C 
ATOM     11  C   UNL     1      27.320  11.060 166.511  0.00  0.00    +0.000 C 
ATOM     12  C   UNL     1      26.769  13.881 167.358  0.00  0.00    +0.000 C 
ATOM     13  C   UNL     1      28.007  12.132 165.555  0.00  0.00    +0.000 C 
ATOM     14  C   UNL     1      25.024   8.990 167.406  0.00  0.00    +0.000 C 
ATOM     15  C   UNL     1      28.115  13.809 167.447  0.00  0.00    +0.000 C 
ATOM     16  C   UNL     1      28.841  13.236 166.243  0.00  0.00    +0.000 C 
ATOM     17  C   UNL     1      27.493   9.804 165.665  0.00  0.00    +0.000 C 
ATOM     18  C   UNL     1      28.852  11.270 164.642  0.00  0.00    +0.000 C 
ATOM     19  C   UNL     1      28.390   9.878 164.673  0.00  0.00    +0.000 C 
ATOM     20  C   UNL     1      28.870   8.848 163.728  0.00  0.00    +0.000 C 
ENDROOT
BRANCH   7  21
ATOM     21  O   UNL     1      25.036  11.729 165.900  0.00  0.00    +0.000 OA
ATOM     22  H   UNL     1      25.545  11.470 165.100  0.00  0.00    +0.000 HD
ENDBRANCH   7  21
BRANCH  13  23
ATOM     23  O   UNL     1      27.046  12.733 164.653  0.00  0.00    +0.000 OA
ATOM     24  H   UNL     1      27.437  13.584 164.367  0.00  0.00    +0.000 HD
ENDBRANCH  13  23
BRANCH   3  25
ATOM     25  O   UNL     1      23.275  12.141 170.333  0.00  0.00    +0.000 OA
BRANCH  25  27
ATOM     26  O   UNL     1      24.374  13.090 172.046  0.00  0.00    +0.000 OA
ATOM     27  C   UNL     1      24.196  12.107 171.329  0.00  0.00    +0.000 C 
ATOM     28  C   UNL     1      24.930  10.826 171.590  0.00  0.00    +0.000 C 
ENDBRANCH  25  27
ENDBRANCH   3  25
BRANCH  15  29
ATOM     29  C   UNL     1      28.855  13.694 168.754  0.00  0.00    +0.000 C 
BRANCH  29  30
ATOM     30  O   UNL     1      29.198  15.001 169.185  0.00  0.00    +0.000 OA
ATOM     31  H   UNL     1      28.460  15.316 169.737  0.00  0.00    +0.000 HD
ENDBRANCH  29  30
ENDBRANCH  15  29
BRANCH   6  32
ATOM     32  O   UNL     1      22.814   9.989 168.890  0.00  0.00    +0.000 OA
BRANCH  32  34
ATOM     33  O   UNL     1      20.631   9.799 169.338  0.00  0.00    +0.000 OA
ATOM     34  C   UNL     1      21.568   9.568 168.576  0.00  0.00    +0.000 C 
BRANCH  34  35
ATOM     35  C   UNL     1      21.342   8.817 167.288  0.00  0.00    +0.000 C 
BRANCH  35  36
ATOM     36  C   UNL     1      19.886   8.393 167.131  0.00  0.00    +0.000 C 
BRANCH  36  37
ATOM     37  C   UNL     1      19.681   7.181 166.215  0.00  0.00    +0.000 C 
BRANCH  37  38
ATOM     38  C   UNL     1      19.687   7.510 164.716  0.00  0.00    +0.000 C 
BRANCH  38  39
ATOM     39  C   UNL     1      20.960   7.025 164.014  0.00  0.00    +0.000 C 
BRANCH  39  40
ATOM     40  C   UNL     1      21.935   8.153 163.668  0.00  0.00    +0.000 C 
BRANCH  40  41
ATOM     41  C   UNL     1      23.249   8.071 164.450  0.00  0.00    +0.000 C 
BRANCH  41  42
ATOM     42  C   UNL     1      24.397   8.838 163.788  0.00  0.00    +0.000 C 
BRANCH  42  43
ATOM     43  C   UNL     1      24.645   8.522 162.310  0.00  0.00    +0.000 C 
BRANCH  43  44
ATOM     44  C   UNL     1      25.938   9.093 161.719  0.00  0.00    +0.000 C 
BRANCH  44  45
ATOM     45  C   UNL     1      26.067  10.619 161.762  0.00  0.00    +0.000 C 
BRANCH  45  46
ATOM     46  C   UNL     1      24.832  11.404 161.315  0.00  0.00    +0.000 C 
ATOM     47  C   UNL     1      24.248  12.287 162.406  0.00  0.00    +0.000 C 
ENDBRANCH  45  46
ENDBRANCH  44  45
ENDBRANCH  43  44
ENDBRANCH  42  43
ENDBRANCH  41  42
ENDBRANCH  40  41
ENDBRANCH  39  40
ENDBRANCH  38  39
ENDBRANCH  37  38
ENDBRANCH  36  37
ENDBRANCH  35  36
ENDBRANCH  34  35
ENDBRANCH  32  34
ENDBRANCH   6  32
TORSDOF 20
ENDMDL
MODEL 6
REMARK VINA RESULT:      -4.2     27.470     32.815
REMARK  Name = 27924_Phorbol.pdbqt.pdb
REMARK  26 active torsions:
REMARK  status: ('A' for Active; 'I' for Inactive)
REMARK    1  A    between atoms: O_1  and  C_10
REMARK    2  A    between atoms: O_1  and  C_26
REMARK    3  A    between atoms: O_2  and  C_13
REMARK    4  A    between atoms: O_2  and  C_28
REMARK    5  A    between atoms: O_3  and  C_14
REMARK    6  A    between atoms: O_4  and  C_20
REMARK    7  A    between atoms: O_7  and  C_29
REMARK    8  A    between atoms: C_11  and  C_16
REMARK    9  A    between atoms: C_11  and  C_17
REMARK   10  A    between atoms: C_15  and  C_21
REMARK   11  A    between atoms: C_22  and  C_29
REMARK   12  A    between atoms: C_26  and  C_30
REMARK   13  A    between atoms: C_27  and  C_31
REMARK   14  A    between atoms: C_28  and  C_32
REMARK   15  A    between atoms: C_32  and  C_33
REMARK   16  A    between atoms: C_33  and  C_34
REMARK   17  A    between atoms: C_34  and  C_35
REMARK   18  A    between atoms: C_35  and  C_36
REMARK   19  A    between atoms: C_36  and  C_37
REMARK   20  A    between atoms: C_37  and  C_38
REMARK   21  A    between atoms: C_38  and  C_39
REMARK   22  A    between atoms: C_39  and  C_40
REMARK   23  A    between atoms: C_40  and  C_41
REMARK   24  A    between atoms: C_41  and  C_42
REMARK   25  A    between atoms: C_42  and  C_43
REMARK   26  A    between atoms: C_43  and  C_44
REMARK                            x       y       z     vdW  Elec       q    Type
REMARK                         _______ _______ _______ _____ _____    ______ ____
ROOT
ATOM      1  O   UNL     1      10.684 -24.533 173.976  0.00  0.00    +0.000 OA
ATOM      2  C   UNL     1      14.595 -20.443 178.258  0.00  0.00    +0.000 C 
ATOM      3  C   UNL     1      14.419 -18.936 178.231  0.00  0.00    +0.000 C 
ATOM      4  C   UNL     1      15.688 -19.603 177.628  0.00  0.00    +0.000 C 
ATOM      5  C   UNL     1      13.572 -21.347 177.639  0.00  0.00    +0.000 C 
ATOM      6  C   UNL     1      13.255 -18.380 177.389  0.00  0.00    +0.000 C 
ATOM      7  C   UNL     1      12.520 -20.710 176.619  0.00  0.00    +0.000 C 
ATOM      8  C   UNL     1      12.050 -19.385 177.339  0.00  0.00    +0.000 C 
ATOM      9  C   UNL     1      16.991 -19.588 178.410  0.00  0.00    +0.000 C 
ATOM     10  C   UNL     1      15.943 -19.645 176.141  0.00  0.00    +0.000 C 
ATOM     11  C   UNL     1      11.415 -21.826 176.252  0.00  0.00    +0.000 C 
ATOM     12  C   UNL     1      14.144 -22.669 177.162  0.00  0.00    +0.000 C 
ATOM     13  C   UNL     1      11.970 -23.082 175.445  0.00  0.00    +0.000 C 
ATOM     14  C   UNL     1      10.816 -18.704 176.747  0.00  0.00    +0.000 C 
ATOM     15  C   UNL     1      13.401 -23.767 177.416  0.00  0.00    +0.000 C 
ATOM     16  C   UNL     1      12.513 -24.258 176.287  0.00  0.00    +0.000 C 
ATOM     17  C   UNL     1      10.228 -21.453 175.374  0.00  0.00    +0.000 C 
ATOM     18  C   UNL     1      10.779 -23.489 174.604  0.00  0.00    +0.000 C 
ATOM     19  C   UNL     1       9.815 -22.387 174.507  0.00  0.00    +0.000 C 
ATOM     20  C   UNL     1       8.664 -22.402 173.580  0.00  0.00    +0.000 C 
ENDROOT
BRANCH   7  21
ATOM     21  O   UNL     1      13.138 -20.299 175.392  0.00  0.00    +0.000 OA
ATOM     22  H   UNL     1      13.906 -19.729 175.618  0.00  0.00    +0.000 HD
ENDBRANCH   7  21
BRANCH  13  23
ATOM     23  O   UNL     1      12.956 -22.686 174.460  0.00  0.00    +0.000 OA
ATOM     24  H   UNL     1      12.460 -22.232 173.747  0.00  0.00    +0.000 HD
ENDBRANCH  13  23
BRANCH   3  25
ATOM     25  O   UNL     1      14.481 -18.413 179.583  0.00  0.00    +0.000 OA
BRANCH  25  27
ATOM     26  O   UNL     1      14.543 -19.807 181.342  0.00  0.00    +0.000 OA
ATOM     27  C   UNL     1      13.912 -18.996 180.668  0.00  0.00    +0.000 C 
ATOM     28  C   UNL     1      12.533 -18.571 181.076  0.00  0.00    +0.000 C 
ENDBRANCH  25  27
ENDBRANCH   3  25
BRANCH  15  29
ATOM     29  C   UNL     1      12.955 -24.166 178.799  0.00  0.00    +0.000 C 
BRANCH  29  30
ATOM     30  O   UNL     1      11.611 -24.612 178.720  0.00  0.00    +0.000 OA
ATOM     31  H   UNL     1      11.395 -25.003 179.585  0.00  0.00    +0.000 HD
ENDBRANCH  29  30
ENDBRANCH  15  29
BRANCH   6  32
ATOM     32  O   UNL     1      12.829 -17.126 177.988  0.00  0.00    +0.000 OA
BRANCH  32  34
ATOM     33  O   UNL     1      12.495 -15.495 176.495  0.00  0.00    +0.000 OA
ATOM     34  C   UNL     1      13.086 -15.893 177.496  0.00  0.00    +0.000 C 
BRANCH  34  35
ATOM     35  C   UNL     1      14.101 -15.016 178.186  0.00  0.00    +0.000 C 
BRANCH  35  36
ATOM     36  C   UNL     1      13.434 -13.956 179.053  0.00  0.00    +0.000 C 
BRANCH  36  37
ATOM     37  C   UNL     1      12.944 -14.472 180.411  0.00  0.00    +0.000 C 
BRANCH  37  38
ATOM     38  C   UNL     1      11.513 -14.051 180.771  0.00  0.00    +0.000 C 
BRANCH  38  39
ATOM     39  C   UNL     1      11.367 -13.677 182.250  0.00  0.00    +0.000 C 
BRANCH  39  40
ATOM     40  C   UNL     1      11.883 -12.273 182.579  0.00  0.00    +0.000 C 
BRANCH  40  41
ATOM     41  C   UNL     1      12.090 -11.403 181.337  0.00  0.00    +0.000 C 
BRANCH  41  42
ATOM     42  C   UNL     1      10.971 -10.380 181.120  0.00  0.00    +0.000 C 
BRANCH  42  43
ATOM     43  C   UNL     1      10.439 -10.268 179.689  0.00  0.00    +0.000 C 
BRANCH  43  44
ATOM     44  C   UNL     1      11.228 -11.040 178.627  0.00  0.00    +0.000 C 
BRANCH  44  45
ATOM     45  C   UNL     1      12.217 -10.210 177.804  0.00  0.00    +0.000 C 
BRANCH  45  46
ATOM     46  C   UNL     1      12.544 -10.754 176.411  0.00  0.00    +0.000 C 
ATOM     47  C   UNL     1      12.994  -9.681 175.432  0.00  0.00    +0.000 C 
ENDBRANCH  45  46
ENDBRANCH  44  45
ENDBRANCH  43  44
ENDBRANCH  42  43
ENDBRANCH  41  42
ENDBRANCH  40  41
ENDBRANCH  39  40
ENDBRANCH  38  39
ENDBRANCH  37  38
ENDBRANCH  36  37
ENDBRANCH  35  36
ENDBRANCH  34  35
ENDBRANCH  32  34
ENDBRANCH   6  32
TORSDOF 20
ENDMDL
MODEL 7
REMARK VINA RESULT:      -4.2     29.172     34.507
REMARK  Name = 27924_Phorbol.pdbqt.pdb
REMARK  26 active torsions:
REMARK  status: ('A' for Active; 'I' for Inactive)
REMARK    1  A    between atoms: O_1  and  C_10
REMARK    2  A    between atoms: O_1  and  C_26
REMARK    3  A    between atoms: O_2  and  C_13
REMARK    4  A    between atoms: O_2  and  C_28
REMARK    5  A    between atoms: O_3  and  C_14
REMARK    6  A    between atoms: O_4  and  C_20
REMARK    7  A    between atoms: O_7  and  C_29
REMARK    8  A    between atoms: C_11  and  C_16
REMARK    9  A    between atoms: C_11  and  C_17
REMARK   10  A    between atoms: C_15  and  C_21
REMARK   11  A    between atoms: C_22  and  C_29
REMARK   12  A    between atoms: C_26  and  C_30
REMARK   13  A    between atoms: C_27  and  C_31
REMARK   14  A    between atoms: C_28  and  C_32
REMARK   15  A    between atoms: C_32  and  C_33
REMARK   16  A    between atoms: C_33  and  C_34
REMARK   17  A    between atoms: C_34  and  C_35
REMARK   18  A    between atoms: C_35  and  C_36
REMARK   19  A    between atoms: C_36  and  C_37
REMARK   20  A    between atoms: C_37  and  C_38
REMARK   21  A    between atoms: C_38  and  C_39
REMARK   22  A    between atoms: C_39  and  C_40
REMARK   23  A    between atoms: C_40  and  C_41
REMARK   24  A    between atoms: C_41  and  C_42
REMARK   25  A    between atoms: C_42  and  C_43
REMARK   26  A    between atoms: C_43  and  C_44
REMARK                            x       y       z     vdW  Elec       q    Type
REMARK                         _______ _______ _______ _____ _____    ______ ____
ROOT
ATOM      1  O   UNL     1      13.722 -25.312 171.213  0.00  0.00    +0.000 OA
ATOM      2  C   UNL     1      11.898 -21.591 176.974  0.00  0.00    +0.000 C 
ATOM      3  C   UNL     1      12.882 -20.609 177.581  0.00  0.00    +0.000 C 
ATOM      4  C   UNL     1      12.559 -21.956 178.289  0.00  0.00    +0.000 C 
ATOM      5  C   UNL     1      12.104 -22.129 175.589  0.00  0.00    +0.000 C 
ATOM      6  C   UNL     1      14.178 -20.337 176.794  0.00  0.00    +0.000 C 
ATOM      7  C   UNL     1      13.549 -21.973 174.927  0.00  0.00    +0.000 C 
ATOM      8  C   UNL     1      13.953 -20.480 175.248  0.00  0.00    +0.000 C 
ATOM      9  C   UNL     1      11.613 -21.975 179.477  0.00  0.00    +0.000 C 
ATOM     10  C   UNL     1      13.562 -23.079 178.370  0.00  0.00    +0.000 C 
ATOM     11  C   UNL     1      13.464 -22.439 173.385  0.00  0.00    +0.000 C 
ATOM     12  C   UNL     1      11.492 -23.501 175.377  0.00  0.00    +0.000 C 
ATOM     13  C   UNL     1      13.141 -23.983 173.165  0.00  0.00    +0.000 C 
ATOM     14  C   UNL     1      15.161 -19.936 174.484  0.00  0.00    +0.000 C 
ATOM     15  C   UNL     1      10.852 -23.694 174.203  0.00  0.00    +0.000 C 
ATOM     16  C   UNL     1      11.648 -24.374 173.104  0.00  0.00    +0.000 C 
ATOM     17  C   UNL     1      14.683 -22.294 172.484  0.00  0.00    +0.000 C 
ATOM     18  C   UNL     1      13.861 -24.291 171.870  0.00  0.00    +0.000 C 
ATOM     19  C   UNL     1      14.879 -23.272 171.590  0.00  0.00    +0.000 C 
ATOM     20  C   UNL     1      15.889 -23.413 170.520  0.00  0.00    +0.000 C 
ENDROOT
BRANCH   7  21
ATOM     21  O   UNL     1      14.530 -22.799 175.569  0.00  0.00    +0.000 OA
ATOM     22  H   UNL     1      14.053 -23.475 176.100  0.00  0.00    +0.000 HD
ENDBRANCH   7  21
BRANCH  13  23
ATOM     23  O   UNL     1      13.827 -24.811 174.136  0.00  0.00    +0.000 OA
ATOM     24  H   UNL     1      14.372 -25.441 173.618  0.00  0.00    +0.000 HD
ENDBRANCH  13  23
BRANCH   3  25
ATOM     25  O   UNL     1      12.178 -19.412 178.004  0.00  0.00    +0.000 OA
BRANCH  25  27
ATOM     26  O   UNL     1       9.973 -19.017 177.842  0.00  0.00    +0.000 OA
ATOM     27  C   UNL     1      11.101 -18.880 177.372  0.00  0.00    +0.000 C 
ATOM     28  C   UNL     1      11.322 -18.054 176.140  0.00  0.00    +0.000 C 
ENDBRANCH  25  27
ENDBRANCH   3  25
BRANCH  15  29
ATOM     29  C   UNL     1       9.714 -22.830 173.727  0.00  0.00    +0.000 C 
BRANCH  29  30
ATOM     30  O   UNL     1       9.658 -22.910 172.313  0.00  0.00    +0.000 OA
ATOM     31  H   UNL     1      10.577 -22.866 171.994  0.00  0.00    +0.000 HD
ENDBRANCH  29  30
ENDBRANCH  15  29
BRANCH   6  32
ATOM     32  O   UNL     1      14.616 -18.987 177.108  0.00  0.00    +0.000 OA
BRANCH  32  34
ATOM     33  O   UNL     1      15.042 -17.689 178.879  0.00  0.00    +0.000 OA
ATOM     34  C   UNL     1      15.377 -18.635 178.170  0.00  0.00    +0.000 C 
BRANCH  34  35
ATOM     35  C   UNL     1      16.634 -19.413 178.471  0.00  0.00    +0.000 C 
BRANCH  35  36
ATOM     36  C   UNL     1      16.322 -20.768 179.095  0.00  0.00    +0.000 C 
BRANCH  36  37
ATOM     37  C   UNL     1      16.153 -20.734 180.618  0.00  0.00    +0.000 C 
BRANCH  37  38
ATOM     38  C   UNL     1      14.703 -20.562 181.091  0.00  0.00    +0.000 C 
BRANCH  38  39
ATOM     39  C   UNL     1      14.497 -21.036 182.534  0.00  0.00    +0.000 C 
BRANCH  39  40
ATOM     40  C   UNL     1      13.064 -21.485 182.831  0.00  0.00    +0.000 C 
BRANCH  40  41
ATOM     41  C   UNL     1      12.941 -22.995 183.052  0.00  0.00    +0.000 C 
BRANCH  41  42
ATOM     42  C   UNL     1      12.527 -23.366 184.479  0.00  0.00    +0.000 C 
BRANCH  42  43
ATOM     43  C   UNL     1      11.707 -22.313 185.231  0.00  0.00    +0.000 C 
BRANCH  43  44
ATOM     44  C   UNL     1      12.322 -21.808 186.540  0.00  0.00    +0.000 C 
BRANCH  44  45
ATOM     45  C   UNL     1      12.460 -20.287 186.662  0.00  0.00    +0.000 C 
BRANCH  45  46
ATOM     46  C   UNL     1      13.693 -19.676 185.993  0.00  0.00    +0.000 C 
ATOM     47  C   UNL     1      13.408 -18.361 185.284  0.00  0.00    +0.000 C 
ENDBRANCH  45  46
ENDBRANCH  44  45
ENDBRANCH  43  44
ENDBRANCH  42  43
ENDBRANCH  41  42
ENDBRANCH  40  41
ENDBRANCH  39  40
ENDBRANCH  38  39
ENDBRANCH  37  38
ENDBRANCH  36  37
ENDBRANCH  35  36
ENDBRANCH  34  35
ENDBRANCH  32  34
ENDBRANCH   6  32
TORSDOF 20
ENDMDL
MODEL 8
REMARK VINA RESULT:      -4.1     22.622     26.180
REMARK  Name = 27924_Phorbol.pdbqt.pdb
REMARK  26 active torsions:
REMARK  status: ('A' for Active; 'I' for Inactive)
REMARK    1  A    between atoms: O_1  and  C_10
REMARK    2  A    between atoms: O_1  and  C_26
REMARK    3  A    between atoms: O_2  and  C_13
REMARK    4  A    between atoms: O_2  and  C_28
REMARK    5  A    between atoms: O_3  and  C_14
REMARK    6  A    between atoms: O_4  and  C_20
REMARK    7  A    between atoms: O_7  and  C_29
REMARK    8  A    between atoms: C_11  and  C_16
REMARK    9  A    between atoms: C_11  and  C_17
REMARK   10  A    between atoms: C_15  and  C_21
REMARK   11  A    between atoms: C_22  and  C_29
REMARK   12  A    between atoms: C_26  and  C_30
REMARK   13  A    between atoms: C_27  and  C_31
REMARK   14  A    between atoms: C_28  and  C_32
REMARK   15  A    between atoms: C_32  and  C_33
REMARK   16  A    between atoms: C_33  and  C_34
REMARK   17  A    between atoms: C_34  and  C_35
REMARK   18  A    between atoms: C_35  and  C_36
REMARK   19  A    between atoms: C_36  and  C_37
REMARK   20  A    between atoms: C_37  and  C_38
REMARK   21  A    between atoms: C_38  and  C_39
REMARK   22  A    between atoms: C_39  and  C_40
REMARK   23  A    between atoms: C_40  and  C_41
REMARK   24  A    between atoms: C_41  and  C_42
REMARK   25  A    between atoms: C_42  and  C_43
REMARK   26  A    between atoms: C_43  and  C_44
REMARK                            x       y       z     vdW  Elec       q    Type
REMARK                         _______ _______ _______ _____ _____    ______ ____
ROOT
ATOM      1  O   UNL     1      22.884   8.102 167.764  0.00  0.00    +0.000 OA
ATOM      2  C   UNL     1      27.383  13.047 170.142  0.00  0.00    +0.000 C 
ATOM      3  C   UNL     1      26.976  14.509 170.127  0.00  0.00    +0.000 C 
ATOM      4  C   UNL     1      28.030  13.963 169.122  0.00  0.00    +0.000 C 
ATOM      5  C   UNL     1      26.361  11.963 169.979  0.00  0.00    +0.000 C 
ATOM      6  C   UNL     1      25.515  14.826 169.756  0.00  0.00    +0.000 C 
ATOM      7  C   UNL     1      24.927  12.359 169.398  0.00  0.00    +0.000 C 
ATOM      8  C   UNL     1      24.547  13.671 170.193  0.00  0.00    +0.000 C 
ATOM      9  C   UNL     1      29.508  14.222 169.365  0.00  0.00    +0.000 C 
ATOM     10  C   UNL     1      27.735  13.819 167.649  0.00  0.00    +0.000 C 
ATOM     11  C   UNL     1      23.953  11.078 169.507  0.00  0.00    +0.000 C 
ATOM     12  C   UNL     1      26.922  10.690 169.373  0.00  0.00    +0.000 C 
ATOM     13  C   UNL     1      24.369   9.838 168.598  0.00  0.00    +0.000 C 
ATOM     14  C   UNL     1      23.092  14.126 170.074  0.00  0.00    +0.000 C 
ATOM     15  C   UNL     1      26.503   9.531 169.924  0.00  0.00    +0.000 C 
ATOM     16  C   UNL     1      25.356   8.826 169.222  0.00  0.00    +0.000 C 
ATOM     17  C   UNL     1      22.486  11.209 169.118  0.00  0.00    +0.000 C 
ATOM     18  C   UNL     1      23.035   9.202 168.274  0.00  0.00    +0.000 C 
ATOM     19  C   UNL     1      21.941  10.153 168.500  0.00  0.00    +0.000 C 
ATOM     20  C   UNL     1      20.551   9.901 168.067  0.00  0.00    +0.000 C 
ENDROOT
BRANCH   7  21
ATOM     21  O   UNL     1      24.988  12.734 168.016  0.00  0.00    +0.000 OA
ATOM     22  H   UNL     1      25.891  13.080 167.837  0.00  0.00    +0.000 HD
ENDBRANCH   7  21
BRANCH  13  23
ATOM     23  O   UNL     1      24.859  10.269 167.305  0.00  0.00    +0.000 OA
ATOM     24  H   UNL     1      25.668   9.744 167.133  0.00  0.00    +0.000 HD
ENDBRANCH  13  23
BRANCH   3  25
ATOM     25  O   UNL     1      27.439  15.157 171.340  0.00  0.00    +0.000 OA
BRANCH  25  27
ATOM     26  O   UNL     1      28.276  17.043 170.456  0.00  0.00    +0.000 OA
ATOM     27  C   UNL     1      27.810  16.459 171.432  0.00  0.00    +0.000 C 
ATOM     28  C   UNL     1      27.567  17.190 172.718  0.00  0.00    +0.000 C 
ENDBRANCH  25  27
ENDBRANCH   3  25
BRANCH  15  29
ATOM     29  C   UNL     1      26.653   9.205 171.387  0.00  0.00    +0.000 C 
BRANCH  29  30
ATOM     30  O   UNL     1      25.363   9.193 171.974  0.00  0.00    +0.000 OA
ATOM     31  H   UNL     1      24.730   9.022 171.254  0.00  0.00    +0.000 HD
ENDBRANCH  29  30
ENDBRANCH  15  29
BRANCH   6  32
ATOM     32  O   UNL     1      25.143  16.063 170.424  0.00  0.00    +0.000 OA
BRANCH  32  34
ATOM     33  O   UNL     1      24.230  17.158 168.701  0.00  0.00    +0.000 OA
ATOM     34  C   UNL     1      24.761  17.205 169.808  0.00  0.00    +0.000 C 
BRANCH  34  35
ATOM     35  C   UNL     1      24.994  18.529 170.492  0.00  0.00    +0.000 C 
BRANCH  35  36
ATOM     36  C   UNL     1      23.907  18.832 171.516  0.00  0.00    +0.000 C 
BRANCH  36  37
ATOM     37  C   UNL     1      23.471  20.301 171.552  0.00  0.00    +0.000 C 
BRANCH  37  38
ATOM     38  C   UNL     1      22.016  20.520 171.988  0.00  0.00    +0.000 C 
BRANCH  38  39
ATOM     39  C   UNL     1      21.668  19.761 173.274  0.00  0.00    +0.000 C 
BRANCH  39  40
ATOM     40  C   UNL     1      20.727  18.575 173.048  0.00  0.00    +0.000 C 
BRANCH  40  41
ATOM     41  C   UNL     1      19.883  18.236 174.280  0.00  0.00    +0.000 C 
BRANCH  41  42
ATOM     42  C   UNL     1      19.394  16.785 174.297  0.00  0.00    +0.000 C 
BRANCH  42  43
ATOM     43  C   UNL     1      19.848  15.943 175.493  0.00  0.00    +0.000 C 
BRANCH  43  44
ATOM     44  C   UNL     1      18.939  15.998 176.724  0.00  0.00    +0.000 C 
BRANCH  44  45
ATOM     45  C   UNL     1      17.466  16.314 176.446  0.00  0.00    +0.000 C 
BRANCH  45  46
ATOM     46  C   UNL     1      16.460  15.722 177.436  0.00  0.00    +0.000 C 
ATOM     47  C   UNL     1      15.016  16.078 177.117  0.00  0.00    +0.000 C 
ENDBRANCH  45  46
ENDBRANCH  44  45
ENDBRANCH  43  44
ENDBRANCH  42  43
ENDBRANCH  41  42
ENDBRANCH  40  41
ENDBRANCH  39  40
ENDBRANCH  38  39
ENDBRANCH  37  38
ENDBRANCH  36  37
ENDBRANCH  35  36
ENDBRANCH  34  35
ENDBRANCH  32  34
ENDBRANCH   6  32
TORSDOF 20
ENDMDL
MODEL 9
REMARK VINA RESULT:      -4.1     16.693     21.407
REMARK  Name = 27924_Phorbol.pdbqt.pdb
REMARK  26 active torsions:
REMARK  status: ('A' for Active; 'I' for Inactive)
REMARK    1  A    between atoms: O_1  and  C_10
REMARK    2  A    between atoms: O_1  and  C_26
REMARK    3  A    between atoms: O_2  and  C_13
REMARK    4  A    between atoms: O_2  and  C_28
REMARK    5  A    between atoms: O_3  and  C_14
REMARK    6  A    between atoms: O_4  and  C_20
REMARK    7  A    between atoms: O_7  and  C_29
REMARK    8  A    between atoms: C_11  and  C_16
REMARK    9  A    between atoms: C_11  and  C_17
REMARK   10  A    between atoms: C_15  and  C_21
REMARK   11  A    between atoms: C_22  and  C_29
REMARK   12  A    between atoms: C_26  and  C_30
REMARK   13  A    between atoms: C_27  and  C_31
REMARK   14  A    between atoms: C_28  and  C_32
REMARK   15  A    between atoms: C_32  and  C_33
REMARK   16  A    between atoms: C_33  and  C_34
REMARK   17  A    between atoms: C_34  and  C_35
REMARK   18  A    between atoms: C_35  and  C_36
REMARK   19  A    between atoms: C_36  and  C_37
REMARK   20  A    between atoms: C_37  and  C_38
REMARK   21  A    between atoms: C_38  and  C_39
REMARK   22  A    between atoms: C_39  and  C_40
REMARK   23  A    between atoms: C_40  and  C_41
REMARK   24  A    between atoms: C_41  and  C_42
REMARK   25  A    between atoms: C_42  and  C_43
REMARK   26  A    between atoms: C_43  and  C_44
REMARK                            x       y       z     vdW  Elec       q    Type
REMARK                         _______ _______ _______ _____ _____    ______ ____
ROOT
ATOM      1  O   UNL     1      38.062  22.856 175.921  0.00  0.00    +0.000 OA
ATOM      2  C   UNL     1      32.963  20.836 180.425  0.00  0.00    +0.000 C 
ATOM      3  C   UNL     1      32.573  19.373 180.516  0.00  0.00    +0.000 C 
ATOM      4  C   UNL     1      31.631  20.411 179.840  0.00  0.00    +0.000 C 
ATOM      5  C   UNL     1      34.241  21.250 179.759  0.00  0.00    +0.000 C 
ATOM      6  C   UNL     1      33.442  18.365 179.742  0.00  0.00    +0.000 C 
ATOM      7  C   UNL     1      34.975  20.194 178.811  0.00  0.00    +0.000 C 
ATOM      8  C   UNL     1      34.931  18.849 179.639  0.00  0.00    +0.000 C 
ATOM      9  C   UNL     1      30.422  20.936 180.595  0.00  0.00    +0.000 C 
ATOM     10  C   UNL     1      31.396  20.427 178.349  0.00  0.00    +0.000 C 
ATOM     11  C   UNL     1      36.409  20.794 178.382  0.00  0.00    +0.000 C 
ATOM     12  C   UNL     1      34.191  22.648 179.171  0.00  0.00    +0.000 C 
ATOM     13  C   UNL     1      36.347  22.099 177.471  0.00  0.00    +0.000 C 
ATOM     14  C   UNL     1      35.822  17.718 179.124  0.00  0.00    +0.000 C 
ATOM     15  C   UNL     1      35.288  23.413 179.356  0.00  0.00    +0.000 C 
ATOM     16  C   UNL     1      36.283  23.454 178.210  0.00  0.00    +0.000 C 
ATOM     17  C   UNL     1      37.367  19.943 177.558  0.00  0.00    +0.000 C 
ATOM     18  C   UNL     1      37.595  21.973 176.625  0.00  0.00    +0.000 C 
ATOM     19  C   UNL     1      38.085  20.590 176.631  0.00  0.00    +0.000 C 
ATOM     20  C   UNL     1      39.152  20.108 175.728  0.00  0.00    +0.000 C 
ENDROOT
BRANCH   7  21
ATOM     21  O   UNL     1      34.237  19.945 177.607  0.00  0.00    +0.000 OA
ATOM     22  H   UNL     1      33.294  20.160 177.782  0.00  0.00    +0.000 HD
ENDBRANCH   7  21
BRANCH  13  23
ATOM     23  O   UNL     1      35.275  22.017 176.500  0.00  0.00    +0.000 OA
ATOM     24  H   UNL     1      35.228  21.078 176.225  0.00  0.00    +0.000 HD
ENDBRANCH  13  23
BRANCH   3  25
ATOM     25  O   UNL     1      32.336  19.016 181.903  0.00  0.00    +0.000 OA
BRANCH  25  27
ATOM     26  O   UNL     1      32.856  20.466 183.536  0.00  0.00    +0.000 OA
ATOM     27  C   UNL     1      33.103  19.415 182.949  0.00  0.00    +0.000 C 
ATOM     28  C   UNL     1      34.200  18.511 183.425  0.00  0.00    +0.000 C 
ENDBRANCH  25  27
ENDBRANCH   3  25
BRANCH  15  29
ATOM     29  C   UNL     1      35.863  23.726 180.713  0.00  0.00    +0.000 C 
BRANCH  29  30
ATOM     30  O   UNL     1      34.945  24.556 181.403  0.00  0.00    +0.000 OA
ATOM     31  H   UNL     1      34.584  25.180 180.748  0.00  0.00    +0.000 HD
ENDBRANCH  29  30
ENDBRANCH  15  29
BRANCH   6  32
ATOM     32  O   UNL     1      33.382  17.092 180.443  0.00  0.00    +0.000 OA
BRANCH  32  34
ATOM     33  O   UNL     1      32.032  16.044 179.001  0.00  0.00    +0.000 OA
ATOM     34  C   UNL     1      32.663  16.015 180.055  0.00  0.00    +0.000 C 
BRANCH  34  35
ATOM     35  C   UNL     1      32.644  14.784 180.928  0.00  0.00    +0.000 C 
BRANCH  35  36
ATOM     36  C   UNL     1      33.569  14.932 182.130  0.00  0.00    +0.000 C 
BRANCH  36  37
ATOM     37  C   UNL     1      34.860  14.112 182.035  0.00  0.00    +0.000 C 
BRANCH  37  38
ATOM     38  C   UNL     1      36.040  14.859 181.400  0.00  0.00    +0.000 C 
BRANCH  38  39
ATOM     39  C   UNL     1      36.668  14.083 180.237  0.00  0.00    +0.000 C 
BRANCH  39  40
ATOM     40  C   UNL     1      35.813  14.087 178.967  0.00  0.00    +0.000 C 
BRANCH  40  41
ATOM     41  C   UNL     1      35.223  12.713 178.637  0.00  0.00    +0.000 C 
BRANCH  41  42
ATOM     42  C   UNL     1      33.785  12.781 178.114  0.00  0.00    +0.000 C 
BRANCH  42  43
ATOM     43  C   UNL     1      33.630  12.781 176.591  0.00  0.00    +0.000 C 
BRANCH  43  44
ATOM     44  C   UNL     1      34.642  11.926 175.822  0.00  0.00    +0.000 C 
BRANCH  44  45
ATOM     45  C   UNL     1      35.316  12.610 174.629  0.00  0.00    +0.000 C 
BRANCH  45  46
ATOM     46  C   UNL     1      36.677  13.250 174.910  0.00  0.00    +0.000 C 
ATOM     47  C   UNL     1      36.584  14.706 175.339  0.00  0.00    +0.000 C 
ENDBRANCH  45  46
ENDBRANCH  44  45
ENDBRANCH  43  44
ENDBRANCH  42  43
ENDBRANCH  41  42
ENDBRANCH  40  41
ENDBRANCH  39  40
ENDBRANCH  38  39
ENDBRANCH  37  38
ENDBRANCH  36  37
ENDBRANCH  35  36
ENDBRANCH  34  35
ENDBRANCH  32  34
ENDBRANCH   6  32
TORSDOF 20
ENDMDL
