MODEL 1
REMARK VINA RESULT:      -3.8      0.000      0.000
REMARK  Name = 2Methylcholine.pdbqt.pdb
REMARK  3 active torsions:
REMARK  status: ('A' for Active; 'I' for Inactive)
REMARK    1  A    between atoms: C_1  and  N_2
REMARK    2  A    between atoms: C_1  and  C_6
REMARK    3  A    between atoms: C_6  and  O_8
REMARK                            x       y       z     vdW  Elec       q    Type
REMARK                         _______ _______ _______ _____ _____    ______ ____
ROOT
ATOM      1  C   UNL     1      22.096   4.545 185.048  0.00  0.00    +0.000 C 
ENDROOT
BRANCH   1   2
ATOM      2  N   UNL     1      21.490   4.113 186.292  0.00  0.00    +0.000 N 
ATOM      3  C   UNL     1      22.307   3.062 186.907  0.00  0.00    +0.000 C 
ATOM      4  C   UNL     1      21.388   5.245 187.218  0.00  0.00    +0.000 C 
ATOM      5  C   UNL     1      20.149   3.585 186.032  0.00  0.00    +0.000 C 
ENDBRANCH   1   2
BRANCH   1   6
ATOM      6  C   UNL     1      22.703   4.945 183.849  0.00  0.00    +0.000 C 
ATOM      7  C   UNL     1      22.067   4.688 182.536  0.00  0.00    +0.000 C 
BRANCH   6   8
ATOM      8  O   UNL     1      23.903   5.588 183.825  0.00  0.00    +0.000 OA
ATOM      9  H   UNL     1      24.602   4.943 184.047  0.00  0.00    +0.000 HD
ENDBRANCH   6   8
ENDBRANCH   1   6
TORSDOF 3
ENDMDL
MODEL 2
REMARK VINA RESULT:      -3.6      4.892      6.481
REMARK  Name = 2Methylcholine.pdbqt.pdb
REMARK  3 active torsions:
REMARK  status: ('A' for Active; 'I' for Inactive)
REMARK    1  A    between atoms: C_1  and  N_2
REMARK    2  A    between atoms: C_1  and  C_6
REMARK    3  A    between atoms: C_6  and  O_8
REMARK                            x       y       z     vdW  Elec       q    Type
REMARK                         _______ _______ _______ _____ _____    ______ ____
ROOT
ATOM      1  C   UNL     1      18.656   2.165 188.861  0.00  0.00    +0.000 C 
ENDROOT
BRANCH   1   2
ATOM      2  N   UNL     1      19.684   2.911 188.163  0.00  0.00    +0.000 N 
ATOM      3  C   UNL     1      19.822   4.245 188.756  0.00  0.00    +0.000 C 
ATOM      4  C   UNL     1      20.966   2.207 188.261  0.00  0.00    +0.000 C 
ATOM      5  C   UNL     1      19.322   3.051 186.751  0.00  0.00    +0.000 C 
ENDBRANCH   1   2
BRANCH   1   6
ATOM      6  C   UNL     1      17.646   1.441 189.511  0.00  0.00    +0.000 C 
ATOM      7  C   UNL     1      17.501   1.468 190.986  0.00  0.00    +0.000 C 
BRANCH   6   8
ATOM      8  O   UNL     1      16.749   0.678 188.829  0.00  0.00    +0.000 OA
ATOM      9  H   UNL     1      16.632   1.062 187.939  0.00  0.00    +0.000 HD
ENDBRANCH   6   8
ENDBRANCH   1   6
TORSDOF 3
ENDMDL
MODEL 3
REMARK VINA RESULT:      -3.6      4.905      6.480
REMARK  Name = 2Methylcholine.pdbqt.pdb
REMARK  3 active torsions:
REMARK  status: ('A' for Active; 'I' for Inactive)
REMARK    1  A    between atoms: C_1  and  N_2
REMARK    2  A    between atoms: C_1  and  C_6
REMARK    3  A    between atoms: C_6  and  O_8
REMARK                            x       y       z     vdW  Elec       q    Type
REMARK                         _______ _______ _______ _____ _____    ______ ____
ROOT
ATOM      1  C   UNL     1      18.640   2.142 188.848  0.00  0.00    +0.000 C 
ENDROOT
BRANCH   1   2
ATOM      2  N   UNL     1      19.702   2.861 188.172  0.00  0.00    +0.000 N 
ATOM      3  C   UNL     1      20.952   2.101 188.257  0.00  0.00    +0.000 C 
ATOM      4  C   UNL     1      19.353   3.059 186.763  0.00  0.00    +0.000 C 
ATOM      5  C   UNL     1      19.894   4.169 188.805  0.00  0.00    +0.000 C 
ENDBRANCH   1   2
BRANCH   1   6
ATOM      6  C   UNL     1      17.631   1.426 189.508  0.00  0.00    +0.000 C 
ATOM      7  C   UNL     1      17.493   1.466 190.983  0.00  0.00    +0.000 C 
BRANCH   6   8
ATOM      8  O   UNL     1      16.729   0.661 188.836  0.00  0.00    +0.000 OA
ATOM      9  H   UNL     1      16.158   0.212 189.489  0.00  0.00    +0.000 HD
ENDBRANCH   6   8
ENDBRANCH   1   6
TORSDOF 3
ENDMDL
MODEL 4
REMARK VINA RESULT:      -3.4      1.956      2.789
REMARK  Name = 2Methylcholine.pdbqt.pdb
REMARK  3 active torsions:
REMARK  status: ('A' for Active; 'I' for Inactive)
REMARK    1  A    between atoms: C_1  and  N_2
REMARK    2  A    between atoms: C_1  and  C_6
REMARK    3  A    between atoms: C_6  and  O_8
REMARK                            x       y       z     vdW  Elec       q    Type
REMARK                         _______ _______ _______ _____ _____    ______ ____
ROOT
ATOM      1  C   UNL     1      22.458   4.465 186.704  0.00  0.00    +0.000 C 
ENDROOT
BRANCH   1   2
ATOM      2  N   UNL     1      21.204   3.805 187.008  0.00  0.00    +0.000 N 
ATOM      3  C   UNL     1      20.426   4.619 187.946  0.00  0.00    +0.000 C 
ATOM      4  C   UNL     1      20.428   3.615 185.779  0.00  0.00    +0.000 C 
ATOM      5  C   UNL     1      21.467   2.497 187.613  0.00  0.00    +0.000 C 
ENDBRANCH   1   2
BRANCH   1   6
ATOM      6  C   UNL     1      23.678   5.083 186.393  0.00  0.00    +0.000 C 
ATOM      7  C   UNL     1      24.645   5.464 187.449  0.00  0.00    +0.000 C 
BRANCH   6   8
ATOM      8  O   UNL     1      24.039   5.365 185.111  0.00  0.00    +0.000 OA
ATOM      9  H   UNL     1      24.893   5.839 185.129  0.00  0.00    +0.000 HD
ENDBRANCH   6   8
ENDBRANCH   1   6
TORSDOF 3
ENDMDL
MODEL 5
REMARK VINA RESULT:      -3.4      4.569      5.414
REMARK  Name = 2Methylcholine.pdbqt.pdb
REMARK  3 active torsions:
REMARK  status: ('A' for Active; 'I' for Inactive)
REMARK    1  A    between atoms: C_1  and  N_2
REMARK    2  A    between atoms: C_1  and  C_6
REMARK    3  A    between atoms: C_6  and  O_8
REMARK                            x       y       z     vdW  Elec       q    Type
REMARK                         _______ _______ _______ _____ _____    ______ ____
ROOT
ATOM      1  C   UNL     1      19.517   2.644 189.022  0.00  0.00    +0.000 C 
ENDROOT
BRANCH   1   2
ATOM      2  N   UNL     1      20.322   2.585 190.227  0.00  0.00    +0.000 N 
ATOM      3  C   UNL     1      20.961   1.270 190.337  0.00  0.00    +0.000 C 
ATOM      4  C   UNL     1      21.357   3.621 190.187  0.00  0.00    +0.000 C 
ATOM      5  C   UNL     1      19.472   2.803 191.400  0.00  0.00    +0.000 C 
ENDBRANCH   1   2
BRANCH   1   6
ATOM      6  C   UNL     1      18.754   2.680 187.847  0.00  0.00    +0.000 C 
ATOM      7  C   UNL     1      19.350   3.072 186.548  0.00  0.00    +0.000 C 
BRANCH   6   8
ATOM      8  O   UNL     1      17.431   2.359 187.833  0.00  0.00    +0.000 OA
ATOM      9  H   UNL     1      17.064   2.529 188.721  0.00  0.00    +0.000 HD
ENDBRANCH   6   8
ENDBRANCH   1   6
TORSDOF 3
ENDMDL
MODEL 6
REMARK VINA RESULT:      -3.3      6.099      7.116
REMARK  Name = 2Methylcholine.pdbqt.pdb
REMARK  3 active torsions:
REMARK  status: ('A' for Active; 'I' for Inactive)
REMARK    1  A    between atoms: C_1  and  N_2
REMARK    2  A    between atoms: C_1  and  C_6
REMARK    3  A    between atoms: C_6  and  O_8
REMARK                            x       y       z     vdW  Elec       q    Type
REMARK                         _______ _______ _______ _____ _____    ______ ____
ROOT
ATOM      1  C   UNL     1      18.621   1.637 190.162  0.00  0.00    +0.000 C 
ENDROOT
BRANCH   1   2
ATOM      2  N   UNL     1      19.438   1.609 191.359  0.00  0.00    +0.000 N 
ATOM      3  C   UNL     1      19.978   2.946 191.625  0.00  0.00    +0.000 C 
ATOM      4  C   UNL     1      18.633   1.179 192.505  0.00  0.00    +0.000 C 
ATOM      5  C   UNL     1      20.550   0.672 191.178  0.00  0.00    +0.000 C 
ENDBRANCH   1   2
BRANCH   1   6
ATOM      6  C   UNL     1      17.851   1.651 188.991  0.00  0.00    +0.000 C 
ATOM      7  C   UNL     1      18.148   2.586 187.880  0.00  0.00    +0.000 C 
BRANCH   6   8
ATOM      8  O   UNL     1      16.794   0.812 188.810  0.00  0.00    +0.000 OA
ATOM      9  H   UNL     1      16.439   0.569 189.686  0.00  0.00    +0.000 HD
ENDBRANCH   6   8
ENDBRANCH   1   6
TORSDOF 3
ENDMDL
MODEL 7
REMARK VINA RESULT:      -3.2      3.056      4.091
REMARK  Name = 2Methylcholine.pdbqt.pdb
REMARK  3 active torsions:
REMARK  status: ('A' for Active; 'I' for Inactive)
REMARK    1  A    between atoms: C_1  and  N_2
REMARK    2  A    between atoms: C_1  and  C_6
REMARK    3  A    between atoms: C_6  and  O_8
REMARK                            x       y       z     vdW  Elec       q    Type
REMARK                         _______ _______ _______ _____ _____    ______ ____
ROOT
ATOM      1  C   UNL     1      21.088   2.521 188.028  0.00  0.00    +0.000 C 
ENDROOT
BRANCH   1   2
ATOM      2  N   UNL     1      20.995   2.198 189.438  0.00  0.00    +0.000 N 
ATOM      3  C   UNL     1      19.688   1.600 189.728  0.00  0.00    +0.000 C 
ATOM      4  C   UNL     1      22.049   1.249 189.804  0.00  0.00    +0.000 C 
ATOM      5  C   UNL     1      21.151   3.417 190.236  0.00  0.00    +0.000 C 
ENDBRANCH   1   2
BRANCH   1   6
ATOM      6  C   UNL     1      21.169   2.859 186.669  0.00  0.00    +0.000 C 
ATOM      7  C   UNL     1      19.993   3.371 185.926  0.00  0.00    +0.000 C 
BRANCH   6   8
ATOM      8  O   UNL     1      22.326   2.737 185.962  0.00  0.00    +0.000 OA
ATOM      9  H   UNL     1      23.071   2.974 186.546  0.00  0.00    +0.000 HD
ENDBRANCH   6   8
ENDBRANCH   1   6
TORSDOF 3
ENDMDL
MODEL 8
REMARK VINA RESULT:      -3.1      7.215      8.444
REMARK  Name = 2Methylcholine.pdbqt.pdb
REMARK  3 active torsions:
REMARK  status: ('A' for Active; 'I' for Inactive)
REMARK    1  A    between atoms: C_1  and  N_2
REMARK    2  A    between atoms: C_1  and  C_6
REMARK    3  A    between atoms: C_6  and  O_8
REMARK                            x       y       z     vdW  Elec       q    Type
REMARK                         _______ _______ _______ _____ _____    ______ ____
ROOT
ATOM      1  C   UNL     1      19.194   0.521 191.574  0.00  0.00    +0.000 C 
ENDROOT
BRANCH   1   2
ATOM      2  N   UNL     1      20.141  -0.073 192.497  0.00  0.00    +0.000 N 
ATOM      3  C   UNL     1      19.839  -1.496 192.674  0.00  0.00    +0.000 C 
ATOM      4  C   UNL     1      21.503   0.069 191.975  0.00  0.00    +0.000 C 
ATOM      5  C   UNL     1      20.054   0.600 193.795  0.00  0.00    +0.000 C 
ENDBRANCH   1   2
BRANCH   1   6
ATOM      6  C   UNL     1      18.288   1.080 190.660  0.00  0.00    +0.000 C 
ATOM      7  C   UNL     1      18.752   1.786 189.443  0.00  0.00    +0.000 C 
BRANCH   6   8
ATOM      8  O   UNL     1      16.941   1.006 190.840  0.00  0.00    +0.000 OA
ATOM      9  H   UNL     1      16.584   1.915 190.873  0.00  0.00    +0.000 HD
ENDBRANCH   6   8
ENDBRANCH   1   6
TORSDOF 3
ENDMDL
MODEL 9
REMARK VINA RESULT:      -3.1      7.543      9.001
REMARK  Name = 2Methylcholine.pdbqt.pdb
REMARK  3 active torsions:
REMARK  status: ('A' for Active; 'I' for Inactive)
REMARK    1  A    between atoms: C_1  and  N_2
REMARK    2  A    between atoms: C_1  and  C_6
REMARK    3  A    between atoms: C_6  and  O_8
REMARK                            x       y       z     vdW  Elec       q    Type
REMARK                         _______ _______ _______ _____ _____    ______ ____
ROOT
ATOM      1  C   UNL     1      19.677   0.205 192.135  0.00  0.00    +0.000 C 
ENDROOT
BRANCH   1   2
ATOM      2  N   UNL     1      19.395   1.454 191.455  0.00  0.00    +0.000 N 
ATOM      3  C   UNL     1      20.250   2.518 191.991  0.00  0.00    +0.000 C 
ATOM      4  C   UNL     1      19.650   1.309 190.019  0.00  0.00    +0.000 C 
ATOM      5  C   UNL     1      17.992   1.821 191.656  0.00  0.00    +0.000 C 
ENDBRANCH   1   2
BRANCH   1   6
ATOM      6  C   UNL     1      19.949  -0.989 192.818  0.00  0.00    +0.000 C 
ATOM      7  C   UNL     1      21.279  -1.640 192.741  0.00  0.00    +0.000 C 
BRANCH   6   8
ATOM      8  O   UNL     1      19.014  -1.613 193.584  0.00  0.00    +0.000 OA
ATOM      9  H   UNL     1      18.347  -0.953 193.855  0.00  0.00    +0.000 HD
ENDBRANCH   6   8
ENDBRANCH   1   6
TORSDOF 3
ENDMDL
