MODEL 1
REMARK VINA RESULT:     -10.9      0.000      0.000
REMARK  Name = 3035817_K252a.pdbqt.pdb
REMARK  3 active torsions:
REMARK  status: ('A' for Active; 'I' for Inactive)
REMARK    1  A    between atoms: C_3  and  O_7
REMARK    2  A    between atoms: C_3  and  C_9
REMARK    3  A    between atoms: C_9  and  O_11
REMARK                            x       y       z     vdW  Elec       q    Type
REMARK                         _______ _______ _______ _____ _____    ______ ____
ROOT
ATOM      1  O   UNL     1      24.695   1.074 189.403  0.00  0.00    +0.000 OA
ATOM      2  C   UNL     1      24.834   1.528 190.796  0.00  0.00    +0.000 C 
ATOM      3  C   UNL     1      25.251   3.056 190.665  0.00  0.00    +0.000 C 
ATOM      4  C   UNL     1      24.129   2.175 188.736  0.00  0.00    +0.000 C 
ATOM      5  C   UNL     1      24.672   3.329 189.352  0.00  0.00    +0.000 C 
ATOM      6  C   UNL     1      25.932   0.606 191.420  0.00  0.00    +0.000 C 
ATOM      7  N   UNL     1      23.517   1.335 191.435  0.00  0.00    +0.000 N 
ATOM      8  C   UNL     1      22.250   1.359 190.909  0.00  0.00    +0.000 A 
ATOM      9  C   UNL     1      21.885   1.703 189.607  0.00  0.00    +0.000 A 
ATOM     10  C   UNL     1      21.159   1.099 191.745  0.00  0.00    +0.000 A 
ATOM     11  N   UNL     1      22.750   2.112 188.640  0.00  0.00    +0.000 N 
ATOM     12  C   UNL     1      20.509   1.735 189.357  0.00  0.00    +0.000 A 
ATOM     13  C   UNL     1      21.842   2.510 187.642  0.00  0.00    +0.000 A 
ATOM     14  C   UNL     1      20.476   2.264 188.048  0.00  0.00    +0.000 A 
ATOM     15  C   UNL     1      22.131   3.065 186.385  0.00  0.00    +0.000 A 
ATOM     16  C   UNL     1      19.449   2.609 187.147  0.00  0.00    +0.000 A 
ATOM     17  C   UNL     1      19.756   3.156 185.901  0.00  0.00    +0.000 A 
ATOM     18  C   UNL     1      21.074   3.380 185.531  0.00  0.00    +0.000 A 
ATOM     19  C   UNL     1      19.400   1.458 190.183  0.00  0.00    +0.000 A 
ATOM     20  C   UNL     1      19.777   1.103 191.511  0.00  0.00    +0.000 A 
ATOM     21  C   UNL     1      17.963   1.480 190.054  0.00  0.00    +0.000 C 
ATOM     22  C   UNL     1      18.514   0.891 192.270  0.00  0.00    +0.000 C 
ATOM     23  N   UNL     1      17.555   1.128 191.348  0.00  0.00    +0.000 N 
ATOM     24  H   UNL     1      16.571   1.061 191.566  0.00  0.00    +0.000 HD
ATOM     25  O   UNL     1      17.198   1.721 189.133  0.00  0.00    +0.000 OA
ATOM     26  C   UNL     1      21.782   0.932 192.995  0.00  0.00    +0.000 A 
ATOM     27  C   UNL     1      23.204   1.108 192.799  0.00  0.00    +0.000 A 
ATOM     28  C   UNL     1      21.309   0.687 194.300  0.00  0.00    +0.000 A 
ATOM     29  C   UNL     1      24.074   1.051 193.902  0.00  0.00    +0.000 A 
ATOM     30  C   UNL     1      23.556   0.805 195.174  0.00  0.00    +0.000 A 
ATOM     31  C   UNL     1      22.198   0.618 195.372  0.00  0.00    +0.000 A 
ENDROOT
BRANCH   3  32
ATOM     32  O   UNL     1      24.649   3.930 191.631  0.00  0.00    +0.000 OA
ATOM     33  H   UNL     1      24.161   3.367 192.271  0.00  0.00    +0.000 HD
ENDBRANCH   3  32
BRANCH   3  34
ATOM     34  C   UNL     1      26.768   3.231 190.659  0.00  0.00    +0.000 C 
ATOM     35  O   UNL     1      27.426   2.955 189.653  0.00  0.00    +0.000 OA
BRANCH  34  36
ATOM     36  O   UNL     1      27.233   3.653 191.874  0.00  0.00    +0.000 OA
ATOM     37  C   UNL     1      28.620   3.669 192.072  0.00  0.00    +0.000 C 
ENDBRANCH  34  36
ENDBRANCH   3  34
TORSDOF 3
ENDMDL
MODEL 2
REMARK VINA RESULT:     -10.3      2.783      5.710
REMARK  Name = 3035817_K252a.pdbqt.pdb
REMARK  3 active torsions:
REMARK  status: ('A' for Active; 'I' for Inactive)
REMARK    1  A    between atoms: C_3  and  O_7
REMARK    2  A    between atoms: C_3  and  C_9
REMARK    3  A    between atoms: C_9  and  O_11
REMARK                            x       y       z     vdW  Elec       q    Type
REMARK                         _______ _______ _______ _____ _____    ______ ____
ROOT
ATOM      1  O   UNL     1      20.581   1.483 193.427  0.00  0.00    +0.000 OA
ATOM      2  C   UNL     1      21.390   0.300 193.763  0.00  0.00    +0.000 C 
ATOM      3  C   UNL     1      20.388  -0.919 193.573  0.00  0.00    +0.000 C 
ATOM      4  C   UNL     1      19.771   1.057 192.360  0.00  0.00    +0.000 C 
ATOM      5  C   UNL     1      19.476  -0.306 192.611  0.00  0.00    +0.000 C 
ATOM      6  C   UNL     1      21.862   0.531 195.236  0.00  0.00    +0.000 C 
ATOM      7  N   UNL     1      22.521   0.280 192.813  0.00  0.00    +0.000 N 
ATOM      8  C   UNL     1      22.622   0.744 191.526  0.00  0.00    +0.000 A 
ATOM      9  C   UNL     1      21.597   1.263 190.734  0.00  0.00    +0.000 A 
ATOM     10  C   UNL     1      23.844   0.633 190.855  0.00  0.00    +0.000 A 
ATOM     11  N   UNL     1      20.294   1.361 191.115  0.00  0.00    +0.000 N 
ATOM     12  C   UNL     1      21.953   1.578 189.418  0.00  0.00    +0.000 A 
ATOM     13  C   UNL     1      19.703   1.740 189.897  0.00  0.00    +0.000 A 
ATOM     14  C   UNL     1      20.698   1.904 188.860  0.00  0.00    +0.000 A 
ATOM     15  C   UNL     1      18.343   1.970 189.633  0.00  0.00    +0.000 A 
ATOM     16  C   UNL     1      20.256   2.289 187.579  0.00  0.00    +0.000 A 
ATOM     17  C   UNL     1      18.901   2.514 187.336  0.00  0.00    +0.000 A 
ATOM     18  C   UNL     1      17.964   2.355 188.347  0.00  0.00    +0.000 A 
ATOM     19  C   UNL     1      23.184   1.489 188.735  0.00  0.00    +0.000 A 
ATOM     20  C   UNL     1      24.229   0.963 189.548  0.00  0.00    +0.000 A 
ATOM     21  C   UNL     1      23.664   1.752 187.400  0.00  0.00    +0.000 C 
ATOM     22  C   UNL     1      25.439   0.882 188.685  0.00  0.00    +0.000 C 
ATOM     23  N   UNL     1      25.005   1.356 187.496  0.00  0.00    +0.000 N 
ATOM     24  H   UNL     1      25.611   1.427 186.691  0.00  0.00    +0.000 HD
ATOM     25  O   UNL     1      23.148   2.194 186.384  0.00  0.00    +0.000 OA
ATOM     26  C   UNL     1      24.638  -0.036 191.803  0.00  0.00    +0.000 A 
ATOM     27  C   UNL     1      23.818  -0.271 192.970  0.00  0.00    +0.000 A 
ATOM     28  C   UNL     1      25.964  -0.516 191.807  0.00  0.00    +0.000 A 
ATOM     29  C   UNL     1      24.343  -0.981 194.063  0.00  0.00    +0.000 A 
ATOM     30  C   UNL     1      25.662  -1.434 194.019  0.00  0.00    +0.000 A 
ATOM     31  C   UNL     1      26.463  -1.202 192.913  0.00  0.00    +0.000 A 
ENDROOT
BRANCH   3  32
ATOM     32  O   UNL     1      20.970  -2.091 192.983  0.00  0.00    +0.000 OA
ATOM     33  H   UNL     1      20.795  -2.842 193.591  0.00  0.00    +0.000 HD
ENDBRANCH   3  32
BRANCH   3  34
ATOM     34  C   UNL     1      19.677  -1.276 194.876  0.00  0.00    +0.000 C 
ATOM     35  O   UNL     1      20.135  -2.144 195.622  0.00  0.00    +0.000 OA
BRANCH  34  36
ATOM     36  O   UNL     1      18.516  -0.569 195.028  0.00  0.00    +0.000 OA
ATOM     37  C   UNL     1      18.332   0.132 196.228  0.00  0.00    +0.000 C 
ENDBRANCH  34  36
ENDBRANCH   3  34
TORSDOF 3
ENDMDL
MODEL 3
REMARK VINA RESULT:      -9.4      2.039      2.998
REMARK  Name = 3035817_K252a.pdbqt.pdb
REMARK  3 active torsions:
REMARK  status: ('A' for Active; 'I' for Inactive)
REMARK    1  A    between atoms: C_3  and  O_7
REMARK    2  A    between atoms: C_3  and  C_9
REMARK    3  A    between atoms: C_9  and  O_11
REMARK                            x       y       z     vdW  Elec       q    Type
REMARK                         _______ _______ _______ _____ _____    ______ ____
ROOT
ATOM      1  O   UNL     1      23.983  -0.441 192.413  0.00  0.00    +0.000 OA
ATOM      2  C   UNL     1      23.508   0.158 193.671  0.00  0.00    +0.000 C 
ATOM      3  C   UNL     1      24.355   1.496 193.806  0.00  0.00    +0.000 C 
ATOM      4  C   UNL     1      24.191   0.660 191.563  0.00  0.00    +0.000 C 
ATOM      5  C   UNL     1      24.645   1.715 192.392  0.00  0.00    +0.000 C 
ATOM      6  C   UNL     1      23.803  -0.913 194.772  0.00  0.00    +0.000 C 
ATOM      7  N   UNL     1      22.060   0.398 193.502  0.00  0.00    +0.000 N 
ATOM      8  C   UNL     1      21.318   0.666 192.380  0.00  0.00    +0.000 A 
ATOM      9  C   UNL     1      21.795   0.901 191.090  0.00  0.00    +0.000 A 
ATOM     10  C   UNL     1      19.932   0.813 192.498  0.00  0.00    +0.000 A 
ATOM     11  N   UNL     1      23.110   0.935 190.743  0.00  0.00    +0.000 N 
ATOM     12  C   UNL     1      20.825   1.244 190.143  0.00  0.00    +0.000 A 
ATOM     13  C   UNL     1      23.010   1.402 189.421  0.00  0.00    +0.000 A 
ATOM     14  C   UNL     1      21.627   1.570 189.028  0.00  0.00    +0.000 A 
ATOM     15  C   UNL     1      24.053   1.679 188.522  0.00  0.00    +0.000 A 
ATOM     16  C   UNL     1      21.366   2.031 187.722  0.00  0.00    +0.000 A 
ATOM     17  C   UNL     1      22.415   2.299 186.843  0.00  0.00    +0.000 A 
ATOM     18  C   UNL     1      23.733   2.127 187.240  0.00  0.00    +0.000 A 
ATOM     19  C   UNL     1      19.425   1.377 190.243  0.00  0.00    +0.000 A 
ATOM     20  C   UNL     1      18.940   1.132 191.561  0.00  0.00    +0.000 A 
ATOM     21  C   UNL     1      18.339   1.744 189.364  0.00  0.00    +0.000 C 
ATOM     22  C   UNL     1      17.469   1.358 191.521  0.00  0.00    +0.000 C 
ATOM     23  N   UNL     1      17.241   1.695 190.233  0.00  0.00    +0.000 N 
ATOM     24  H   UNL     1      16.316   1.912 189.889  0.00  0.00    +0.000 HD
ATOM     25  O   UNL     1      18.269   2.036 188.180  0.00  0.00    +0.000 OA
ATOM     26  C   UNL     1      19.741   0.675 193.885  0.00  0.00    +0.000 A 
ATOM     27  C   UNL     1      21.038   0.455 194.483  0.00  0.00    +0.000 A 
ATOM     28  C   UNL     1      18.614   0.747 194.730  0.00  0.00    +0.000 A 
ATOM     29  C   UNL     1      21.153   0.340 195.880  0.00  0.00    +0.000 A 
ATOM     30  C   UNL     1      20.008   0.416 196.672  0.00  0.00    +0.000 A 
ATOM     31  C   UNL     1      18.757   0.610 196.109  0.00  0.00    +0.000 A 
ENDROOT
BRANCH   3  32
ATOM     32  O   UNL     1      23.625   2.623 194.313  0.00  0.00    +0.000 OA
ATOM     33  H   UNL     1      24.276   3.337 194.492  0.00  0.00    +0.000 HD
ENDBRANCH   3  32
BRANCH   3  34
ATOM     34  C   UNL     1      25.630   1.279 194.616  0.00  0.00    +0.000 C 
ATOM     35  O   UNL     1      26.606   0.718 194.111  0.00  0.00    +0.000 OA
BRANCH  34  36
ATOM     36  O   UNL     1      25.494   1.723 195.903  0.00  0.00    +0.000 OA
ATOM     37  C   UNL     1      26.457   2.618 196.389  0.00  0.00    +0.000 C 
ENDBRANCH  34  36
ENDBRANCH   3  34
TORSDOF 3
ENDMDL
MODEL 4
REMARK VINA RESULT:      -9.4      3.498      6.490
REMARK  Name = 3035817_K252a.pdbqt.pdb
REMARK  3 active torsions:
REMARK  status: ('A' for Active; 'I' for Inactive)
REMARK    1  A    between atoms: C_3  and  O_7
REMARK    2  A    between atoms: C_3  and  C_9
REMARK    3  A    between atoms: C_9  and  O_11
REMARK                            x       y       z     vdW  Elec       q    Type
REMARK                         _______ _______ _______ _____ _____    ______ ____
ROOT
ATOM      1  O   UNL     1      19.952   1.267 195.261  0.00  0.00    +0.000 OA
ATOM      2  C   UNL     1      20.718   0.089 195.698  0.00  0.00    +0.000 C 
ATOM      3  C   UNL     1      19.662  -1.097 195.654  0.00  0.00    +0.000 C 
ATOM      4  C   UNL     1      19.098   0.772 194.260  0.00  0.00    +0.000 C 
ATOM      5  C   UNL     1      18.753  -0.544 194.653  0.00  0.00    +0.000 C 
ATOM      6  C   UNL     1      21.237   0.445 197.130  0.00  0.00    +0.000 C 
ATOM      7  N   UNL     1      21.823  -0.077 194.732  0.00  0.00    +0.000 N 
ATOM      8  C   UNL     1      21.912   0.251 193.403  0.00  0.00    +0.000 A 
ATOM      9  C   UNL     1      20.890   0.733 192.584  0.00  0.00    +0.000 A 
ATOM     10  C   UNL     1      23.111   0.019 192.722  0.00  0.00    +0.000 A 
ATOM     11  N   UNL     1      19.603   0.926 192.980  0.00  0.00    +0.000 N 
ATOM     12  C   UNL     1      21.226   0.898 191.236  0.00  0.00    +0.000 A 
ATOM     13  C   UNL     1      18.998   1.207 191.742  0.00  0.00    +0.000 A 
ATOM     14  C   UNL     1      19.972   1.222 190.673  0.00  0.00    +0.000 A 
ATOM     15  C   UNL     1      17.642   1.470 191.484  0.00  0.00    +0.000 A 
ATOM     16  C   UNL     1      19.514   1.495 189.369  0.00  0.00    +0.000 A 
ATOM     17  C   UNL     1      18.165   1.755 189.133  0.00  0.00    +0.000 A 
ATOM     18  C   UNL     1      17.248   1.740 190.174  0.00  0.00    +0.000 A 
ATOM     19  C   UNL     1      22.434   0.686 190.540  0.00  0.00    +0.000 A 
ATOM     20  C   UNL     1      23.477   0.198 191.380  0.00  0.00    +0.000 A 
ATOM     21  C   UNL     1      22.892   0.792 189.175  0.00  0.00    +0.000 C 
ATOM     22  C   UNL     1      24.661  -0.023 190.505  0.00  0.00    +0.000 C 
ATOM     23  N   UNL     1      24.216   0.348 189.284  0.00  0.00    +0.000 N 
ATOM     24  H   UNL     1      24.805   0.311 188.463  0.00  0.00    +0.000 HD
ATOM     25  O   UNL     1      22.370   1.152 188.131  0.00  0.00    +0.000 OA
ATOM     26  C   UNL     1      23.899  -0.587 193.716  0.00  0.00    +0.000 A 
ATOM     27  C   UNL     1      23.099  -0.666 194.918  0.00  0.00    +0.000 A 
ATOM     28  C   UNL     1      25.204  -1.122 193.741  0.00  0.00    +0.000 A 
ATOM     29  C   UNL     1      23.622  -1.286 196.066  0.00  0.00    +0.000 A 
ATOM     30  C   UNL     1      24.918  -1.799 196.041  0.00  0.00    +0.000 A 
ATOM     31  C   UNL     1      25.701  -1.714 194.900  0.00  0.00    +0.000 A 
ENDROOT
BRANCH   3  32
ATOM     32  O   UNL     1      20.179  -2.347 195.174  0.00  0.00    +0.000 OA
ATOM     33  H   UNL     1      20.725  -2.152 194.380  0.00  0.00    +0.000 HD
ENDBRANCH   3  32
BRANCH   3  34
ATOM     34  C   UNL     1      18.969  -1.289 197.000  0.00  0.00    +0.000 C 
ATOM     35  O   UNL     1      19.403  -2.104 197.818  0.00  0.00    +0.000 OA
BRANCH  34  36
ATOM     36  O   UNL     1      17.849  -0.511 197.108  0.00  0.00    +0.000 OA
ATOM     37  C   UNL     1      17.716   0.285 198.254  0.00  0.00    +0.000 C 
ENDBRANCH  34  36
ENDBRANCH   3  34
TORSDOF 3
ENDMDL
MODEL 5
REMARK VINA RESULT:      -8.3     22.953     25.560
REMARK  Name = 3035817_K252a.pdbqt.pdb
REMARK  3 active torsions:
REMARK  status: ('A' for Active; 'I' for Inactive)
REMARK    1  A    between atoms: C_3  and  O_7
REMARK    2  A    between atoms: C_3  and  C_9
REMARK    3  A    between atoms: C_9  and  O_11
REMARK                            x       y       z     vdW  Elec       q    Type
REMARK                         _______ _______ _______ _____ _____    ______ ____
ROOT
ATOM      1  O   UNL     1      12.228 -16.814 179.542  0.00  0.00    +0.000 OA
ATOM      2  C   UNL     1      11.910 -15.553 178.854  0.00  0.00    +0.000 C 
ATOM      3  C   UNL     1      13.115 -14.590 179.234  0.00  0.00    +0.000 C 
ATOM      4  C   UNL     1      13.625 -16.926 179.430  0.00  0.00    +0.000 C 
ATOM      5  C   UNL     1      14.132 -15.605 179.498  0.00  0.00    +0.000 C 
ATOM      6  C   UNL     1      10.521 -15.113 179.424  0.00  0.00    +0.000 C 
ATOM      7  N   UNL     1      11.845 -15.865 177.411  0.00  0.00    +0.000 N 
ATOM      8  C   UNL     1      12.491 -16.820 176.668  0.00  0.00    +0.000 A 
ATOM      9  C   UNL     1      13.497 -17.685 177.100  0.00  0.00    +0.000 A 
ATOM     10  C   UNL     1      12.210 -16.927 175.302  0.00  0.00    +0.000 A 
ATOM     11  N   UNL     1      14.031 -17.693 178.351  0.00  0.00    +0.000 N 
ATOM     12  C   UNL     1      14.054 -18.501 176.110  0.00  0.00    +0.000 A 
ATOM     13  C   UNL     1      15.102 -18.584 178.163  0.00  0.00    +0.000 A 
ATOM     14  C   UNL     1      15.117 -19.108 176.814  0.00  0.00    +0.000 A 
ATOM     15  C   UNL     1      16.066 -18.986 179.102  0.00  0.00    +0.000 A 
ATOM     16  C   UNL     1      16.135 -20.022 176.474  0.00  0.00    +0.000 A 
ATOM     17  C   UNL     1      17.082 -20.410 177.421  0.00  0.00    +0.000 A 
ATOM     18  C   UNL     1      17.046 -19.898 178.710  0.00  0.00    +0.000 A 
ATOM     19  C   UNL     1      13.769 -18.633 174.735  0.00  0.00    +0.000 A 
ATOM     20  C   UNL     1      12.738 -17.751 174.299  0.00  0.00    +0.000 A 
ATOM     21  C   UNL     1      14.279 -19.403 173.626  0.00  0.00    +0.000 C 
ATOM     22  C   UNL     1      12.585 -17.967 172.834  0.00  0.00    +0.000 C 
ATOM     23  N   UNL     1      13.502 -18.922 172.564  0.00  0.00    +0.000 N 
ATOM     24  H   UNL     1      13.640 -19.288 171.632  0.00  0.00    +0.000 HD
ATOM     25  O   UNL     1      15.141 -20.262 173.515  0.00  0.00    +0.000 OA
ATOM     26  C   UNL     1      11.299 -15.874 175.108  0.00  0.00    +0.000 A 
ATOM     27  C   UNL     1      11.110 -15.221 176.384  0.00  0.00    +0.000 A 
ATOM     28  C   UNL     1      10.625 -15.357 173.983  0.00  0.00    +0.000 A 
ATOM     29  C   UNL     1      10.285 -14.086 176.474  0.00  0.00    +0.000 A 
ATOM     30  C   UNL     1       9.638 -13.614 175.331  0.00  0.00    +0.000 A 
ATOM     31  C   UNL     1       9.799 -14.241 174.106  0.00  0.00    +0.000 A 
ENDROOT
BRANCH   3  32
ATOM     32  O   UNL     1      13.569 -13.741 178.169  0.00  0.00    +0.000 OA
ATOM     33  H   UNL     1      14.315 -13.206 178.519  0.00  0.00    +0.000 HD
ENDBRANCH   3  32
BRANCH   3  34
ATOM     34  C   UNL     1      12.808 -13.763 180.480  0.00  0.00    +0.000 C 
ATOM     35  O   UNL     1      12.383 -12.609 180.377  0.00  0.00    +0.000 OA
BRANCH  34  36
ATOM     36  O   UNL     1      13.115 -14.442 181.627  0.00  0.00    +0.000 OA
ATOM     37  C   UNL     1      12.182 -14.410 182.672  0.00  0.00    +0.000 C 
ENDBRANCH  34  36
ENDBRANCH   3  34
TORSDOF 3
ENDMDL
MODEL 6
REMARK VINA RESULT:      -7.8     33.935     35.097
REMARK  Name = 3035817_K252a.pdbqt.pdb
REMARK  3 active torsions:
REMARK  status: ('A' for Active; 'I' for Inactive)
REMARK    1  A    between atoms: C_3  and  O_7
REMARK    2  A    between atoms: C_3  and  C_9
REMARK    3  A    between atoms: C_9  and  O_11
REMARK                            x       y       z     vdW  Elec       q    Type
REMARK                         _______ _______ _______ _____ _____    ______ ____
ROOT
ATOM      1  O   UNL     1      41.320 -22.108 171.155  0.00  0.00    +0.000 OA
ATOM      2  C   UNL     1      40.895 -22.086 172.564  0.00  0.00    +0.000 C 
ATOM      3  C   UNL     1      40.577 -20.555 172.848  0.00  0.00    +0.000 C 
ATOM      4  C   UNL     1      40.489 -21.161 170.529  0.00  0.00    +0.000 C 
ATOM      5  C   UNL     1      40.272 -20.137 171.482  0.00  0.00    +0.000 C 
ATOM      6  C   UNL     1      42.108 -22.659 173.367  0.00  0.00    +0.000 C 
ATOM      7  N   UNL     1      39.705 -22.957 172.658  0.00  0.00    +0.000 N 
ATOM      8  C   UNL     1      38.739 -23.262 171.733  0.00  0.00    +0.000 A 
ATOM      9  C   UNL     1      38.581 -22.703 170.464  0.00  0.00    +0.000 A 
ATOM     10  C   UNL     1      37.727 -24.164 172.076  0.00  0.00    +0.000 A 
ATOM     11  N   UNL     1      39.363 -21.718 169.946  0.00  0.00    +0.000 N 
ATOM     12  C   UNL     1      37.451 -23.127 169.756  0.00  0.00    +0.000 A 
ATOM     13  C   UNL     1      38.644 -21.414 168.776  0.00  0.00    +0.000 A 
ATOM     14  C   UNL     1      37.494 -22.278 168.629  0.00  0.00    +0.000 A 
ATOM     15  C   UNL     1      38.937 -20.434 167.813  0.00  0.00    +0.000 A 
ATOM     16  C   UNL     1      36.674 -22.095 167.497  0.00  0.00    +0.000 A 
ATOM     17  C   UNL     1      36.983 -21.119 166.550  0.00  0.00    +0.000 A 
ATOM     18  C   UNL     1      38.094 -20.304 166.710  0.00  0.00    +0.000 A 
ATOM     19  C   UNL     1      36.434 -24.048 170.081  0.00  0.00    +0.000 A 
ATOM     20  C   UNL     1      36.601 -24.620 171.376  0.00  0.00    +0.000 A 
ATOM     21  C   UNL     1      35.227 -24.542 169.461  0.00  0.00    +0.000 C 
ATOM     22  C   UNL     1      35.437 -25.523 171.595  0.00  0.00    +0.000 C 
ATOM     23  N   UNL     1      34.731 -25.402 170.450  0.00  0.00    +0.000 N 
ATOM     24  H   UNL     1      33.869 -25.905 170.294  0.00  0.00    +0.000 HD
ATOM     25  O   UNL     1      34.684 -24.343 168.385  0.00  0.00    +0.000 OA
ATOM     26  C   UNL     1      38.035 -24.453 173.417  0.00  0.00    +0.000 A 
ATOM     27  C   UNL     1      39.215 -23.693 173.766  0.00  0.00    +0.000 A 
ATOM     28  C   UNL     1      37.430 -25.249 174.411  0.00  0.00    +0.000 A 
ATOM     29  C   UNL     1      39.719 -23.747 175.077  0.00  0.00    +0.000 A 
ATOM     30  C   UNL     1      39.085 -24.551 176.025  0.00  0.00    +0.000 A 
ATOM     31  C   UNL     1      37.963 -25.296 175.698  0.00  0.00    +0.000 A 
ENDROOT
BRANCH   3  32
ATOM     32  O   UNL     1      39.427 -20.322 173.675  0.00  0.00    +0.000 OA
ATOM     33  H   UNL     1      39.417 -21.021 174.366  0.00  0.00    +0.000 HD
ENDBRANCH   3  32
BRANCH   3  34
ATOM     34  C   UNL     1      41.792 -19.819 173.405  0.00  0.00    +0.000 C 
ATOM     35  O   UNL     1      41.916 -19.645 174.620  0.00  0.00    +0.000 OA
BRANCH  34  36
ATOM     36  O   UNL     1      42.615 -19.374 172.408  0.00  0.00    +0.000 OA
ATOM     37  C   UNL     1      43.944 -19.821 172.411  0.00  0.00    +0.000 C 
ENDBRANCH  34  36
ENDBRANCH   3  34
TORSDOF 3
ENDMDL
MODEL 7
REMARK VINA RESULT:      -7.7     25.049     28.510
REMARK  Name = 3035817_K252a.pdbqt.pdb
REMARK  3 active torsions:
REMARK  status: ('A' for Active; 'I' for Inactive)
REMARK    1  A    between atoms: C_3  and  O_7
REMARK    2  A    between atoms: C_3  and  C_9
REMARK    3  A    between atoms: C_9  and  O_11
REMARK                            x       y       z     vdW  Elec       q    Type
REMARK                         _______ _______ _______ _____ _____    ______ ____
ROOT
ATOM      1  O   UNL     1      32.989  -2.160 162.438  0.00  0.00    +0.000 OA
ATOM      2  C   UNL     1      33.250  -0.715 162.336  0.00  0.00    +0.000 C 
ATOM      3  C   UNL     1      32.286  -0.230 161.170  0.00  0.00    +0.000 C 
ATOM      4  C   UNL     1      31.605  -2.277 162.218  0.00  0.00    +0.000 C 
ATOM      5  C   UNL     1      31.271  -1.275 161.275  0.00  0.00    +0.000 C 
ATOM      6  C   UNL     1      34.775  -0.596 162.011  0.00  0.00    +0.000 C 
ATOM      7  N   UNL     1      32.914  -0.133 163.651  0.00  0.00    +0.000 N 
ATOM      8  C   UNL     1      32.006  -0.524 164.602  0.00  0.00    +0.000 A 
ATOM      9  C   UNL     1      31.059  -1.543 164.494  0.00  0.00    +0.000 A 
ATOM     10  C   UNL     1      31.918   0.196 165.798  0.00  0.00    +0.000 A 
ATOM     11  N   UNL     1      30.862  -2.306 163.385  0.00  0.00    +0.000 N 
ATOM     12  C   UNL     1      30.187  -1.672 165.581  0.00  0.00    +0.000 A 
ATOM     13  C   UNL     1      29.692  -2.993 163.756  0.00  0.00    +0.000 A 
ATOM     14  C   UNL     1      29.282  -2.642 165.099  0.00  0.00    +0.000 A 
ATOM     15  C   UNL     1      28.962  -3.925 163.001  0.00  0.00    +0.000 A 
ATOM     16  C   UNL     1      28.123  -3.256 165.614  0.00  0.00    +0.000 A 
ATOM     17  C   UNL     1      27.413  -4.181 164.849  0.00  0.00    +0.000 A 
ATOM     18  C   UNL     1      27.827  -4.505 163.565  0.00  0.00    +0.000 A 
ATOM     19  C   UNL     1      30.100  -0.968 166.799  0.00  0.00    +0.000 A 
ATOM     20  C   UNL     1      31.071   0.070 166.908  0.00  0.00    +0.000 A 
ATOM     21  C   UNL     1      29.248  -0.988 167.965  0.00  0.00    +0.000 C 
ATOM     22  C   UNL     1      30.824   0.749 168.209  0.00  0.00    +0.000 C 
ATOM     23  N   UNL     1      29.775   0.068 168.721  0.00  0.00    +0.000 N 
ATOM     24  H   UNL     1      29.368   0.299 169.617  0.00  0.00    +0.000 HD
ATOM     25  O   UNL     1      28.302  -1.679 168.312  0.00  0.00    +0.000 OA
ATOM     26  C   UNL     1      32.854   1.225 165.589  0.00  0.00    +0.000 A 
ATOM     27  C   UNL     1      33.426   1.032 164.276  0.00  0.00    +0.000 A 
ATOM     28  C   UNL     1      33.269   2.339 166.347  0.00  0.00    +0.000 A 
ATOM     29  C   UNL     1      34.359   1.958 163.777  0.00  0.00    +0.000 A 
ATOM     30  C   UNL     1      34.739   3.044 164.567  0.00  0.00    +0.000 A 
ATOM     31  C   UNL     1      34.210   3.230 165.833  0.00  0.00    +0.000 A 
ENDROOT
BRANCH   3  32
ATOM     32  O   UNL     1      31.666   1.046 161.391  0.00  0.00    +0.000 OA
ATOM     33  H   UNL     1      31.019   0.934 162.122  0.00  0.00    +0.000 HD
ENDBRANCH   3  32
BRANCH   3  34
ATOM     34  C   UNL     1      32.983  -0.255 159.812  0.00  0.00    +0.000 C 
ATOM     35  O   UNL     1      33.559   0.748 159.384  0.00  0.00    +0.000 OA
BRANCH  34  36
ATOM     36  O   UNL     1      32.821  -1.459 159.183  0.00  0.00    +0.000 OA
ATOM     37  C   UNL     1      33.976  -2.154 158.799  0.00  0.00    +0.000 C 
ENDBRANCH  34  36
ENDBRANCH   3  34
TORSDOF 3
ENDMDL
MODEL 8
REMARK VINA RESULT:      -7.6     25.175     28.710
REMARK  Name = 3035817_K252a.pdbqt.pdb
REMARK  3 active torsions:
REMARK  status: ('A' for Active; 'I' for Inactive)
REMARK    1  A    between atoms: C_3  and  O_7
REMARK    2  A    between atoms: C_3  and  C_9
REMARK    3  A    between atoms: C_9  and  O_11
REMARK                            x       y       z     vdW  Elec       q    Type
REMARK                         _______ _______ _______ _____ _____    ______ ____
ROOT
ATOM      1  O   UNL     1      33.483   3.427 164.705  0.00  0.00    +0.000 OA
ATOM      2  C   UNL     1      34.801   2.964 164.243  0.00  0.00    +0.000 C 
ATOM      3  C   UNL     1      35.664   2.865 165.573  0.00  0.00    +0.000 C 
ATOM      4  C   UNL     1      33.294   2.764 165.931  0.00  0.00    +0.000 C 
ATOM      5  C   UNL     1      34.575   2.669 166.527  0.00  0.00    +0.000 C 
ATOM      6  C   UNL     1      35.288   4.054 163.232  0.00  0.00    +0.000 C 
ATOM      7  N   UNL     1      34.584   1.657 163.590  0.00  0.00    +0.000 N 
ATOM      8  C   UNL     1      33.639   0.687 163.812  0.00  0.00    +0.000 A 
ATOM      9  C   UNL     1      32.690   0.654 164.834  0.00  0.00    +0.000 A 
ATOM     10  C   UNL     1      33.634  -0.457 163.007  0.00  0.00    +0.000 A 
ATOM     11  N   UNL     1      32.573   1.589 165.816  0.00  0.00    +0.000 N 
ATOM     12  C   UNL     1      31.904  -0.502 164.888  0.00  0.00    +0.000 A 
ATOM     13  C   UNL     1      31.631   0.960 166.650  0.00  0.00    +0.000 A 
ATOM     14  C   UNL     1      31.192  -0.299 166.090  0.00  0.00    +0.000 A 
ATOM     15  C   UNL     1      31.115   1.425 167.871  0.00  0.00    +0.000 A 
ATOM     16  C   UNL     1      30.242  -1.045 166.815  0.00  0.00    +0.000 A 
ATOM     17  C   UNL     1      29.738  -0.567 168.024  0.00  0.00    +0.000 A 
ATOM     18  C   UNL     1      30.171   0.646 168.541  0.00  0.00    +0.000 A 
ATOM     19  C   UNL     1      31.875  -1.653 164.074  0.00  0.00    +0.000 A 
ATOM     20  C   UNL     1      32.843  -1.614 163.029  0.00  0.00    +0.000 A 
ATOM     21  C   UNL     1      31.146  -2.899 164.042  0.00  0.00    +0.000 C 
ATOM     22  C   UNL     1      32.728  -2.904 162.294  0.00  0.00    +0.000 C 
ATOM     23  N   UNL     1      31.738  -3.547 162.951  0.00  0.00    +0.000 N 
ATOM     24  H   UNL     1      31.423  -4.469 162.680  0.00  0.00    +0.000 HD
ATOM     25  O   UNL     1      30.245  -3.371 164.719  0.00  0.00    +0.000 OA
ATOM     26  C   UNL     1      34.750  -0.238 162.180  0.00  0.00    +0.000 A 
ATOM     27  C   UNL     1      35.333   1.029 162.563  0.00  0.00    +0.000 A 
ATOM     28  C   UNL     1      35.375  -0.984 161.161  0.00  0.00    +0.000 A 
ATOM     29  C   UNL     1      36.508   1.476 161.934  0.00  0.00    +0.000 A 
ATOM     30  C   UNL     1      37.088   0.701 160.929  0.00  0.00    +0.000 A 
ATOM     31  C   UNL     1      36.529  -0.506 160.543  0.00  0.00    +0.000 A 
ENDROOT
BRANCH   3  32
ATOM     32  O   UNL     1      36.548   1.735 165.636  0.00  0.00    +0.000 OA
ATOM     33  H   UNL     1      36.182   1.114 166.304  0.00  0.00    +0.000 HD
ENDBRANCH   3  32
BRANCH   3  34
ATOM     34  C   UNL     1      36.430   4.157 165.850  0.00  0.00    +0.000 C 
ATOM     35  O   UNL     1      37.601   4.281 165.482  0.00  0.00    +0.000 OA
BRANCH  34  36
ATOM     36  O   UNL     1      35.677   5.048 166.563  0.00  0.00    +0.000 OA
ATOM     37  C   UNL     1      35.619   6.370 166.099  0.00  0.00    +0.000 C 
ENDBRANCH  34  36
ENDBRANCH   3  34
TORSDOF 3
ENDMDL
MODEL 9
REMARK VINA RESULT:      -7.5     12.930     15.987
REMARK  Name = 3035817_K252a.pdbqt.pdb
REMARK  3 active torsions:
REMARK  status: ('A' for Active; 'I' for Inactive)
REMARK    1  A    between atoms: C_3  and  O_7
REMARK    2  A    between atoms: C_3  and  C_9
REMARK    3  A    between atoms: C_9  and  O_11
REMARK                            x       y       z     vdW  Elec       q    Type
REMARK                         _______ _______ _______ _____ _____    ______ ____
ROOT
ATOM      1  O   UNL     1       7.074  -2.246 189.284  0.00  0.00    +0.000 OA
ATOM      2  C   UNL     1       8.476  -2.077 189.700  0.00  0.00    +0.000 C 
ATOM      3  C   UNL     1       8.957  -0.779 188.919  0.00  0.00    +0.000 C 
ATOM      4  C   UNL     1       6.579  -0.933 189.196  0.00  0.00    +0.000 C 
ATOM      5  C   UNL     1       7.657  -0.135 188.742  0.00  0.00    +0.000 C 
ATOM      6  C   UNL     1       9.194  -3.398 189.270  0.00  0.00    +0.000 C 
ATOM      7  N   UNL     1       8.461  -1.903 191.167  0.00  0.00    +0.000 N 
ATOM      8  C   UNL     1       7.509  -1.374 192.000  0.00  0.00    +0.000 A 
ATOM      9  C   UNL     1       6.323  -0.739 191.629  0.00  0.00    +0.000 A 
ATOM     10  C   UNL     1       7.737  -1.369 193.380  0.00  0.00    +0.000 A 
ATOM     11  N   UNL     1       5.934  -0.510 190.345  0.00  0.00    +0.000 N 
ATOM     12  C   UNL     1       5.571  -0.205 192.681  0.00  0.00    +0.000 A 
ATOM     13  C   UNL     1       4.816   0.315 190.565  0.00  0.00    +0.000 A 
ATOM     14  C   UNL     1       4.563   0.490 191.978  0.00  0.00    +0.000 A 
ATOM     15  C   UNL     1       3.986   0.917 189.605  0.00  0.00    +0.000 A 
ATOM     16  C   UNL     1       3.467   1.291 192.356  0.00  0.00    +0.000 A 
ATOM     17  C   UNL     1       2.653   1.879 191.389  0.00  0.00    +0.000 A 
ATOM     18  C   UNL     1       2.913   1.695 190.038  0.00  0.00    +0.000 A 
ATOM     19  C   UNL     1       5.779  -0.209 194.076  0.00  0.00    +0.000 A 
ATOM     20  C   UNL     1       6.989  -0.862 194.452  0.00  0.00    +0.000 A 
ATOM     21  C   UNL     1       5.106   0.319 195.239  0.00  0.00    +0.000 C 
ATOM     22  C   UNL     1       7.094  -0.742 195.932  0.00  0.00    +0.000 C 
ATOM     23  N   UNL     1       5.977  -0.061 196.268  0.00  0.00    +0.000 N 
ATOM     24  H   UNL     1       5.761   0.179 197.226  0.00  0.00    +0.000 HD
ATOM     25  O   UNL     1       4.066   0.938 195.409  0.00  0.00    +0.000 OA
ATOM     26  C   UNL     1       9.028  -1.919 193.465  0.00  0.00    +0.000 A 
ATOM     27  C   UNL     1       9.467  -2.209 192.118  0.00  0.00    +0.000 A 
ATOM     28  C   UNL     1       9.914  -2.178 194.531  0.00  0.00    +0.000 A 
ATOM     29  C   UNL     1      10.759  -2.719 191.898  0.00  0.00    +0.000 A 
ATOM     30  C   UNL     1      11.597  -2.960 192.987  0.00  0.00    +0.000 A 
ATOM     31  C   UNL     1      11.182  -2.701 194.283  0.00  0.00    +0.000 A 
ENDROOT
BRANCH   3  32
ATOM     32  O   UNL     1       9.812   0.095 189.671  0.00  0.00    +0.000 OA
ATOM     33  H   UNL     1      10.714   0.020 189.290  0.00  0.00    +0.000 HD
ENDBRANCH   3  32
BRANCH   3  34
ATOM     34  C   UNL     1       9.599  -1.130 187.579  0.00  0.00    +0.000 C 
ATOM     35  O   UNL     1      10.818  -1.299 187.494  0.00  0.00    +0.000 OA
BRANCH  34  36
ATOM     36  O   UNL     1       8.677  -1.164 186.569  0.00  0.00    +0.000 OA
ATOM     37  C   UNL     1       8.645  -2.304 185.754  0.00  0.00    +0.000 C 
ENDBRANCH  34  36
ENDBRANCH   3  34
TORSDOF 3
ENDMDL
