REMARK  Name = 3136_Dimethoxy.pdbqt.pdb
REMARK  2 active torsions:
REMARK  status: ('A' for Active; 'I' for Inactive)
REMARK    1  A    between atoms: C_7  and  O_13
REMARK    2  A    between atoms: C_8  and  O_15
REMARK                            x       y       z     vdW  Elec       q    Type
REMARK                         _______ _______ _______ _____ _____    ______ ____
ROOT
ATOM      1  O   UNL     1       0.085   2.619  -0.492  0.00  0.00    +0.000 OA
ATOM      2  O   UNL     1       0.088  -2.618   0.494  0.00  0.00    +0.000 OA
ATOM      3  C   UNL     1      -1.173   0.684  -0.115  0.00  0.00    +0.000 A 
ATOM      4  C   UNL     1      -1.172  -0.684   0.117  0.00  0.00    +0.000 A 
ATOM      5  C   UNL     1       0.089   1.422  -0.237  0.00  0.00    +0.000 C 
ATOM      6  C   UNL     1       0.090  -1.422   0.238  0.00  0.00    +0.000 C 
ATOM      7  C   UNL     1       1.357   0.672  -0.063  0.00  0.00    +0.000 C 
ATOM      8  C   UNL     1       1.357  -0.671   0.062  0.00  0.00    +0.000 C 
ATOM      9  C   UNL     1      -2.380   1.372  -0.234  0.00  0.00    +0.000 A 
ATOM     10  C   UNL     1      -2.379  -1.374   0.237  0.00  0.00    +0.000 A 
ATOM     11  C   UNL     1      -3.586   0.685  -0.116  0.00  0.00    +0.000 A 
ATOM     12  C   UNL     1      -3.586  -0.688   0.120  0.00  0.00    +0.000 A 
ENDROOT
BRANCH   7  13
ATOM     13  O   UNL     1       2.509   1.433  -0.142  0.00  0.00    +0.000 OA
ATOM     14  C   UNL     1       3.098   1.533   1.132  0.00  0.00    +0.000 C 
ENDBRANCH   7  13
BRANCH   8  15
ATOM     15  O   UNL     1       2.510  -1.432   0.138  0.00  0.00    +0.000 OA
ATOM     16  C   UNL     1       3.096  -1.532  -1.138  0.00  0.00    +0.000 C 
ENDBRANCH   8  15
TORSDOF 2
