MODEL 1
REMARK VINA RESULT:      -6.3      0.000      0.000
REMARK  Name = 3136_Dimethoxy.pdbqt.pdb
REMARK  2 active torsions:
REMARK  status: ('A' for Active; 'I' for Inactive)
REMARK    1  A    between atoms: C_7  and  O_13
REMARK    2  A    between atoms: C_8  and  O_15
REMARK                            x       y       z     vdW  Elec       q    Type
REMARK                         _______ _______ _______ _____ _____    ______ ____
ROOT
ATOM      1  O   UNL     1      21.401   3.619 190.858  0.00  0.00    +0.000 OA
ATOM      2  O   UNL     1      22.886   3.636 185.740  0.00  0.00    +0.000 OA
ATOM      3  C   UNL     1      20.767   3.367 188.621  0.00  0.00    +0.000 A 
ATOM      4  C   UNL     1      21.149   3.396 187.287  0.00  0.00    +0.000 A 
ATOM      5  C   UNL     1      21.751   3.595 189.685  0.00  0.00    +0.000 C 
ATOM      6  C   UNL     1      22.542   3.662 186.913  0.00  0.00    +0.000 C 
ATOM      7  C   UNL     1      23.165   3.814 189.294  0.00  0.00    +0.000 C 
ATOM      8  C   UNL     1      23.515   3.941 187.998  0.00  0.00    +0.000 C 
ATOM      9  C   UNL     1      19.438   3.119 188.962  0.00  0.00    +0.000 A 
ATOM     10  C   UNL     1      20.205   3.172 186.284  0.00  0.00    +0.000 A 
ATOM     11  C   UNL     1      18.494   2.896 187.963  0.00  0.00    +0.000 A 
ATOM     12  C   UNL     1      18.877   2.922 186.623  0.00  0.00    +0.000 A 
ENDROOT
BRANCH   7  13
ATOM     13  O   UNL     1      24.050   3.974 190.345  0.00  0.00    +0.000 OA
ATOM     14  C   UNL     1      24.691   2.751 190.614  0.00  0.00    +0.000 C 
ENDBRANCH   7  13
BRANCH   8  15
ATOM     15  O   UNL     1      24.800   4.233 187.578  0.00  0.00    +0.000 OA
ATOM     16  C   UNL     1      24.950   5.627 187.448  0.00  0.00    +0.000 C 
ENDBRANCH   8  15
TORSDOF 2
ENDMDL
MODEL 2
REMARK VINA RESULT:      -6.2      2.561      4.513
REMARK  Name = 3136_Dimethoxy.pdbqt.pdb
REMARK  2 active torsions:
REMARK  status: ('A' for Active; 'I' for Inactive)
REMARK    1  A    between atoms: C_7  and  O_13
REMARK    2  A    between atoms: C_8  and  O_15
REMARK                            x       y       z     vdW  Elec       q    Type
REMARK                         _______ _______ _______ _____ _____    ______ ____
ROOT
ATOM      1  O   UNL     1      22.855   1.404 189.372  0.00  0.00    +0.000 OA
ATOM      2  O   UNL     1      17.646   2.209 188.587  0.00  0.00    +0.000 OA
ATOM      3  C   UNL     1      21.181   2.257 187.980  0.00  0.00    +0.000 A 
ATOM      4  C   UNL     1      19.823   2.445 187.765  0.00  0.00    +0.000 A 
ATOM      5  C   UNL     1      21.660   1.613 189.208  0.00  0.00    +0.000 C 
ATOM      6  C   UNL     1      18.839   1.996 188.755  0.00  0.00    +0.000 C 
ATOM      7  C   UNL     1      20.657   1.210 190.223  0.00  0.00    +0.000 C 
ATOM      8  C   UNL     1      19.336   1.301 189.968  0.00  0.00    +0.000 C 
ATOM      9  C   UNL     1      22.105   2.683 187.027  0.00  0.00    +0.000 A 
ATOM     10  C   UNL     1      19.379   3.064 186.595  0.00  0.00    +0.000 A 
ATOM     11  C   UNL     1      21.665   3.300 185.859  0.00  0.00    +0.000 A 
ATOM     12  C   UNL     1      20.302   3.492 185.643  0.00  0.00    +0.000 A 
ENDROOT
BRANCH   7  13
ATOM     13  O   UNL     1      21.176   0.652 191.377  0.00  0.00    +0.000 OA
ATOM     14  C   UNL     1      21.518   1.673 192.284  0.00  0.00    +0.000 C 
ENDBRANCH   7  13
BRANCH   8  15
ATOM     15  O   UNL     1      18.356   0.859 190.839  0.00  0.00    +0.000 OA
ATOM     16  C   UNL     1      18.033   1.884 191.748  0.00  0.00    +0.000 C 
ENDBRANCH   8  15
TORSDOF 2
ENDMDL
MODEL 3
REMARK VINA RESULT:      -6.2      2.517      4.424
REMARK  Name = 3136_Dimethoxy.pdbqt.pdb
REMARK  2 active torsions:
REMARK  status: ('A' for Active; 'I' for Inactive)
REMARK    1  A    between atoms: C_7  and  O_13
REMARK    2  A    between atoms: C_8  and  O_15
REMARK                            x       y       z     vdW  Elec       q    Type
REMARK                         _______ _______ _______ _____ _____    ______ ____
ROOT
ATOM      1  O   UNL     1      17.724   2.221 188.441  0.00  0.00    +0.000 OA
ATOM      2  O   UNL     1      22.920   1.444 189.334  0.00  0.00    +0.000 OA
ATOM      3  C   UNL     1      19.917   2.487 187.673  0.00  0.00    +0.000 A 
ATOM      4  C   UNL     1      21.271   2.307 187.917  0.00  0.00    +0.000 A 
ATOM      5  C   UNL     1      18.915   2.016 188.635  0.00  0.00    +0.000 C 
ATOM      6  C   UNL     1      21.729   1.648 189.145  0.00  0.00    +0.000 C 
ATOM      7  C   UNL     1      19.390   1.307 189.848  0.00  0.00    +0.000 C 
ATOM      8  C   UNL     1      20.706   1.222 190.132  0.00  0.00    +0.000 C 
ATOM      9  C   UNL     1      19.496   3.120 186.504  0.00  0.00    +0.000 A 
ATOM     10  C   UNL     1      22.215   2.754 186.992  0.00  0.00    +0.000 A 
ATOM     11  C   UNL     1      20.436   3.569 185.580  0.00  0.00    +0.000 A 
ATOM     12  C   UNL     1      21.796   3.386 185.823  0.00  0.00    +0.000 A 
ENDROOT
BRANCH   7  13
ATOM     13  O   UNL     1      18.395   0.846 190.691  0.00  0.00    +0.000 OA
ATOM     14  C   UNL     1      18.042   1.857 191.604  0.00  0.00    +0.000 C 
ENDBRANCH   7  13
BRANCH   8  15
ATOM     15  O   UNL     1      21.204   0.653 191.290  0.00  0.00    +0.000 OA
ATOM     16  C   UNL     1      21.483   1.662 192.231  0.00  0.00    +0.000 C 
ENDBRANCH   8  15
TORSDOF 2
ENDMDL
MODEL 4
REMARK VINA RESULT:      -5.9     29.183     31.193
REMARK  Name = 3136_Dimethoxy.pdbqt.pdb
REMARK  2 active torsions:
REMARK  status: ('A' for Active; 'I' for Inactive)
REMARK    1  A    between atoms: C_7  and  O_13
REMARK    2  A    between atoms: C_8  and  O_15
REMARK                            x       y       z     vdW  Elec       q    Type
REMARK                         _______ _______ _______ _____ _____    ______ ____
ROOT
ATOM      1  O   UNL     1      42.041  -7.897 164.069  0.00  0.00    +0.000 OA
ATOM      2  O   UNL     1      38.627  -5.620 167.469  0.00  0.00    +0.000 OA
ATOM      3  C   UNL     1      41.693  -6.970 166.188  0.00  0.00    +0.000 A 
ATOM      4  C   UNL     1      40.810  -6.355 167.064  0.00  0.00    +0.000 A 
ATOM      5  C   UNL     1      41.248  -7.401 164.858  0.00  0.00    +0.000 C 
ATOM      6  C   UNL     1      39.415  -6.115 166.676  0.00  0.00    +0.000 C 
ATOM      7  C   UNL     1      39.823  -7.197 164.498  0.00  0.00    +0.000 C 
ATOM      8  C   UNL     1      38.993  -6.510 165.310  0.00  0.00    +0.000 C 
ATOM      9  C   UNL     1      43.017  -7.186 166.567  0.00  0.00    +0.000 A 
ATOM     10  C   UNL     1      41.244  -5.955 168.328  0.00  0.00    +0.000 A 
ATOM     11  C   UNL     1      43.453  -6.787 167.829  0.00  0.00    +0.000 A 
ATOM     12  C   UNL     1      42.566  -6.171 168.710  0.00  0.00    +0.000 A 
ENDROOT
BRANCH   7  13
ATOM     13  O   UNL     1      39.456  -7.668 163.250  0.00  0.00    +0.000 OA
ATOM     14  C   UNL     1      39.547  -6.627 162.307  0.00  0.00    +0.000 C 
ENDBRANCH   7  13
BRANCH   8  15
ATOM     15  O   UNL     1      37.681  -6.213 164.988  0.00  0.00    +0.000 OA
ATOM     16  C   UNL     1      36.860  -7.318 165.282  0.00  0.00    +0.000 C 
ENDBRANCH   8  15
TORSDOF 2
ENDMDL
MODEL 5
REMARK VINA RESULT:      -5.8      2.158      4.472
REMARK  Name = 3136_Dimethoxy.pdbqt.pdb
REMARK  2 active torsions:
REMARK  status: ('A' for Active; 'I' for Inactive)
REMARK    1  A    between atoms: C_7  and  O_13
REMARK    2  A    between atoms: C_8  and  O_15
REMARK                            x       y       z     vdW  Elec       q    Type
REMARK                         _______ _______ _______ _____ _____    ______ ____
ROOT
ATOM      1  O   UNL     1      24.032   2.242 190.968  0.00  0.00    +0.000 OA
ATOM      2  O   UNL     1      20.524   5.282 188.351  0.00  0.00    +0.000 OA
ATOM      3  C   UNL     1      23.675   3.883 189.341  0.00  0.00    +0.000 A 
ATOM      4  C   UNL     1      22.759   4.656 188.642  0.00  0.00    +0.000 A 
ATOM      5  C   UNL     1      23.228   2.959 190.389  0.00  0.00    +0.000 C 
ATOM      6  C   UNL     1      21.324   4.562 188.932  0.00  0.00    +0.000 C 
ATOM      7  C   UNL     1      21.779   2.911 190.706  0.00  0.00    +0.000 C 
ATOM      8  C   UNL     1      20.883   3.587 189.960  0.00  0.00    +0.000 C 
ATOM      9  C   UNL     1      25.036   3.978 189.051  0.00  0.00    +0.000 A 
ATOM     10  C   UNL     1      23.198   5.535 187.651  0.00  0.00    +0.000 A 
ATOM     11  C   UNL     1      25.475   4.854 188.061  0.00  0.00    +0.000 A 
ATOM     12  C   UNL     1      24.557   5.633 187.361  0.00  0.00    +0.000 A 
ENDROOT
BRANCH   7  13
ATOM     13  O   UNL     1      21.428   2.056 191.736  0.00  0.00    +0.000 OA
ATOM     14  C   UNL     1      21.232   2.795 192.917  0.00  0.00    +0.000 C 
ENDBRANCH   7  13
BRANCH   8  15
ATOM     15  O   UNL     1      19.514   3.510 190.151  0.00  0.00    +0.000 OA
ATOM     16  C   UNL     1      18.995   2.424 189.422  0.00  0.00    +0.000 C 
ENDBRANCH   8  15
TORSDOF 2
ENDMDL
MODEL 6
REMARK VINA RESULT:      -5.8      2.038      2.862
REMARK  Name = 3136_Dimethoxy.pdbqt.pdb
REMARK  2 active torsions:
REMARK  status: ('A' for Active; 'I' for Inactive)
REMARK    1  A    between atoms: C_7  and  O_13
REMARK    2  A    between atoms: C_8  and  O_15
REMARK                            x       y       z     vdW  Elec       q    Type
REMARK                         _______ _______ _______ _____ _____    ______ ____
ROOT
ATOM      1  O   UNL     1      19.543   1.347 189.949  0.00  0.00    +0.000 OA
ATOM      2  O   UNL     1      24.248   2.404 187.683  0.00  0.00    +0.000 OA
ATOM      3  C   UNL     1      20.692   2.220 188.109  0.00  0.00    +0.000 A 
ATOM      4  C   UNL     1      21.917   2.517 187.530  0.00  0.00    +0.000 A 
ATOM      5  C   UNL     1      20.624   1.562 189.418  0.00  0.00    +0.000 C 
ATOM      6  C   UNL     1      23.170   2.188 188.218  0.00  0.00    +0.000 C 
ATOM      7  C   UNL     1      21.899   1.189 190.080  0.00  0.00    +0.000 C 
ATOM      8  C   UNL     1      23.085   1.569 189.564  0.00  0.00    +0.000 C 
ATOM      9  C   UNL     1      19.509   2.544 187.446  0.00  0.00    +0.000 A 
ATOM     10  C   UNL     1      21.969   3.138 186.281  0.00  0.00    +0.000 A 
ATOM     11  C   UNL     1      19.558   3.165 186.200  0.00  0.00    +0.000 A 
ATOM     12  C   UNL     1      20.787   3.461 185.617  0.00  0.00    +0.000 A 
ENDROOT
BRANCH   7  13
ATOM     13  O   UNL     1      21.766   0.530 191.289  0.00  0.00    +0.000 OA
ATOM     14  C   UNL     1      21.617   1.469 192.326  0.00  0.00    +0.000 C 
ENDBRANCH   7  13
BRANCH   8  15
ATOM     15  O   UNL     1      24.300   1.328 190.181  0.00  0.00    +0.000 OA
ATOM     16  C   UNL     1      24.702   2.472 190.897  0.00  0.00    +0.000 C 
ENDBRANCH   8  15
TORSDOF 2
ENDMDL
MODEL 7
REMARK VINA RESULT:      -5.3     33.096     34.271
REMARK  Name = 3136_Dimethoxy.pdbqt.pdb
REMARK  2 active torsions:
REMARK  status: ('A' for Active; 'I' for Inactive)
REMARK    1  A    between atoms: C_7  and  O_13
REMARK    2  A    between atoms: C_8  and  O_15
REMARK                            x       y       z     vdW  Elec       q    Type
REMARK                         _______ _______ _______ _____ _____    ______ ____
ROOT
ATOM      1  O   UNL     1      38.695 -22.080 170.854  0.00  0.00    +0.000 OA
ATOM      2  O   UNL     1      41.411 -19.042 174.288  0.00  0.00    +0.000 OA
ATOM      3  C   UNL     1      40.253 -20.364 171.161  0.00  0.00    +0.000 A 
ATOM      4  C   UNL     1      40.942 -19.556 172.055  0.00  0.00    +0.000 A 
ATOM      5  C   UNL     1      39.339 -21.404 171.645  0.00  0.00    +0.000 C 
ATOM      6  C   UNL     1      40.764 -19.720 173.502  0.00  0.00    +0.000 C 
ATOM      7  C   UNL     1      39.206 -21.591 173.111  0.00  0.00    +0.000 C 
ATOM      8  C   UNL     1      39.798 -20.741 173.975  0.00  0.00    +0.000 C 
ATOM      9  C   UNL     1      40.427 -20.194 169.788  0.00  0.00    +0.000 A 
ATOM     10  C   UNL     1      41.814 -18.575 171.582  0.00  0.00    +0.000 A 
ATOM     11  C   UNL     1      41.296 -19.214 169.314  0.00  0.00    +0.000 A 
ATOM     12  C   UNL     1      41.990 -18.404 170.211  0.00  0.00    +0.000 A 
ENDROOT
BRANCH   7  13
ATOM     13  O   UNL     1      38.366 -22.617 173.502  0.00  0.00    +0.000 OA
ATOM     14  C   UNL     1      39.128 -23.756 173.821  0.00  0.00    +0.000 C 
ENDBRANCH   7  13
BRANCH   8  15
ATOM     15  O   UNL     1      39.638 -20.812 175.348  0.00  0.00    +0.000 OA
ATOM     16  C   UNL     1      38.474 -20.117 175.725  0.00  0.00    +0.000 C 
ENDBRANCH   8  15
TORSDOF 2
ENDMDL
MODEL 8
REMARK VINA RESULT:      -5.3     23.739     25.617
REMARK  Name = 3136_Dimethoxy.pdbqt.pdb
REMARK  2 active torsions:
REMARK  status: ('A' for Active; 'I' for Inactive)
REMARK    1  A    between atoms: C_7  and  O_13
REMARK    2  A    between atoms: C_8  and  O_15
REMARK                            x       y       z     vdW  Elec       q    Type
REMARK                         _______ _______ _______ _____ _____    ______ ____
ROOT
ATOM      1  O   UNL     1      14.447 -16.969 180.051  0.00  0.00    +0.000 OA
ATOM      2  O   UNL     1      13.581 -18.659 175.072  0.00  0.00    +0.000 OA
ATOM      3  C   UNL     1      15.142 -18.334 178.285  0.00  0.00    +0.000 A 
ATOM      4  C   UNL     1      14.902 -18.793 176.997  0.00  0.00    +0.000 A 
ATOM      5  C   UNL     1      14.262 -17.333 178.898  0.00  0.00    +0.000 C 
ATOM      6  C   UNL     1      13.760 -18.292 176.225  0.00  0.00    +0.000 C 
ATOM      7  C   UNL     1      13.141 -16.799 178.088  0.00  0.00    +0.000 C 
ATOM      8  C   UNL     1      12.850 -17.318 176.877  0.00  0.00    +0.000 C 
ATOM      9  C   UNL     1      16.228 -18.824 179.010  0.00  0.00    +0.000 A 
ATOM     10  C   UNL     1      15.749 -19.741 176.423  0.00  0.00    +0.000 A 
ATOM     11  C   UNL     1      17.075 -19.771 178.439  0.00  0.00    +0.000 A 
ATOM     12  C   UNL     1      16.836 -20.230 177.145  0.00  0.00    +0.000 A 
ENDROOT
BRANCH   7  13
ATOM     13  O   UNL     1      12.378 -15.824 178.705  0.00  0.00    +0.000 OA
ATOM     14  C   UNL     1      12.819 -14.551 178.298  0.00  0.00    +0.000 C 
ENDBRANCH   7  13
BRANCH   8  15
ATOM     15  O   UNL     1      11.765 -16.922 176.115  0.00  0.00    +0.000 OA
ATOM     16  C   UNL     1      10.633 -17.675 176.478  0.00  0.00    +0.000 C 
ENDBRANCH   8  15
TORSDOF 2
ENDMDL
MODEL 9
REMARK VINA RESULT:      -5.2      2.432      4.109
REMARK  Name = 3136_Dimethoxy.pdbqt.pdb
REMARK  2 active torsions:
REMARK  status: ('A' for Active; 'I' for Inactive)
REMARK    1  A    between atoms: C_7  and  O_13
REMARK    2  A    between atoms: C_8  and  O_15
REMARK                            x       y       z     vdW  Elec       q    Type
REMARK                         _______ _______ _______ _____ _____    ______ ____
ROOT
ATOM      1  O   UNL     1      19.978   2.575 190.745  0.00  0.00    +0.000 OA
ATOM      2  O   UNL     1      25.182   3.720 190.644  0.00  0.00    +0.000 OA
ATOM      3  C   UNL     1      21.704   3.820 189.774  0.00  0.00    +0.000 A 
ATOM      4  C   UNL     1      23.055   4.135 189.764  0.00  0.00    +0.000 A 
ATOM      5  C   UNL     1      21.178   2.815 190.704  0.00  0.00    +0.000 C 
ATOM      6  C   UNL     1      23.984   3.477 190.690  0.00  0.00    +0.000 C 
ATOM      7  C   UNL     1      22.136   2.122 191.600  0.00  0.00    +0.000 C 
ATOM      8  C   UNL     1      23.429   2.501 191.659  0.00  0.00    +0.000 C 
ATOM      9  C   UNL     1      20.831   4.457 188.893  0.00  0.00    +0.000 A 
ATOM     10  C   UNL     1      23.544   5.088 188.870  0.00  0.00    +0.000 A 
ATOM     11  C   UNL     1      21.317   5.410 188.001  0.00  0.00    +0.000 A 
ATOM     12  C   UNL     1      22.674   5.726 187.989  0.00  0.00    +0.000 A 
ENDROOT
BRANCH   7  13
ATOM     13  O   UNL     1      21.585   1.153 192.418  0.00  0.00    +0.000 OA
ATOM     14  C   UNL     1      21.062   1.755 193.578  0.00  0.00    +0.000 C 
ENDBRANCH   7  13
BRANCH   8  15
ATOM     15  O   UNL     1      24.347   1.953 192.536  0.00  0.00    +0.000 OA
ATOM     16  C   UNL     1      24.482   2.787 193.663  0.00  0.00    +0.000 C 
ENDBRANCH   8  15
TORSDOF 2
ENDMDL
