MODEL 1
REMARK VINA RESULT:      -6.4      0.000      0.000
REMARK  Name = 326_Cuminaldehyde.pdb
REMARK  1 active torsions:
REMARK  status: ('A' for Active; 'I' for Inactive)
REMARK    1  A    between atoms: C_1  and  C_7
REMARK                            x       y       z     vdW  Elec       q    Type
REMARK                         _______ _______ _______ _____ _____    ______ ____
ROOT
ATOM      1  C   UNL     1      21.001   4.561 186.961  0.00  0.00    +0.000 C 
ATOM      2  C   UNL     1      21.973   5.432 186.463  0.00  0.00    +0.000 C 
ATOM      3  C   UNL     1      20.415   3.624 186.107  0.00  0.00    +0.000 C 
ATOM      4  C   UNL     1      22.357   5.365 185.124  0.00  0.00    +0.000 C 
ATOM      5  C   UNL     1      20.797   3.557 184.768  0.00  0.00    +0.000 C 
ATOM      6  C   UNL     1      21.768   4.428 184.279  0.00  0.00    +0.000 C 
ATOM      7  O   UNL     1      22.482   4.304 181.780  0.00  0.00    +0.000 OA
ATOM      8  C   UNL     1      22.159   4.360 182.909  0.00  0.00    +0.000 C 
ENDROOT
BRANCH   1   9
ATOM      9  C   UNL     1      20.600   4.631 188.363  0.00  0.00    +0.000 C 
ATOM     10  C   UNL     1      21.127   3.652 189.383  0.00  0.00    +0.000 C 
ATOM     11  C   UNL     1      19.641   5.685 188.856  0.00  0.00    +0.000 C 
ENDBRANCH   1   9
TORSDOF 1
ENDMDL
MODEL 2
REMARK VINA RESULT:      -6.3      3.528      5.041
REMARK  Name = 326_Cuminaldehyde.pdb
REMARK  1 active torsions:
REMARK  status: ('A' for Active; 'I' for Inactive)
REMARK    1  A    between atoms: C_1  and  C_7
REMARK                            x       y       z     vdW  Elec       q    Type
REMARK                         _______ _______ _______ _____ _____    ______ ____
ROOT
ATOM      1  C   UNL     1      20.807   4.234 187.661  0.00  0.00    +0.000 C 
ATOM      2  C   UNL     1      20.684   3.994 189.032  0.00  0.00    +0.000 C 
ATOM      3  C   UNL     1      19.922   3.619 186.773  0.00  0.00    +0.000 C 
ATOM      4  C   UNL     1      19.683   3.149 189.510  0.00  0.00    +0.000 C 
ATOM      5  C   UNL     1      18.922   2.773 187.250  0.00  0.00    +0.000 C 
ATOM      6  C   UNL     1      18.804   2.539 188.619  0.00  0.00    +0.000 C 
ATOM      7  O   UNL     1      16.938   0.960 189.510  0.00  0.00    +0.000 OA
ATOM      8  C   UNL     1      17.782   1.674 189.107  0.00  0.00    +0.000 C 
ENDROOT
BRANCH   1   9
ATOM      9  C   UNL     1      21.854   5.121 187.161  0.00  0.00    +0.000 C 
ATOM     10  C   UNL     1      22.762   5.876 188.100  0.00  0.00    +0.000 C 
ATOM     11  C   UNL     1      22.076   5.321 185.683  0.00  0.00    +0.000 C 
ENDBRANCH   1   9
TORSDOF 1
ENDMDL
MODEL 3
REMARK VINA RESULT:      -6.3      1.603      2.302
REMARK  Name = 326_Cuminaldehyde.pdb
REMARK  1 active torsions:
REMARK  status: ('A' for Active; 'I' for Inactive)
REMARK    1  A    between atoms: C_1  and  C_7
REMARK                            x       y       z     vdW  Elec       q    Type
REMARK                         _______ _______ _______ _____ _____    ______ ____
ROOT
ATOM      1  C   UNL     1      20.092   3.713 187.313  0.00  0.00    +0.000 C 
ATOM      2  C   UNL     1      20.138   3.112 186.053  0.00  0.00    +0.000 C 
ATOM      3  C   UNL     1      20.953   4.775 187.600  0.00  0.00    +0.000 C 
ATOM      4  C   UNL     1      21.034   3.569 185.088  0.00  0.00    +0.000 C 
ATOM      5  C   UNL     1      21.850   5.232 186.636  0.00  0.00    +0.000 C 
ATOM      6  C   UNL     1      21.889   4.628 185.381  0.00  0.00    +0.000 C 
ATOM      7  O   UNL     1      23.564   5.482 183.582  0.00  0.00    +0.000 OA
ATOM      8  C   UNL     1      22.807   5.096 184.396  0.00  0.00    +0.000 C 
ENDROOT
BRANCH   1   9
ATOM      9  C   UNL     1      19.152   3.234 188.323  0.00  0.00    +0.000 C 
ATOM     10  C   UNL     1      19.407   3.435 189.795  0.00  0.00    +0.000 C 
ATOM     11  C   UNL     1      17.882   2.516 187.939  0.00  0.00    +0.000 C 
ENDBRANCH   1   9
TORSDOF 1
ENDMDL
MODEL 4
REMARK VINA RESULT:      -6.1      2.318      3.363
REMARK  Name = 326_Cuminaldehyde.pdb
REMARK  1 active torsions:
REMARK  status: ('A' for Active; 'I' for Inactive)
REMARK    1  A    between atoms: C_1  and  C_7
REMARK                            x       y       z     vdW  Elec       q    Type
REMARK                         _______ _______ _______ _____ _____    ______ ____
ROOT
ATOM      1  C   UNL     1      19.682   2.142 188.423  0.00  0.00    +0.000 C 
ATOM      2  C   UNL     1      18.871   2.756 187.465  0.00  0.00    +0.000 C 
ATOM      3  C   UNL     1      21.050   2.002 188.177  0.00  0.00    +0.000 C 
ATOM      4  C   UNL     1      19.423   3.227 186.274  0.00  0.00    +0.000 C 
ATOM      5  C   UNL     1      21.603   2.471 186.987  0.00  0.00    +0.000 C 
ATOM      6  C   UNL     1      20.788   3.083 186.036  0.00  0.00    +0.000 C 
ATOM      7  O   UNL     1      21.818   3.958 183.814  0.00  0.00    +0.000 OA
ATOM      8  C   UNL     1      21.353   3.563 184.818  0.00  0.00    +0.000 C 
ENDROOT
BRANCH   1   9
ATOM      9  C   UNL     1      19.104   1.651 189.670  0.00  0.00    +0.000 C 
ATOM     10  C   UNL     1      17.636   1.321 189.782  0.00  0.00    +0.000 C 
ATOM     11  C   UNL     1      19.948   1.451 190.904  0.00  0.00    +0.000 C 
ENDBRANCH   1   9
TORSDOF 1
ENDMDL
MODEL 5
REMARK VINA RESULT:      -6.0      2.439      3.434
REMARK  Name = 326_Cuminaldehyde.pdb
REMARK  1 active torsions:
REMARK  status: ('A' for Active; 'I' for Inactive)
REMARK    1  A    between atoms: C_1  and  C_7
REMARK                            x       y       z     vdW  Elec       q    Type
REMARK                         _______ _______ _______ _____ _____    ______ ____
ROOT
ATOM      1  C   UNL     1      19.529   2.159 188.743  0.00  0.00    +0.000 C 
ATOM      2  C   UNL     1      20.900   2.014 188.515  0.00  0.00    +0.000 C 
ATOM      3  C   UNL     1      18.728   2.745 187.761  0.00  0.00    +0.000 C 
ATOM      4  C   UNL     1      21.463   2.447 187.316  0.00  0.00    +0.000 C 
ATOM      5  C   UNL     1      19.290   3.180 186.561  0.00  0.00    +0.000 C 
ATOM      6  C   UNL     1      20.658   3.030 186.341  0.00  0.00    +0.000 C 
ATOM      7  O   UNL     1      21.708   3.842 184.103  0.00  0.00    +0.000 OA
ATOM      8  C   UNL     1      21.233   3.475 185.115  0.00  0.00    +0.000 C 
ENDROOT
BRANCH   1   9
ATOM      9  C   UNL     1      18.940   1.704 189.999  0.00  0.00    +0.000 C 
ATOM     10  C   UNL     1      17.511   1.226 190.071  0.00  0.00    +0.000 C 
ATOM     11  C   UNL     1      19.733   1.691 191.282  0.00  0.00    +0.000 C 
ENDBRANCH   1   9
TORSDOF 1
ENDMDL
MODEL 6
REMARK VINA RESULT:      -5.9      4.740      6.973
REMARK  Name = 326_Cuminaldehyde.pdb
REMARK  1 active torsions:
REMARK  status: ('A' for Active; 'I' for Inactive)
REMARK    1  A    between atoms: C_1  and  C_7
REMARK                            x       y       z     vdW  Elec       q    Type
REMARK                         _______ _______ _______ _____ _____    ______ ____
ROOT
ATOM      1  C   UNL     1      19.525   3.037 189.045  0.00  0.00    +0.000 C 
ATOM      2  C   UNL     1      18.586   2.004 189.086  0.00  0.00    +0.000 C 
ATOM      3  C   UNL     1      20.175   3.422 190.220  0.00  0.00    +0.000 C 
ATOM      4  C   UNL     1      18.301   1.360 190.289  0.00  0.00    +0.000 C 
ATOM      5  C   UNL     1      19.890   2.779 191.424  0.00  0.00    +0.000 C 
ATOM      6  C   UNL     1      18.952   1.749 191.456  0.00  0.00    +0.000 C 
ATOM      7  O   UNL     1      18.419   0.549 193.703  0.00  0.00    +0.000 OA
ATOM      8  C   UNL     1      18.660   1.092 192.688  0.00  0.00    +0.000 C 
ENDROOT
BRANCH   1   9
ATOM      9  C   UNL     1      19.825   3.710 187.785  0.00  0.00    +0.000 C 
ATOM     10  C   UNL     1      19.415   3.119 186.459  0.00  0.00    +0.000 C 
ATOM     11  C   UNL     1      20.557   5.029 187.750  0.00  0.00    +0.000 C 
ENDBRANCH   1   9
TORSDOF 1
ENDMDL
MODEL 7
REMARK VINA RESULT:      -5.4      4.838      6.886
REMARK  Name = 326_Cuminaldehyde.pdb
REMARK  1 active torsions:
REMARK  status: ('A' for Active; 'I' for Inactive)
REMARK    1  A    between atoms: C_1  and  C_7
REMARK                            x       y       z     vdW  Elec       q    Type
REMARK                         _______ _______ _______ _____ _____    ______ ____
ROOT
ATOM      1  C   UNL     1      19.542   2.447 189.159  0.00  0.00    +0.000 C 
ATOM      2  C   UNL     1      20.732   2.125 189.817  0.00  0.00    +0.000 C 
ATOM      3  C   UNL     1      18.364   1.779 189.502  0.00  0.00    +0.000 C 
ATOM      4  C   UNL     1      20.743   1.146 190.809  0.00  0.00    +0.000 C 
ATOM      5  C   UNL     1      18.375   0.799 190.494  0.00  0.00    +0.000 C 
ATOM      6  C   UNL     1      19.566   0.484 191.146  0.00  0.00    +0.000 C 
ATOM      7  O   UNL     1      19.586  -1.345 192.997  0.00  0.00    +0.000 OA
ATOM      8  C   UNL     1      19.577  -0.519 192.160  0.00  0.00    +0.000 C 
ENDROOT
BRANCH   1   9
ATOM      9  C   UNL     1      19.530   3.473 188.121  0.00  0.00    +0.000 C 
ATOM     10  C   UNL     1      19.710   4.933 188.454  0.00  0.00    +0.000 C 
ATOM     11  C   UNL     1      19.338   3.120 186.667  0.00  0.00    +0.000 C 
ENDBRANCH   1   9
TORSDOF 1
ENDMDL
MODEL 8
REMARK VINA RESULT:      -5.2      3.458      4.643
REMARK  Name = 326_Cuminaldehyde.pdb
REMARK  1 active torsions:
REMARK  status: ('A' for Active; 'I' for Inactive)
REMARK    1  A    between atoms: C_1  and  C_7
REMARK                            x       y       z     vdW  Elec       q    Type
REMARK                         _______ _______ _______ _____ _____    ______ ____
ROOT
ATOM      1  C   UNL     1      19.604   2.930 189.764  0.00  0.00    +0.000 C 
ATOM      2  C   UNL     1      19.385   3.824 188.713  0.00  0.00    +0.000 C 
ATOM      3  C   UNL     1      20.868   2.860 190.354  0.00  0.00    +0.000 C 
ATOM      4  C   UNL     1      20.418   4.642 188.258  0.00  0.00    +0.000 C 
ATOM      5  C   UNL     1      21.903   3.677 189.900  0.00  0.00    +0.000 C 
ATOM      6  C   UNL     1      21.676   4.567 188.852  0.00  0.00    +0.000 C 
ATOM      7  O   UNL     1      23.606   6.091 188.003  0.00  0.00    +0.000 OA
ATOM      8  C   UNL     1      22.734   5.402 188.387  0.00  0.00    +0.000 C 
ENDROOT
BRANCH   1   9
ATOM      9  C   UNL     1      18.521   2.074 190.240  0.00  0.00    +0.000 C 
ATOM     10  C   UNL     1      18.260   1.881 191.713  0.00  0.00    +0.000 C 
ATOM     11  C   UNL     1      17.614   1.345 189.281  0.00  0.00    +0.000 C 
ENDBRANCH   1   9
TORSDOF 1
ENDMDL
MODEL 9
REMARK VINA RESULT:      -5.2     29.580     30.615
REMARK  Name = 326_Cuminaldehyde.pdb
REMARK  1 active torsions:
REMARK  status: ('A' for Active; 'I' for Inactive)
REMARK    1  A    between atoms: C_1  and  C_7
REMARK                            x       y       z     vdW  Elec       q    Type
REMARK                         _______ _______ _______ _____ _____    ______ ____
ROOT
ATOM      1  C   UNL     1      41.904  -7.150 166.629  0.00  0.00    +0.000 C 
ATOM      2  C   UNL     1      40.739  -6.378 166.647  0.00  0.00    +0.000 C 
ATOM      3  C   UNL     1      41.970  -8.276 165.805  0.00  0.00    +0.000 C 
ATOM      4  C   UNL     1      39.653  -6.727 165.846  0.00  0.00    +0.000 C 
ATOM      5  C   UNL     1      40.883  -8.626 165.005  0.00  0.00    +0.000 C 
ATOM      6  C   UNL     1      39.726  -7.850 165.026  0.00  0.00    +0.000 C 
ATOM      7  O   UNL     1      37.698  -8.503 163.532  0.00  0.00    +0.000 OA
ATOM      8  C   UNL     1      38.615  -8.208 164.208  0.00  0.00    +0.000 C 
ENDROOT
BRANCH   1   9
ATOM      9  C   UNL     1      43.041  -6.784 167.468  0.00  0.00    +0.000 C 
ATOM     10  C   UNL     1      44.461  -6.948 166.985  0.00  0.00    +0.000 C 
ATOM     11  C   UNL     1      42.850  -6.224 168.855  0.00  0.00    +0.000 C 
ENDBRANCH   1   9
TORSDOF 1
ENDMDL
