MODEL 1
REMARK VINA RESULT:      -6.2      0.000      0.000
REMARK  Name = 3363_5FluorouracilDeoxyriboside.pdbqt.pdb
REMARK  4 active torsions:
REMARK  status: ('A' for Active; 'I' for Inactive)
REMARK    1  A    between atoms: N_4  and  C1*_13
REMARK    2  A    between atoms: C3*_12  and  O3*_16
REMARK    3  A    between atoms: C4*_15  and  C5*_18
REMARK    4  A    between atoms: C5*_18  and  O5*_19
REMARK                            x       y       z     vdW  Elec       q    Type
REMARK                         _______ _______ _______ _____ _____    ______ ____
ROOT
ATOM      1  F   UNL     1      21.671   0.509 191.032  0.00  0.00    +0.000 F 
ATOM      2  O   UNL     1      17.847   2.675 187.837  0.00  0.00    +0.000 OA
ATOM      3  O   UNL     1      18.920   0.413 191.684  0.00  0.00    +0.000 OA
ATOM      4  N   UNL     1      20.143   2.436 188.380  0.00  0.00    +0.000 N 
ATOM      5  N   UNL     1      18.441   1.627 189.787  0.00  0.00    +0.000 N 
ATOM      6  C   UNL     1      18.748   2.297 188.577  0.00  0.00    +0.000 C 
ATOM      7  C   UNL     1      20.952   1.933 189.335  0.00  0.00    +0.000 C 
ATOM      8  C   UNL     1      20.767   1.318 190.453  0.00  0.00    +0.000 C 
ATOM      9  C   UNL     1      19.316   1.067 190.728  0.00  0.00    +0.000 C 
ATOM     10  H   UNL     1      17.457   1.469 189.951  0.00  0.00    +0.000 HD
ENDROOT
BRANCH   4  13
ATOM     11  O4* UNL     1      21.857   3.825 187.387  0.00  0.00    +0.000 OA
ATOM     12  C3* UNL     1      21.177   3.746 185.174  0.00  0.00    +0.000 A 
ATOM     13  C1* UNL     1      20.704   3.036 187.289  0.00  0.00    +0.000 A 
ATOM     14  C2* UNL     1      20.288   2.975 185.945  0.00  0.00    +0.000 A 
ATOM     15  C4* UNL     1      22.158   4.267 186.094  0.00  0.00    +0.000 A 
BRANCH  12  16
ATOM     16  O3* UNL     1      21.481   3.468 183.871  0.00  0.00    +0.000 OA
ATOM     17  H3* UNL     1      21.094   4.118 183.257  0.00  0.00    +0.000 HD
ENDBRANCH  12  16
BRANCH  15  18
ATOM     18  C5* UNL     1      23.364   4.925 185.780  0.00  0.00    +0.000 C 
BRANCH  18  19
ATOM     19  O5* UNL     1      24.490   5.560 185.477  0.00  0.00    +0.000 OA
ATOM     20  H5* UNL     1      24.549   5.717 184.518  0.00  0.00    +0.000 HD
ENDBRANCH  18  19
ENDBRANCH  15  18
ENDBRANCH   4  13
TORSDOF 4
ENDMDL
MODEL 2
REMARK VINA RESULT:      -6.1      2.813      6.780
REMARK  Name = 3363_5FluorouracilDeoxyriboside.pdbqt.pdb
REMARK  4 active torsions:
REMARK  status: ('A' for Active; 'I' for Inactive)
REMARK    1  A    between atoms: N_4  and  C1*_13
REMARK    2  A    between atoms: C3*_12  and  O3*_16
REMARK    3  A    between atoms: C4*_15  and  C5*_18
REMARK    4  A    between atoms: C5*_18  and  O5*_19
REMARK                            x       y       z     vdW  Elec       q    Type
REMARK                         _______ _______ _______ _____ _____    ______ ____
ROOT
ATOM      1  F   UNL     1      21.699   2.754 188.227  0.00  0.00    +0.000 F 
ATOM      2  O   UNL     1      16.757   1.334 189.980  0.00  0.00    +0.000 OA
ATOM      3  O   UNL     1      19.376   3.093 186.647  0.00  0.00    +0.000 OA
ATOM      4  N   UNL     1      19.109   1.265 190.265  0.00  0.00    +0.000 N 
ATOM      5  N   UNL     1      18.118   2.122 188.314  0.00  0.00    +0.000 N 
ATOM      6  C   UNL     1      17.898   1.538 189.585  0.00  0.00    +0.000 C 
ATOM      7  C   UNL     1      20.256   1.584 189.632  0.00  0.00    +0.000 C 
ATOM      8  C   UNL     1      20.550   2.108 188.491  0.00  0.00    +0.000 C 
ATOM      9  C   UNL     1      19.329   2.491 187.713  0.00  0.00    +0.000 C 
ATOM     10  H   UNL     1      17.280   2.373 187.807  0.00  0.00    +0.000 HD
ENDROOT
BRANCH   4  13
ATOM     11  O4* UNL     1      19.925  -0.444 191.772  0.00  0.00    +0.000 OA
ATOM     12  C3* UNL     1      18.929   0.275 193.737  0.00  0.00    +0.000 A 
ATOM     13  C1* UNL     1      19.176   0.712 191.513  0.00  0.00    +0.000 A 
ATOM     14  C2* UNL     1      18.575   1.160 192.704  0.00  0.00    +0.000 A 
ATOM     15  C4* UNL     1      19.781  -0.723 193.136  0.00  0.00    +0.000 A 
BRANCH  12  16
ATOM     16  O3* UNL     1      19.069   0.655 195.042  0.00  0.00    +0.000 OA
ATOM     17  H3* UNL     1      19.690   0.082 195.527  0.00  0.00    +0.000 HD
ENDBRANCH  12  16
BRANCH  15  18
ATOM     18  C5* UNL     1      20.551  -1.702 193.793  0.00  0.00    +0.000 C 
BRANCH  18  19
ATOM     19  O5* UNL     1      21.271  -2.640 194.399  0.00  0.00    +0.000 OA
ATOM     20  H5* UNL     1      21.855  -3.090 193.763  0.00  0.00    +0.000 HD
ENDBRANCH  18  19
ENDBRANCH  15  18
ENDBRANCH   4  13
TORSDOF 4
ENDMDL
MODEL 3
REMARK VINA RESULT:      -5.9      2.163      2.695
REMARK  Name = 3363_5FluorouracilDeoxyriboside.pdbqt.pdb
REMARK  4 active torsions:
REMARK  status: ('A' for Active; 'I' for Inactive)
REMARK    1  A    between atoms: N_4  and  C1*_13
REMARK    2  A    between atoms: C3*_12  and  O3*_16
REMARK    3  A    between atoms: C4*_15  and  C5*_18
REMARK    4  A    between atoms: C5*_18  and  O5*_19
REMARK                            x       y       z     vdW  Elec       q    Type
REMARK                         _______ _______ _______ _____ _____    ______ ____
ROOT
ATOM      1  F   UNL     1      21.260   1.573 193.532  0.00  0.00    +0.000 F 
ATOM      2  O   UNL     1      16.972   1.187 190.219  0.00  0.00    +0.000 OA
ATOM      3  O   UNL     1      18.860   0.289 194.305  0.00  0.00    +0.000 OA
ATOM      4  N   UNL     1      19.090   2.141 190.696  0.00  0.00    +0.000 N 
ATOM      5  N   UNL     1      17.927   0.841 192.273  0.00  0.00    +0.000 N 
ATOM      6  C   UNL     1      17.920   1.392 190.968  0.00  0.00    +0.000 C 
ATOM      7  C   UNL     1      20.010   2.224 191.679  0.00  0.00    +0.000 C 
ATOM      8  C   UNL     1      20.102   1.765 192.881  0.00  0.00    +0.000 C 
ATOM      9  C   UNL     1      18.932   0.904 193.248  0.00  0.00    +0.000 C 
ATOM     10  H   UNL     1      17.130   0.265 192.499  0.00  0.00    +0.000 HD
ENDROOT
BRANCH   4  13
ATOM     11  O4* UNL     1      20.331   3.745 189.377  0.00  0.00    +0.000 OA
ATOM     12  C3* UNL     1      19.301   3.429 187.325  0.00  0.00    +0.000 A 
ATOM     13  C1* UNL     1      19.337   2.766 189.507  0.00  0.00    +0.000 A 
ATOM     14  C2* UNL     1      18.712   2.562 188.262  0.00  0.00    +0.000 A 
ATOM     15  C4* UNL     1      20.319   4.161 188.040  0.00  0.00    +0.000 A 
BRANCH  12  16
ATOM     16  O3* UNL     1      19.419   3.137 185.996  0.00  0.00    +0.000 OA
ATOM     17  H3* UNL     1      19.894   2.300 185.845  0.00  0.00    +0.000 HD
ENDBRANCH  12  16
BRANCH  15  18
ATOM     18  C5* UNL     1      21.315   4.996 187.499  0.00  0.00    +0.000 C 
BRANCH  18  19
ATOM     19  O5* UNL     1      22.266   5.782 187.006  0.00  0.00    +0.000 OA
ATOM     20  H5* UNL     1      22.308   5.705 186.037  0.00  0.00    +0.000 HD
ENDBRANCH  18  19
ENDBRANCH  15  18
ENDBRANCH   4  13
TORSDOF 4
ENDMDL
MODEL 4
REMARK VINA RESULT:      -5.7      2.130      3.279
REMARK  Name = 3363_5FluorouracilDeoxyriboside.pdbqt.pdb
REMARK  4 active torsions:
REMARK  status: ('A' for Active; 'I' for Inactive)
REMARK    1  A    between atoms: N_4  and  C1*_13
REMARK    2  A    between atoms: C3*_12  and  O3*_16
REMARK    3  A    between atoms: C4*_15  and  C5*_18
REMARK    4  A    between atoms: C5*_18  and  O5*_19
REMARK                            x       y       z     vdW  Elec       q    Type
REMARK                         _______ _______ _______ _____ _____    ______ ____
ROOT
ATOM      1  F   UNL     1      22.749  -0.930 192.205  0.00  0.00    +0.000 F 
ATOM      2  O   UNL     1      17.870   0.877 190.642  0.00  0.00    +0.000 OA
ATOM      3  O   UNL     1      20.338  -2.035 193.189  0.00  0.00    +0.000 OA
ATOM      4  N   UNL     1      20.221   1.176 190.704  0.00  0.00    +0.000 N 
ATOM      5  N   UNL     1      19.146  -0.495 191.961  0.00  0.00    +0.000 N 
ATOM      6  C   UNL     1      18.986   0.575 191.047  0.00  0.00    +0.000 C 
ATOM      7  C   UNL     1      21.332   0.667 191.274  0.00  0.00    +0.000 C 
ATOM      8  C   UNL     1      21.572  -0.289 192.105  0.00  0.00    +0.000 C 
ATOM      9  C   UNL     1      20.328  -1.032 192.488  0.00  0.00    +0.000 C 
ATOM     10  H   UNL     1      18.295  -0.981 192.204  0.00  0.00    +0.000 HD
ENDROOT
BRANCH   4  13
ATOM     11  O4* UNL     1      20.526   2.023 188.458  0.00  0.00    +0.000 OA
ATOM     12  C3* UNL     1      20.474   4.297 188.898  0.00  0.00    +0.000 A 
ATOM     13  C1* UNL     1      20.346   2.221 189.833  0.00  0.00    +0.000 A 
ATOM     14  C2* UNL     1      20.305   3.601 190.109  0.00  0.00    +0.000 A 
ATOM     15  C4* UNL     1      20.606   3.292 187.872  0.00  0.00    +0.000 A 
BRANCH  12  16
ATOM     16  O3* UNL     1      19.918   5.520 188.647  0.00  0.00    +0.000 OA
ATOM     17  H3* UNL     1      19.536   5.573 187.752  0.00  0.00    +0.000 HD
ENDBRANCH  12  16
BRANCH  15  18
ATOM     18  C5* UNL     1      20.591   3.483 186.476  0.00  0.00    +0.000 C 
BRANCH  18  19
ATOM     19  O5* UNL     1      20.579   3.684 185.163  0.00  0.00    +0.000 OA
ATOM     20  H5* UNL     1      19.679   3.891 184.856  0.00  0.00    +0.000 HD
ENDBRANCH  18  19
ENDBRANCH  15  18
ENDBRANCH   4  13
TORSDOF 4
ENDMDL
MODEL 5
REMARK VINA RESULT:      -5.7     31.115     33.434
REMARK  Name = 3363_5FluorouracilDeoxyriboside.pdbqt.pdb
REMARK  4 active torsions:
REMARK  status: ('A' for Active; 'I' for Inactive)
REMARK    1  A    between atoms: N_4  and  C1*_13
REMARK    2  A    between atoms: C3*_12  and  O3*_16
REMARK    3  A    between atoms: C4*_15  and  C5*_18
REMARK    4  A    between atoms: C5*_18  and  O5*_19
REMARK                            x       y       z     vdW  Elec       q    Type
REMARK                         _______ _______ _______ _____ _____    ______ ____
ROOT
ATOM      1  F   UNL     1      45.147  -4.288 163.064  0.00  0.00    +0.000 F 
ATOM      2  O   UNL     1      44.425  -7.734 167.201  0.00  0.00    +0.000 OA
ATOM      3  O   UNL     1      47.149  -4.764 165.004  0.00  0.00    +0.000 OA
ATOM      4  N   UNL     1      43.498  -6.500 165.401  0.00  0.00    +0.000 N 
ATOM      5  N   UNL     1      45.713  -6.178 166.119  0.00  0.00    +0.000 N 
ATOM      6  C   UNL     1      44.504  -6.888 166.317  0.00  0.00    +0.000 C 
ATOM      7  C   UNL     1      43.817  -5.545 164.505  0.00  0.00    +0.000 C 
ATOM      8  C   UNL     1      44.874  -4.850 164.253  0.00  0.00    +0.000 C 
ATOM      9  C   UNL     1      46.024  -5.229 165.136  0.00  0.00    +0.000 C 
ATOM     10  H   UNL     1      46.474  -6.450 166.725  0.00  0.00    +0.000 HD
ENDROOT
BRANCH   4  13
ATOM     11  O4* UNL     1      41.092  -6.244 165.444  0.00  0.00    +0.000 OA
ATOM     12  C3* UNL     1      40.469  -8.468 165.260  0.00  0.00    +0.000 A 
ATOM     13  C1* UNL     1      42.243  -7.039 165.371  0.00  0.00    +0.000 A 
ATOM     14  C2* UNL     1      41.873  -8.393 165.250  0.00  0.00    +0.000 A 
ATOM     15  C4* UNL     1      39.995  -7.110 165.377  0.00  0.00    +0.000 A 
BRANCH  12  16
ATOM     16  O3* UNL     1      39.760  -9.427 164.593  0.00  0.00    +0.000 OA
ATOM     17  H3* UNL     1      40.251 -10.266 164.525  0.00  0.00    +0.000 HD
ENDBRANCH  12  16
BRANCH  15  18
ATOM     18  C5* UNL     1      38.673  -6.646 165.226  0.00  0.00    +0.000 C 
BRANCH  18  19
ATOM     19  O5* UNL     1      37.424  -6.209 165.105  0.00  0.00    +0.000 OA
ATOM     20  H5* UNL     1      36.967  -6.231 165.964  0.00  0.00    +0.000 HD
ENDBRANCH  18  19
ENDBRANCH  15  18
ENDBRANCH   4  13
TORSDOF 4
ENDMDL
MODEL 6
REMARK VINA RESULT:      -5.6     31.533     33.632
REMARK  Name = 3363_5FluorouracilDeoxyriboside.pdbqt.pdb
REMARK  4 active torsions:
REMARK  status: ('A' for Active; 'I' for Inactive)
REMARK    1  A    between atoms: N_4  and  C1*_13
REMARK    2  A    between atoms: C3*_12  and  O3*_16
REMARK    3  A    between atoms: C4*_15  and  C5*_18
REMARK    4  A    between atoms: C5*_18  and  O5*_19
REMARK                            x       y       z     vdW  Elec       q    Type
REMARK                         _______ _______ _______ _____ _____    ______ ____
ROOT
ATOM      1  F   UNL     1      44.123  -9.503 161.601  0.00  0.00    +0.000 F 
ATOM      2  O   UNL     1      39.806  -9.627 164.896  0.00  0.00    +0.000 OA
ATOM      3  O   UNL     1      42.183 -11.558 161.477  0.00  0.00    +0.000 OA
ATOM      4  N   UNL     1      41.922  -8.703 164.355  0.00  0.00    +0.000 N 
ATOM      5  N   UNL     1      41.074 -10.599 163.253  0.00  0.00    +0.000 N 
ATOM      6  C   UNL     1      40.847  -9.618 164.249  0.00  0.00    +0.000 C 
ATOM      7  C   UNL     1      42.970  -8.887 163.528  0.00  0.00    +0.000 C 
ATOM      8  C   UNL     1      43.263  -9.739 162.605  0.00  0.00    +0.000 C 
ATOM      9  C   UNL     1      42.157 -10.723 162.372  0.00  0.00    +0.000 C 
ATOM     10  H   UNL     1      40.316 -11.251 163.113  0.00  0.00    +0.000 HD
ENDROOT
BRANCH   4  13
ATOM     11  O4* UNL     1      42.232  -7.833 166.592  0.00  0.00    +0.000 OA
ATOM     12  C3* UNL     1      41.869  -5.582 166.178  0.00  0.00    +0.000 A 
ATOM     13  C1* UNL     1      41.949  -7.655 165.231  0.00  0.00    +0.000 A 
ATOM     14  C2* UNL     1      41.735  -6.288 164.969  0.00  0.00    +0.000 A 
ATOM     15  C4* UNL     1      42.186  -6.565 167.185  0.00  0.00    +0.000 A 
BRANCH  12  16
ATOM     16  O3* UNL     1      42.324  -4.295 166.254  0.00  0.00    +0.000 OA
ATOM     17  H3* UNL     1      41.613  -3.667 166.475  0.00  0.00    +0.000 HD
ENDBRANCH  12  16
BRANCH  15  18
ATOM     18  C5* UNL     1      42.612  -6.333 168.507  0.00  0.00    +0.000 C 
BRANCH  18  19
ATOM     19  O5* UNL     1      43.033  -6.111 169.747  0.00  0.00    +0.000 OA
ATOM     20  H5* UNL     1      44.005  -6.071 169.778  0.00  0.00    +0.000 HD
ENDBRANCH  18  19
ENDBRANCH  15  18
ENDBRANCH   4  13
TORSDOF 4
ENDMDL
MODEL 7
REMARK VINA RESULT:      -5.3     29.089     30.201
REMARK  Name = 3363_5FluorouracilDeoxyriboside.pdbqt.pdb
REMARK  4 active torsions:
REMARK  status: ('A' for Active; 'I' for Inactive)
REMARK    1  A    between atoms: N_4  and  C1*_13
REMARK    2  A    between atoms: C3*_12  and  O3*_16
REMARK    3  A    between atoms: C4*_15  and  C5*_18
REMARK    4  A    between atoms: C5*_18  and  O5*_19
REMARK                            x       y       z     vdW  Elec       q    Type
REMARK                         _______ _______ _______ _____ _____    ______ ____
ROOT
ATOM      1  F   UNL     1      44.691 -19.767 186.389  0.00  0.00    +0.000 F 
ATOM      2  O   UNL     1      42.146 -16.328 189.736  0.00  0.00    +0.000 OA
ATOM      3  O   UNL     1      45.730 -17.210 187.008  0.00  0.00    +0.000 OA
ATOM      4  N   UNL     1      42.095 -18.317 188.446  0.00  0.00    +0.000 N 
ATOM      5  N   UNL     1      43.869 -16.781 188.295  0.00  0.00    +0.000 N 
ATOM      6  C   UNL     1      42.629 -17.089 188.906  0.00  0.00    +0.000 C 
ATOM      7  C   UNL     1      42.812 -18.993 187.526  0.00  0.00    +0.000 C 
ATOM      8  C   UNL     1      43.933 -18.794 186.918  0.00  0.00    +0.000 C 
ATOM      9  C   UNL     1      44.611 -17.540 187.381  0.00  0.00    +0.000 C 
ATOM     10  H   UNL     1      44.308 -15.932 188.622  0.00  0.00    +0.000 HD
ENDROOT
BRANCH   4  13
ATOM     11  O4* UNL     1      39.746 -18.083 188.977  0.00  0.00    +0.000 OA
ATOM     12  C3* UNL     1      39.290 -20.254 189.648  0.00  0.00    +0.000 A 
ATOM     13  C1* UNL     1      40.916 -18.849 188.884  0.00  0.00    +0.000 A 
ATOM     14  C2* UNL     1      40.645 -20.172 189.282  0.00  0.00    +0.000 A 
ATOM     15  C4* UNL     1      38.740 -18.936 189.446  0.00  0.00    +0.000 A 
BRANCH  12  16
ATOM     16  O3* UNL     1      38.536 -21.384 189.502  0.00  0.00    +0.000 OA
ATOM     17  H3* UNL     1      38.634 -21.779 188.617  0.00  0.00    +0.000 HD
ENDBRANCH  12  16
BRANCH  15  18
ATOM     18  C5* UNL     1      37.383 -18.558 189.477  0.00  0.00    +0.000 C 
BRANCH  18  19
ATOM     19  O5* UNL     1      36.105 -18.197 189.526  0.00  0.00    +0.000 OA
ATOM     20  H5* UNL     1      35.965 -17.521 190.212  0.00  0.00    +0.000 HD
ENDBRANCH  18  19
ENDBRANCH  15  18
ENDBRANCH   4  13
TORSDOF 4
ENDMDL
MODEL 8
REMARK VINA RESULT:      -5.3     23.665     26.051
REMARK  Name = 3363_5FluorouracilDeoxyriboside.pdbqt.pdb
REMARK  4 active torsions:
REMARK  status: ('A' for Active; 'I' for Inactive)
REMARK    1  A    between atoms: N_4  and  C1*_13
REMARK    2  A    between atoms: C3*_12  and  O3*_16
REMARK    3  A    between atoms: C4*_15  and  C5*_18
REMARK    4  A    between atoms: C5*_18  and  O5*_19
REMARK                            x       y       z     vdW  Elec       q    Type
REMARK                         _______ _______ _______ _____ _____    ______ ____
ROOT
ATOM      1  F   UNL     1      41.077   5.599 175.815  0.00  0.00    +0.000 F 
ATOM      2  O   UNL     1      41.956   0.311 174.933  0.00  0.00    +0.000 OA
ATOM      3  O   UNL     1      39.197   3.953 174.489  0.00  0.00    +0.000 OA
ATOM      4  N   UNL     1      42.801   2.429 175.583  0.00  0.00    +0.000 N 
ATOM      5  N   UNL     1      40.654   2.177 174.658  0.00  0.00    +0.000 N 
ATOM      6  C   UNL     1      41.847   1.526 175.057  0.00  0.00    +0.000 C 
ATOM      7  C   UNL     1      42.455   3.732 175.627  0.00  0.00    +0.000 C 
ATOM      8  C   UNL     1      41.410   4.408 175.291  0.00  0.00    +0.000 C 
ATOM      9  C   UNL     1      40.311   3.531 174.773  0.00  0.00    +0.000 C 
ATOM     10  H   UNL     1      39.928   1.567 174.313  0.00  0.00    +0.000 HD
ENDROOT
BRANCH   4  13
ATOM     11  O4* UNL     1      44.187   1.019 176.978  0.00  0.00    +0.000 OA
ATOM     12  C3* UNL     1      46.270   1.879 176.437  0.00  0.00    +0.000 A 
ATOM     13  C1* UNL     1      44.030   2.057 176.049  0.00  0.00    +0.000 A 
ATOM     14  C2* UNL     1      45.292   2.580 175.709  0.00  0.00    +0.000 A 
ATOM     15  C4* UNL     1      45.560   0.901 177.224  0.00  0.00    +0.000 A 
BRANCH  12  16
ATOM     16  O3* UNL     1      47.538   1.659 175.979  0.00  0.00    +0.000 OA
ATOM     17  H3* UNL     1      47.975   0.924 176.447  0.00  0.00    +0.000 HD
ENDBRANCH  12  16
BRANCH  15  18
ATOM     18  C5* UNL     1      46.107  -0.170 177.960  0.00  0.00    +0.000 C 
BRANCH  18  19
ATOM     19  O5* UNL     1      46.602  -1.185 178.658  0.00  0.00    +0.000 OA
ATOM     20  H5* UNL     1      47.563  -1.261 178.520  0.00  0.00    +0.000 HD
ENDBRANCH  18  19
ENDBRANCH  15  18
ENDBRANCH   4  13
TORSDOF 4
ENDMDL
MODEL 9
REMARK VINA RESULT:      -5.3     30.757     32.749
REMARK  Name = 3363_5FluorouracilDeoxyriboside.pdbqt.pdb
REMARK  4 active torsions:
REMARK  status: ('A' for Active; 'I' for Inactive)
REMARK    1  A    between atoms: N_4  and  C1*_13
REMARK    2  A    between atoms: C3*_12  and  O3*_16
REMARK    3  A    between atoms: C4*_15  and  C5*_18
REMARK    4  A    between atoms: C5*_18  and  O5*_19
REMARK                            x       y       z     vdW  Elec       q    Type
REMARK                         _______ _______ _______ _____ _____    ______ ____
ROOT
ATOM      1  F   UNL     1      39.478  -6.821 161.952  0.00  0.00    +0.000 F 
ATOM      2  O   UNL     1      40.394  -6.162 167.266  0.00  0.00    +0.000 OA
ATOM      3  O   UNL     1      37.385  -6.407 163.809  0.00  0.00    +0.000 OA
ATOM      4  N   UNL     1      41.210  -6.774 165.125  0.00  0.00    +0.000 N 
ATOM      5  N   UNL     1      38.926  -6.380 165.520  0.00  0.00    +0.000 N 
ATOM      6  C   UNL     1      40.226  -6.422 166.080  0.00  0.00    +0.000 C 
ATOM      7  C   UNL     1      40.789  -7.012 163.867  0.00  0.00    +0.000 C 
ATOM      8  C   UNL     1      39.644  -7.000 163.273  0.00  0.00    +0.000 C 
ATOM      9  C   UNL     1      38.536  -6.580 164.189  0.00  0.00    +0.000 C 
ATOM     10  H   UNL     1      38.195  -6.094 166.155  0.00  0.00    +0.000 HD
ENDROOT
BRANCH   4  13
ATOM     11  O4* UNL     1      43.439  -5.831 165.133  0.00  0.00    +0.000 OA
ATOM     12  C3* UNL     1      44.596  -7.598 166.086  0.00  0.00    +0.000 A 
ATOM     13  C1* UNL     1      42.544  -6.874 165.404  0.00  0.00    +0.000 A 
ATOM     14  C2* UNL     1      43.238  -7.949 165.992  0.00  0.00    +0.000 A 
ATOM     15  C4* UNL     1      44.704  -6.264 165.547  0.00  0.00    +0.000 A 
BRANCH  12  16
ATOM     16  O3* UNL     1      45.426  -8.049 167.073  0.00  0.00    +0.000 OA
ATOM     17  H3* UNL     1      45.613  -7.362 167.739  0.00  0.00    +0.000 HD
ENDBRANCH  12  16
BRANCH  15  18
ATOM     18  C5* UNL     1      45.816  -5.401 165.608  0.00  0.00    +0.000 C 
BRANCH  18  19
ATOM     19  O5* UNL     1      46.874  -4.600 165.678  0.00  0.00    +0.000 OA
ATOM     20  H5* UNL     1      47.315  -4.536 164.813  0.00  0.00    +0.000 HD
ENDBRANCH  18  19
ENDBRANCH  15  18
ENDBRANCH   4  13
TORSDOF 4
ENDMDL
