MODEL 1
REMARK VINA RESULT:      -4.7      0.000      0.000
REMARK  Name = 3385_5Fluorouracil.pdbqt.pdb
REMARK  0 active torsions:
REMARK  status: ('A' for Active; 'I' for Inactive)
REMARK                            x       y       z     vdW  Elec       q    Type
REMARK                         _______ _______ _______ _____ _____    ______ ____
ROOT
ATOM      1  F   UNL     1      32.157   2.153 166.349  0.00  0.00    +0.000 F 
ATOM      2  O   UNL     1      32.222  -0.592 165.652  0.00  0.00    +0.000 OA
ATOM      3  O   UNL     1      28.893  -1.480 168.719  0.00  0.00    +0.000 OA
ATOM      4  N   UNL     1      30.610  -1.038 167.233  0.00  0.00    +0.000 N 
ATOM      5  N   UNL     1      29.788   0.640 168.611  0.00  0.00    +0.000 N 
ATOM      6  C   UNL     1      31.530  -0.202 166.584  0.00  0.00    +0.000 C 
ATOM      7  C   UNL     1      29.694  -0.692 168.236  0.00  0.00    +0.000 C 
ATOM      8  C   UNL     1      31.585   1.205 167.110  0.00  0.00    +0.000 C 
ATOM      9  C   UNL     1      30.697   1.428 168.020  0.00  0.00    +0.000 C 
ATOM     10  H   UNL     1      30.559  -1.988 166.896  0.00  0.00    +0.000 HD
ATOM     11  H   UNL     1      29.165   0.991 169.326  0.00  0.00    +0.000 HD
ENDROOT
TORSDOF 0
ENDMDL
MODEL 2
REMARK VINA RESULT:      -4.5     20.948     22.106
REMARK  Name = 3385_5Fluorouracil.pdbqt.pdb
REMARK  0 active torsions:
REMARK  status: ('A' for Active; 'I' for Inactive)
REMARK                            x       y       z     vdW  Elec       q    Type
REMARK                         _______ _______ _______ _____ _____    ______ ____
ROOT
ATOM      1  F   UNL     1      18.833   3.694 187.386  0.00  0.00    +0.000 F 
ATOM      2  O   UNL     1      20.616   5.602 188.483  0.00  0.00    +0.000 OA
ATOM      3  O   UNL     1      23.241   5.370 184.697  0.00  0.00    +0.000 OA
ATOM      4  N   UNL     1      21.957   5.429 186.621  0.00  0.00    +0.000 N 
ATOM      5  N   UNL     1      21.455   3.932 184.919  0.00  0.00    +0.000 N 
ATOM      6  C   UNL     1      20.876   5.041 187.426  0.00  0.00    +0.000 C 
ATOM      7  C   UNL     1      22.301   4.942 185.352  0.00  0.00    +0.000 C 
ATOM      8  C   UNL     1      20.061   3.902 186.883  0.00  0.00    +0.000 C 
ATOM      9  C   UNL     1      20.447   3.533 185.708  0.00  0.00    +0.000 C 
ATOM     10  H   UNL     1      22.519   6.192 186.968  0.00  0.00    +0.000 HD
ATOM     11  H   UNL     1      21.615   3.517 184.010  0.00  0.00    +0.000 HD
ENDROOT
TORSDOF 0
ENDMDL
MODEL 3
REMARK VINA RESULT:      -4.4     21.502     22.653
REMARK  Name = 3385_5Fluorouracil.pdbqt.pdb
REMARK  0 active torsions:
REMARK  status: ('A' for Active; 'I' for Inactive)
REMARK                            x       y       z     vdW  Elec       q    Type
REMARK                         _______ _______ _______ _____ _____    ______ ____
ROOT
ATOM      1  F   UNL     1      19.749   4.649 189.323  0.00  0.00    +0.000 F 
ATOM      2  O   UNL     1      18.376   2.825 187.646  0.00  0.00    +0.000 OA
ATOM      3  O   UNL     1      21.517   3.467 184.329  0.00  0.00    +0.000 OA
ATOM      4  N   UNL     1      19.908   3.203 185.970  0.00  0.00    +0.000 N 
ATOM      5  N   UNL     1      21.619   4.749 186.240  0.00  0.00    +0.000 N 
ATOM      6  C   UNL     1      19.333   3.462 187.223  0.00  0.00    +0.000 C 
ATOM      7  C   UNL     1      21.058   3.784 185.416  0.00  0.00    +0.000 C 
ATOM      8  C   UNL     1      19.991   4.564 188.005  0.00  0.00    +0.000 C 
ATOM      9  C   UNL     1      21.044   5.026 187.419  0.00  0.00    +0.000 C 
ATOM     10  H   UNL     1      19.480   2.468 185.428  0.00  0.00    +0.000 HD
ATOM     11  H   UNL     1      22.458   5.225 185.933  0.00  0.00    +0.000 HD
ENDROOT
TORSDOF 0
ENDMDL
MODEL 4
REMARK VINA RESULT:      -4.4     20.394     21.444
REMARK  Name = 3385_5Fluorouracil.pdbqt.pdb
REMARK  0 active torsions:
REMARK  status: ('A' for Active; 'I' for Inactive)
REMARK                            x       y       z     vdW  Elec       q    Type
REMARK                         _______ _______ _______ _____ _____    ______ ____
ROOT
ATOM      1  F   UNL     1      19.469   2.996 185.889  0.00  0.00    +0.000 F 
ATOM      2  O   UNL     1      21.505   3.398 183.962  0.00  0.00    +0.000 OA
ATOM      3  O   UNL     1      23.982   5.786 187.034  0.00  0.00    +0.000 OA
ATOM      4  N   UNL     1      22.703   4.647 185.479  0.00  0.00    +0.000 N 
ATOM      5  N   UNL     1      21.858   5.093 187.594  0.00  0.00    +0.000 N 
ATOM      6  C   UNL     1      21.564   3.947 185.055  0.00  0.00    +0.000 C 
ATOM      7  C   UNL     1      22.937   5.229 186.733  0.00  0.00    +0.000 C 
ATOM      8  C   UNL     1      20.438   3.912 186.049  0.00  0.00    +0.000 C 
ATOM      9  C   UNL     1      20.753   4.461 187.174  0.00  0.00    +0.000 C 
ATOM     10  H   UNL     1      23.471   4.684 184.825  0.00  0.00    +0.000 HD
ATOM     11  H   UNL     1      21.928   5.476 188.529  0.00  0.00    +0.000 HD
ENDROOT
TORSDOF 0
ENDMDL
MODEL 5
REMARK VINA RESULT:      -4.4     21.320     22.093
REMARK  Name = 3385_5Fluorouracil.pdbqt.pdb
REMARK  0 active torsions:
REMARK  status: ('A' for Active; 'I' for Inactive)
REMARK                            x       y       z     vdW  Elec       q    Type
REMARK                         _______ _______ _______ _____ _____    ______ ____
ROOT
ATOM      1  F   UNL     1      23.268   6.522 188.423  0.00  0.00    +0.000 F 
ATOM      2  O   UNL     1      23.923   5.330 185.938  0.00  0.00    +0.000 OA
ATOM      3  O   UNL     1      19.742   3.392 185.732  0.00  0.00    +0.000 OA
ATOM      4  N   UNL     1      21.860   4.311 185.876  0.00  0.00    +0.000 N 
ATOM      5  N   UNL     1      20.358   4.542 187.631  0.00  0.00    +0.000 N 
ATOM      6  C   UNL     1      22.867   5.063 186.499  0.00  0.00    +0.000 C 
ATOM      7  C   UNL     1      20.577   4.024 186.363  0.00  0.00    +0.000 C 
ATOM      8  C   UNL     1      22.541   5.526 187.890  0.00  0.00    +0.000 C 
ATOM      9  C   UNL     1      21.336   5.225 188.243  0.00  0.00    +0.000 C 
ATOM     10  H   UNL     1      22.060   3.988 184.941  0.00  0.00    +0.000 HD
ATOM     11  H   UNL     1      19.459   4.394 188.071  0.00  0.00    +0.000 HD
ENDROOT
TORSDOF 0
ENDMDL
MODEL 6
REMARK VINA RESULT:      -4.2     25.702     26.463
REMARK  Name = 3385_5Fluorouracil.pdbqt.pdb
REMARK  0 active torsions:
REMARK  status: ('A' for Active; 'I' for Inactive)
REMARK                            x       y       z     vdW  Elec       q    Type
REMARK                         _______ _______ _______ _____ _____    ______ ____
ROOT
ATOM      1  F   UNL     1      18.564   2.860 188.358  0.00  0.00    +0.000 F 
ATOM      2  O   UNL     1      17.004   0.612 189.092  0.00  0.00    +0.000 OA
ATOM      3  O   UNL     1      18.572   0.899 193.420  0.00  0.00    +0.000 OA
ATOM      4  N   UNL     1      17.844   0.720 191.232  0.00  0.00    +0.000 N 
ATOM      5  N   UNL     1      19.446   2.297 191.811  0.00  0.00    +0.000 N 
ATOM      6  C   UNL     1      17.794   1.108 189.886  0.00  0.00    +0.000 C 
ATOM      7  C   UNL     1      18.623   1.274 192.257  0.00  0.00    +0.000 C 
ATOM      8  C   UNL     1      18.768   2.187 189.503  0.00  0.00    +0.000 C 
ATOM      9  C   UNL     1      19.428   2.640 190.515  0.00  0.00    +0.000 C 
ATOM     10  H   UNL     1      17.199  -0.005 191.510  0.00  0.00    +0.000 HD
ATOM     11  H   UNL     1      20.046   2.768 192.477  0.00  0.00    +0.000 HD
ENDROOT
TORSDOF 0
ENDMDL
MODEL 7
REMARK VINA RESULT:      -4.2     23.205     23.981
REMARK  Name = 3385_5Fluorouracil.pdbqt.pdb
REMARK  0 active torsions:
REMARK  status: ('A' for Active; 'I' for Inactive)
REMARK                            x       y       z     vdW  Elec       q    Type
REMARK                         _______ _______ _______ _____ _____    ______ ____
ROOT
ATOM      1  F   UNL     1      19.857   3.508 185.650  0.00  0.00    +0.000 F 
ATOM      2  O   UNL     1      21.001   5.416 187.404  0.00  0.00    +0.000 OA
ATOM      3  O   UNL     1      19.486   3.023 191.044  0.00  0.00    +0.000 OA
ATOM      4  N   UNL     1      20.182   4.253 189.213  0.00  0.00    +0.000 N 
ATOM      5  N   UNL     1      18.875   2.357 188.925  0.00  0.00    +0.000 N 
ATOM      6  C   UNL     1      20.305   4.507 187.840  0.00  0.00    +0.000 C 
ATOM      7  C   UNL     1      19.507   3.193 189.834  0.00  0.00    +0.000 C 
ATOM      8  C   UNL     1      19.534   3.571 186.953  0.00  0.00    +0.000 C 
ATOM      9  C   UNL     1      18.957   2.625 187.614  0.00  0.00    +0.000 C 
ATOM     10  H   UNL     1      20.691   4.872 189.827  0.00  0.00    +0.000 HD
ATOM     11  H   UNL     1      18.362   1.556 189.273  0.00  0.00    +0.000 HD
ENDROOT
TORSDOF 0
ENDMDL
MODEL 8
REMARK VINA RESULT:      -4.1     20.464     21.486
REMARK  Name = 3385_5Fluorouracil.pdbqt.pdb
REMARK  0 active torsions:
REMARK  status: ('A' for Active; 'I' for Inactive)
REMARK                            x       y       z     vdW  Elec       q    Type
REMARK                         _______ _______ _______ _____ _____    ______ ____
ROOT
ATOM      1  F   UNL     1      23.626   4.635 185.535  0.00  0.00    +0.000 F 
ATOM      2  O   UNL     1      21.538   3.675 183.879  0.00  0.00    +0.000 OA
ATOM      3  O   UNL     1      18.716   3.443 187.521  0.00  0.00    +0.000 OA
ATOM      4  N   UNL     1      20.158   3.496 185.712  0.00  0.00    +0.000 N 
ATOM      5  N   UNL     1      20.930   3.990 187.845  0.00  0.00    +0.000 N 
ATOM      6  C   UNL     1      21.395   3.729 185.094  0.00  0.00    +0.000 C 
ATOM      7  C   UNL     1      19.839   3.625 187.071  0.00  0.00    +0.000 C 
ATOM      8  C   UNL     1      22.518   4.064 186.035  0.00  0.00    +0.000 C 
ATOM      9  C   UNL     1      22.123   4.171 187.259  0.00  0.00    +0.000 C 
ATOM     10  H   UNL     1      19.390   3.268 185.098  0.00  0.00    +0.000 HD
ATOM     11  H   UNL     1      20.803   4.115 188.841  0.00  0.00    +0.000 HD
ENDROOT
TORSDOF 0
ENDMDL
MODEL 9
REMARK VINA RESULT:      -4.1     21.758     22.961
REMARK  Name = 3385_5Fluorouracil.pdbqt.pdb
REMARK  0 active torsions:
REMARK  status: ('A' for Active; 'I' for Inactive)
REMARK                            x       y       z     vdW  Elec       q    Type
REMARK                         _______ _______ _______ _____ _____    ______ ____
ROOT
ATOM      1  F   UNL     1      17.771   3.121 187.880  0.00  0.00    +0.000 F 
ATOM      2  O   UNL     1      19.688   1.841 189.526  0.00  0.00    +0.000 OA
ATOM      3  O   UNL     1      22.962   2.623 186.371  0.00  0.00    +0.000 OA
ATOM      4  N   UNL     1      21.300   2.173 187.917  0.00  0.00    +0.000 N 
ATOM      5  N   UNL     1      20.776   3.164 185.884  0.00  0.00    +0.000 N 
ATOM      6  C   UNL     1      19.982   2.204 188.393  0.00  0.00    +0.000 C 
ATOM      7  C   UNL     1      21.782   2.650 186.690  0.00  0.00    +0.000 C 
ATOM      8  C   UNL     1      18.969   2.729 187.415  0.00  0.00    +0.000 C 
ATOM      9  C   UNL     1      19.509   3.154 186.323  0.00  0.00    +0.000 C 
ATOM     10  H   UNL     1      21.996   1.822 188.558  0.00  0.00    +0.000 HD
ATOM     11  H   UNL     1      21.021   3.540 184.977  0.00  0.00    +0.000 HD
ENDROOT
TORSDOF 0
ENDMDL
