MODEL 1
REMARK VINA RESULT:      -7.3      0.000      0.000
REMARK  Name = 342374_SipholenolA.pdbqt.pdb
REMARK  5 active torsions:
REMARK  status: ('A' for Active; 'I' for Inactive)
REMARK    1  A    between atoms: C_3  and  C_20
REMARK    2  A    between atoms: C_4  and  O_16
REMARK    3  A    between atoms: C_13  and  O_18
REMARK    4  A    between atoms: C_21  and  C_25
REMARK    5  A    between atoms: C_26  and  O_36
REMARK                            x       y       z     vdW  Elec       q    Type
REMARK                         _______ _______ _______ _____ _____    ______ ____
ROOT
ATOM      1  O   UNL     1      32.535   1.985 188.762  0.00  0.00    +0.000 OA
ATOM      2  C   UNL     1      30.708   1.538 190.573  0.00  0.00    +0.000 C 
ATOM      3  C   UNL     1      30.218   1.957 191.963  0.00  0.00    +0.000 C 
ATOM      4  C   UNL     1      31.221   2.181 193.081  0.00  0.00    +0.000 C 
ATOM      5  C   UNL     1      32.100   2.136 190.083  0.00  0.00    +0.000 C 
ATOM      6  C   UNL     1      29.795   2.045 189.537  0.00  0.00    +0.000 C 
ATOM      7  C   UNL     1      32.530   2.401 192.500  0.00  0.00    +0.000 C 
ATOM      8  C   UNL     1      33.037   2.413 191.097  0.00  0.00    +0.000 C 
ATOM      9  C   UNL     1      30.805  -0.010 190.503  0.00  0.00    +0.000 C 
ATOM     10  C   UNL     1      29.801   2.677 188.167  0.00  0.00    +0.000 C 
ATOM     11  C   UNL     1      32.295   3.067 187.803  0.00  0.00    +0.000 C 
ATOM     12  C   UNL     1      30.797   3.358 193.973  0.00  0.00    +0.000 C 
ATOM     13  C   UNL     1      30.824   3.094 187.289  0.00  0.00    +0.000 C 
ATOM     14  C   UNL     1      32.631   4.463 188.404  0.00  0.00    +0.000 C 
ATOM     15  C   UNL     1      33.207   2.798 186.571  0.00  0.00    +0.000 C 
ENDROOT
BRANCH   4  16
ATOM     16  O   UNL     1      31.254   1.058 193.925  0.00  0.00    +0.000 OA
ATOM     17  H   UNL     1      30.847   1.415 194.734  0.00  0.00    +0.000 HD
ENDBRANCH   4  16
BRANCH  13  18
ATOM     18  O   UNL     1      30.485   3.498 186.001  0.00  0.00    +0.000 OA
ATOM     19  H   UNL     1      30.891   2.915 185.325  0.00  0.00    +0.000 HD
ENDBRANCH  13  18
BRANCH   3  20
ATOM     20  C   UNL     1      28.811   1.906 192.267  0.00  0.00    +0.000 C 
ATOM     21  C   UNL     1      27.312   1.853 192.575  0.00  0.00    +0.000 C 
BRANCH  21  25
ATOM     22  C   UNL     1      24.143   1.280 190.978  0.00  0.00    +0.000 C 
ATOM     23  C   UNL     1      24.964   0.770 192.193  0.00  0.00    +0.000 C 
ATOM     24  C   UNL     1      23.175   2.427 191.004  0.00  0.00    +0.000 C 
ATOM     25  C   UNL     1      25.905   1.805 192.855  0.00  0.00    +0.000 C 
ATOM     26  C   UNL     1      22.234   2.439 189.805  0.00  0.00    +0.000 C 
ATOM     27  C   UNL     1      23.851   0.558 189.782  0.00  0.00    +0.000 C 
ATOM     28  C   UNL     1      22.707   1.255 189.098  0.00  0.00    +0.000 C 
ATOM     29  C   UNL     1      23.283   3.334 192.074  0.00  0.00    +0.000 C 
ATOM     30  C   UNL     1      25.338   2.876 193.674  0.00  0.00    +0.000 C 
ATOM     31  C   UNL     1      25.833  -0.450 191.705  0.00  0.00    +0.000 C 
ATOM     32  C   UNL     1      23.962   0.202 193.256  0.00  0.00    +0.000 C 
ATOM     33  C   UNL     1      24.267   3.438 193.208  0.00  0.00    +0.000 C 
ATOM     34  C   UNL     1      22.309   3.742 189.020  0.00  0.00    +0.000 C 
ATOM     35  C   UNL     1      26.114   3.638 194.714  0.00  0.00    +0.000 C 
BRANCH  26  36
ATOM     36  O   UNL     1      20.905   2.281 190.226  0.00  0.00    +0.000 OA
ATOM     37  H   UNL     1      20.803   1.315 190.155  0.00  0.00    +0.000 HD
ENDBRANCH  26  36
ENDBRANCH  21  25
ENDBRANCH   3  20
TORSDOF 5
ENDMDL
MODEL 2
REMARK VINA RESULT:      -7.2     19.816     22.583
REMARK  Name = 342374_SipholenolA.pdbqt.pdb
REMARK  5 active torsions:
REMARK  status: ('A' for Active; 'I' for Inactive)
REMARK    1  A    between atoms: C_3  and  C_20
REMARK    2  A    between atoms: C_4  and  O_16
REMARK    3  A    between atoms: C_13  and  O_18
REMARK    4  A    between atoms: C_21  and  C_25
REMARK    5  A    between atoms: C_26  and  O_36
REMARK                            x       y       z     vdW  Elec       q    Type
REMARK                         _______ _______ _______ _____ _____    ______ ____
ROOT
ATOM      1  O   UNL     1      49.453   1.530 179.023  0.00  0.00    +0.000 OA
ATOM      2  C   UNL     1      46.993   1.567 178.148  0.00  0.00    +0.000 C 
ATOM      3  C   UNL     1      45.604   2.162 178.394  0.00  0.00    +0.000 C 
ATOM      4  C   UNL     1      45.063   2.259 179.811  0.00  0.00    +0.000 C 
ATOM      5  C   UNL     1      48.109   1.849 179.248  0.00  0.00    +0.000 C 
ATOM      6  C   UNL     1      47.603   2.174 176.955  0.00  0.00    +0.000 C 
ATOM      7  C   UNL     1      46.172   2.180 180.742  0.00  0.00    +0.000 C 
ATOM      8  C   UNL     1      47.642   2.002 180.567  0.00  0.00    +0.000 C 
ATOM      9  C   UNL     1      46.874   0.028 177.975  0.00  0.00    +0.000 C 
ATOM     10  C   UNL     1      48.921   2.703 176.444  0.00  0.00    +0.000 C 
ATOM     11  C   UNL     1      50.363   2.573 178.543  0.00  0.00    +0.000 C 
ATOM     12  C   UNL     1      44.256   3.551 180.006  0.00  0.00    +0.000 C 
ATOM     13  C   UNL     1      50.201   2.854 177.019  0.00  0.00    +0.000 C 
ATOM     14  C   UNL     1      50.171   3.913 179.313  0.00  0.00    +0.000 C 
ATOM     15  C   UNL     1      51.814   2.052 178.762  0.00  0.00    +0.000 C 
ENDROOT
BRANCH   4  16
ATOM     16  O   UNL     1      44.162   1.207 180.050  0.00  0.00    +0.000 OA
ATOM     17  H   UNL     1      44.502   0.523 179.447  0.00  0.00    +0.000 HD
ENDBRANCH   4  16
BRANCH  13  18
ATOM     18  O   UNL     1      51.265   3.232 176.206  0.00  0.00    +0.000 OA
ATOM     19  H   UNL     1      51.009   3.233 175.260  0.00  0.00    +0.000 HD
ENDBRANCH  13  18
BRANCH   3  20
ATOM     20  C   UNL     1      44.725   2.407 177.279  0.00  0.00    +0.000 C 
ATOM     21  C   UNL     1      43.791   2.651 176.091  0.00  0.00    +0.000 C 
BRANCH  21  25
ATOM     22  C   UNL     1      42.113   5.281 174.305  0.00  0.00    +0.000 C 
ATOM     23  C   UNL     1      43.068   4.087 174.030  0.00  0.00    +0.000 C 
ATOM     24  C   UNL     1      40.613   5.214 174.290  0.00  0.00    +0.000 C 
ATOM     25  C   UNL     1      42.916   2.870 174.974  0.00  0.00    +0.000 C 
ATOM     26  C   UNL     1      39.957   6.586 174.189  0.00  0.00    +0.000 C 
ATOM     27  C   UNL     1      42.436   6.668 174.225  0.00  0.00    +0.000 C 
ATOM     28  C   UNL     1      41.143   7.433 174.148  0.00  0.00    +0.000 C 
ATOM     29  C   UNL     1      40.026   3.941 174.407  0.00  0.00    +0.000 C 
ATOM     30  C   UNL     1      41.757   1.989 174.835  0.00  0.00    +0.000 C 
ATOM     31  C   UNL     1      44.545   4.622 174.143  0.00  0.00    +0.000 C 
ATOM     32  C   UNL     1      42.872   3.638 172.542  0.00  0.00    +0.000 C 
ATOM     33  C   UNL     1      40.620   2.576 174.633  0.00  0.00    +0.000 C 
ATOM     34  C   UNL     1      38.999   6.858 175.340  0.00  0.00    +0.000 C 
ATOM     35  C   UNL     1      41.715   0.571 175.340  0.00  0.00    +0.000 C 
BRANCH  26  36
ATOM     36  O   UNL     1      39.220   6.689 172.998  0.00  0.00    +0.000 OA
ATOM     37  H   UNL     1      39.826   6.259 172.369  0.00  0.00    +0.000 HD
ENDBRANCH  26  36
ENDBRANCH  21  25
ENDBRANCH   3  20
TORSDOF 5
ENDMDL
MODEL 3
REMARK VINA RESULT:      -7.0     30.799     34.356
REMARK  Name = 342374_SipholenolA.pdbqt.pdb
REMARK  5 active torsions:
REMARK  status: ('A' for Active; 'I' for Inactive)
REMARK    1  A    between atoms: C_3  and  C_20
REMARK    2  A    between atoms: C_4  and  O_16
REMARK    3  A    between atoms: C_13  and  O_18
REMARK    4  A    between atoms: C_21  and  C_25
REMARK    5  A    between atoms: C_26  and  O_36
REMARK                            x       y       z     vdW  Elec       q    Type
REMARK                         _______ _______ _______ _____ _____    ______ ____
ROOT
ATOM      1  O   UNL     1      35.895 -28.636 175.967  0.00  0.00    +0.000 OA
ATOM      2  C   UNL     1      37.518 -26.597 175.801  0.00  0.00    +0.000 C 
ATOM      3  C   UNL     1      38.939 -26.178 175.415  0.00  0.00    +0.000 C 
ATOM      4  C   UNL     1      40.120 -27.037 175.833  0.00  0.00    +0.000 C 
ATOM      5  C   UNL     1      37.203 -28.157 175.830  0.00  0.00    +0.000 C 
ATOM      6  C   UNL     1      36.556 -26.127 174.792  0.00  0.00    +0.000 C 
ATOM      7  C   UNL     1      39.643 -28.369 176.145  0.00  0.00    +0.000 C 
ATOM      8  C   UNL     1      38.288 -28.993 176.158  0.00  0.00    +0.000 C 
ATOM      9  C   UNL     1      37.168 -26.015 177.198  0.00  0.00    +0.000 C 
ATOM     10  C   UNL     1      35.327 -26.572 174.037  0.00  0.00    +0.000 C 
ATOM     11  C   UNL     1      35.143 -29.008 174.766  0.00  0.00    +0.000 C 
ATOM     12  C   UNL     1      41.195 -27.067 174.736  0.00  0.00    +0.000 C 
ATOM     13  C   UNL     1      34.583 -27.770 174.003  0.00  0.00    +0.000 C 
ATOM     14  C   UNL     1      36.004 -29.847 173.776  0.00  0.00    +0.000 C 
ATOM     15  C   UNL     1      33.921 -29.851 175.234  0.00  0.00    +0.000 C 
ENDROOT
BRANCH   4  16
ATOM     16  O   UNL     1      40.743 -26.475 176.961  0.00  0.00    +0.000 OA
ATOM     17  H   UNL     1      40.490 -27.111 177.654  0.00  0.00    +0.000 HD
ENDBRANCH   4  16
BRANCH  13  18
ATOM     18  O   UNL     1      33.379 -27.797 173.307  0.00  0.00    +0.000 OA
ATOM     19  H   UNL     1      33.089 -26.894 173.059  0.00  0.00    +0.000 HD
ENDBRANCH  13  18
BRANCH   3  20
ATOM     20  C   UNL     1      39.172 -24.865 174.870  0.00  0.00    +0.000 C 
ATOM     21  C   UNL     1      39.411 -23.462 174.303  0.00  0.00    +0.000 C 
BRANCH  21  25
ATOM     22  C   UNL     1      41.571 -21.639 172.083  0.00  0.00    +0.000 C 
ATOM     23  C   UNL     1      40.057 -21.897 172.313  0.00  0.00    +0.000 C 
ATOM     24  C   UNL     1      42.366 -20.527 172.703  0.00  0.00    +0.000 C 
ATOM     25  C   UNL     1      39.629 -22.144 173.779  0.00  0.00    +0.000 C 
ATOM     26  C   UNL     1      43.693 -20.278 171.996  0.00  0.00    +0.000 C 
ATOM     27  C   UNL     1      42.363 -22.118 170.997  0.00  0.00    +0.000 C 
ATOM     28  C   UNL     1      43.620 -21.294 170.952  0.00  0.00    +0.000 C 
ATOM     29  C   UNL     1      41.821 -19.905 173.841  0.00  0.00    +0.000 C 
ATOM     30  C   UNL     1      39.592 -21.023 174.719  0.00  0.00    +0.000 C 
ATOM     31  C   UNL     1      39.652 -23.156 171.458  0.00  0.00    +0.000 C 
ATOM     32  C   UNL     1      39.260 -20.685 171.720  0.00  0.00    +0.000 C 
ATOM     33  C   UNL     1      40.583 -20.192 174.648  0.00  0.00    +0.000 C 
ATOM     34  C   UNL     1      44.884 -20.394 172.938  0.00  0.00    +0.000 C 
ATOM     35  C   UNL     1      38.784 -21.020 175.990  0.00  0.00    +0.000 C 
BRANCH  26  36
ATOM     36  O   UNL     1      43.720 -18.987 171.446  0.00  0.00    +0.000 OA
ATOM     37  H   UNL     1      44.359 -18.549 172.035  0.00  0.00    +0.000 HD
ENDBRANCH  26  36
ENDBRANCH  21  25
ENDBRANCH   3  20
TORSDOF 5
ENDMDL
MODEL 4
REMARK VINA RESULT:      -6.8      2.551      4.306
REMARK  Name = 342374_SipholenolA.pdbqt.pdb
REMARK  5 active torsions:
REMARK  status: ('A' for Active; 'I' for Inactive)
REMARK    1  A    between atoms: C_3  and  C_20
REMARK    2  A    between atoms: C_4  and  O_16
REMARK    3  A    between atoms: C_13  and  O_18
REMARK    4  A    between atoms: C_21  and  C_25
REMARK    5  A    between atoms: C_26  and  O_36
REMARK                            x       y       z     vdW  Elec       q    Type
REMARK                         _______ _______ _______ _____ _____    ______ ____
ROOT
ATOM      1  O   UNL     1      32.969   2.655 188.386  0.00  0.00    +0.000 OA
ATOM      2  C   UNL     1      31.441   2.052 190.416  0.00  0.00    +0.000 C 
ATOM      3  C   UNL     1      30.821   2.605 191.703  0.00  0.00    +0.000 C 
ATOM      4  C   UNL     1      31.656   3.467 192.634  0.00  0.00    +0.000 C 
ATOM      5  C   UNL     1      32.501   2.972 189.667  0.00  0.00    +0.000 C 
ATOM      6  C   UNL     1      30.409   1.896 189.379  0.00  0.00    +0.000 C 
ATOM      7  C   UNL     1      32.785   3.996 191.895  0.00  0.00    +0.000 C 
ATOM      8  C   UNL     1      33.256   3.830 190.490  0.00  0.00    +0.000 C 
ATOM      9  C   UNL     1      32.122   0.688 190.715  0.00  0.00    +0.000 C 
ATOM     10  C   UNL     1      30.181   2.106 187.902  0.00  0.00    +0.000 C 
ATOM     11  C   UNL     1      32.338   3.282 187.221  0.00  0.00    +0.000 C 
ATOM     12  C   UNL     1      30.810   4.592 193.249  0.00  0.00    +0.000 C 
ATOM     13  C   UNL     1      30.972   2.628 186.857  0.00  0.00    +0.000 C 
ATOM     14  C   UNL     1      32.113   4.808 187.432  0.00  0.00    +0.000 C 
ATOM     15  C   UNL     1      33.291   3.059 186.010  0.00  0.00    +0.000 C 
ENDROOT
BRANCH   4  16
ATOM     16  O   UNL     1      32.111   2.696 193.717  0.00  0.00    +0.000 OA
ATOM     17  H   UNL     1      31.869   3.264 194.471  0.00  0.00    +0.000 HD
ENDBRANCH   4  16
BRANCH  13  18
ATOM     18  O   UNL     1      30.511   2.528 185.548  0.00  0.00    +0.000 OA
ATOM     19  H   UNL     1      31.253   2.437 184.913  0.00  0.00    +0.000 HD
ENDBRANCH  13  18
BRANCH   3  20
ATOM     20  C   UNL     1      29.538   2.118 192.142  0.00  0.00    +0.000 C 
ATOM     21  C   UNL     1      28.172   1.594 192.595  0.00  0.00    +0.000 C 
BRANCH  21  25
ATOM     22  C   UNL     1      26.588  -0.237 195.251  0.00  0.00    +0.000 C 
ATOM     23  C   UNL     1      26.439   1.108 194.490  0.00  0.00    +0.000 C 
ATOM     24  C   UNL     1      25.934  -1.531 194.861  0.00  0.00    +0.000 C 
ATOM     25  C   UNL     1      26.890   1.100 193.010  0.00  0.00    +0.000 C 
ATOM     26  C   UNL     1      25.924  -2.556 195.989  0.00  0.00    +0.000 C 
ATOM     27  C   UNL     1      27.006  -0.410 196.604  0.00  0.00    +0.000 C 
ATOM     28  C   UNL     1      26.597  -1.793 197.033  0.00  0.00    +0.000 C 
ATOM     29  C   UNL     1      25.468  -1.642 193.539  0.00  0.00    +0.000 C 
ATOM     30  C   UNL     1      26.063   0.429 192.007  0.00  0.00    +0.000 C 
ATOM     31  C   UNL     1      27.287   2.189 195.261  0.00  0.00    +0.000 C 
ATOM     32  C   UNL     1      24.943   1.564 194.591  0.00  0.00    +0.000 C 
ATOM     33  C   UNL     1      25.564  -0.715 192.357  0.00  0.00    +0.000 C 
ATOM     34  C   UNL     1      26.601  -3.862 195.595  0.00  0.00    +0.000 C 
ATOM     35  C   UNL     1      26.125   0.726 190.532  0.00  0.00    +0.000 C 
BRANCH  26  36
ATOM     36  O   UNL     1      24.605  -2.864 196.357  0.00  0.00    +0.000 OA
ATOM     37  H   UNL     1      24.328  -2.026 196.768  0.00  0.00    +0.000 HD
ENDBRANCH  26  36
ENDBRANCH  21  25
ENDBRANCH   3  20
TORSDOF 5
ENDMDL
MODEL 5
REMARK VINA RESULT:      -6.6     23.771     27.985
REMARK  Name = 342374_SipholenolA.pdbqt.pdb
REMARK  5 active torsions:
REMARK  status: ('A' for Active; 'I' for Inactive)
REMARK    1  A    between atoms: C_3  and  C_20
REMARK    2  A    between atoms: C_4  and  O_16
REMARK    3  A    between atoms: C_13  and  O_18
REMARK    4  A    between atoms: C_21  and  C_25
REMARK    5  A    between atoms: C_26  and  O_36
REMARK                            x       y       z     vdW  Elec       q    Type
REMARK                         _______ _______ _______ _____ _____    ______ ____
ROOT
ATOM      1  O   UNL     1      11.284 -12.145 180.531  0.00  0.00    +0.000 OA
ATOM      2  C   UNL     1      11.894 -14.646 180.967  0.00  0.00    +0.000 C 
ATOM      3  C   UNL     1      11.399 -16.086 180.801  0.00  0.00    +0.000 C 
ATOM      4  C   UNL     1       9.949 -16.425 181.101  0.00  0.00    +0.000 C 
ATOM      5  C   UNL     1      10.871 -13.480 180.611  0.00  0.00    +0.000 C 
ATOM      6  C   UNL     1      12.987 -14.370 180.021  0.00  0.00    +0.000 C 
ATOM      7  C   UNL     1       9.164 -15.207 181.059  0.00  0.00    +0.000 C 
ATOM      8  C   UNL     1       9.510 -13.776 180.821  0.00  0.00    +0.000 C 
ATOM      9  C   UNL     1      12.373 -14.429 182.429  0.00  0.00    +0.000 C 
ATOM     10  C   UNL     1      13.498 -13.298 179.090  0.00  0.00    +0.000 C 
ATOM     11  C   UNL     1      11.619 -11.580 179.221  0.00  0.00    +0.000 C 
ATOM     12  C   UNL     1       9.413 -17.473 180.114  0.00  0.00    +0.000 C 
ATOM     13  C   UNL     1      13.028 -12.019 178.723  0.00  0.00    +0.000 C 
ATOM     14  C   UNL     1      10.571 -11.965 178.135  0.00  0.00    +0.000 C 
ATOM     15  C   UNL     1      11.652 -10.032 179.385  0.00  0.00    +0.000 C 
ENDROOT
BRANCH   4  16
ATOM     16  O   UNL     1       9.850 -17.014 182.373  0.00  0.00    +0.000 OA
ATOM     17  H   UNL     1       9.158 -17.682 182.220  0.00  0.00    +0.000 HD
ENDBRANCH   4  16
BRANCH  13  18
ATOM     18  O   UNL     1      13.841 -11.199 177.946  0.00  0.00    +0.000 OA
ATOM     19  H   UNL     1      14.698 -11.632 177.746  0.00  0.00    +0.000 HD
ENDBRANCH  13  18
BRANCH   3  20
ATOM     20  C   UNL     1      12.350 -17.147 180.593  0.00  0.00    +0.000 C 
ATOM     21  C   UNL     1      13.373 -18.265 180.371  0.00  0.00    +0.000 C 
BRANCH  21  25
ATOM     22  C   UNL     1      14.526 -20.572 177.868  0.00  0.00    +0.000 C 
ATOM     23  C   UNL     1      15.089 -19.482 178.821  0.00  0.00    +0.000 C 
ATOM     24  C   UNL     1      14.389 -22.029 178.202  0.00  0.00    +0.000 C 
ATOM     25  C   UNL     1      14.339 -19.305 180.162  0.00  0.00    +0.000 C 
ATOM     26  C   UNL     1      14.200 -22.907 176.970  0.00  0.00    +0.000 C 
ATOM     27  C   UNL     1      14.421 -20.492 176.447  0.00  0.00    +0.000 C 
ATOM     28  C   UNL     1      14.234 -21.890 175.925  0.00  0.00    +0.000 C 
ATOM     29  C   UNL     1      14.412 -22.381 179.564  0.00  0.00    +0.000 C 
ATOM     30  C   UNL     1      14.489 -20.315 181.211  0.00  0.00    +0.000 C 
ATOM     31  C   UNL     1      15.055 -18.110 178.049  0.00  0.00    +0.000 C 
ATOM     32  C   UNL     1      16.600 -19.801 179.090  0.00  0.00    +0.000 C 
ATOM     33  C   UNL     1      14.470 -21.549 180.817  0.00  0.00    +0.000 C 
ATOM     34  C   UNL     1      12.922 -23.733 177.036  0.00  0.00    +0.000 C 
ATOM     35  C   UNL     1      14.213 -20.058 182.669  0.00  0.00    +0.000 C 
BRANCH  26  36
ATOM     36  O   UNL     1      15.271 -23.804 176.840  0.00  0.00    +0.000 OA
ATOM     37  H   UNL     1      15.128 -24.132 175.935  0.00  0.00    +0.000 HD
ENDBRANCH  26  36
ENDBRANCH  21  25
ENDBRANCH   3  20
TORSDOF 5
ENDMDL
MODEL 6
REMARK VINA RESULT:      -6.5     19.699     22.047
REMARK  Name = 342374_SipholenolA.pdbqt.pdb
REMARK  5 active torsions:
REMARK  status: ('A' for Active; 'I' for Inactive)
REMARK    1  A    between atoms: C_3  and  C_20
REMARK    2  A    between atoms: C_4  and  O_16
REMARK    3  A    between atoms: C_13  and  O_18
REMARK    4  A    between atoms: C_21  and  C_25
REMARK    5  A    between atoms: C_26  and  O_36
REMARK                            x       y       z     vdW  Elec       q    Type
REMARK                         _______ _______ _______ _____ _____    ______ ____
ROOT
ATOM      1  O   UNL     1      47.829   2.650 179.292  0.00  0.00    +0.000 OA
ATOM      2  C   UNL     1      45.497   3.176 178.241  0.00  0.00    +0.000 C 
ATOM      3  C   UNL     1      44.442   4.272 178.062  0.00  0.00    +0.000 C 
ATOM      4  C   UNL     1      44.075   5.167 179.233  0.00  0.00    +0.000 C 
ATOM      5  C   UNL     1      46.713   3.492 179.218  0.00  0.00    +0.000 C 
ATOM      6  C   UNL     1      46.201   2.934 176.972  0.00  0.00    +0.000 C 
ATOM      7  C   UNL     1      45.141   5.115 180.214  0.00  0.00    +0.000 C 
ATOM      8  C   UNL     1      46.429   4.365 180.286  0.00  0.00    +0.000 C 
ATOM      9  C   UNL     1      44.812   1.875 178.740  0.00  0.00    +0.000 C 
ATOM     10  C   UNL     1      47.581   2.674 176.421  0.00  0.00    +0.000 C 
ATOM     11  C   UNL     1      49.020   2.974 178.504  0.00  0.00    +0.000 C 
ATOM     12  C   UNL     1      43.812   6.606 178.766  0.00  0.00    +0.000 C 
ATOM     13  C   UNL     1      48.865   2.593 177.001  0.00  0.00    +0.000 C 
ATOM     14  C   UNL     1      49.385   4.485 178.594  0.00  0.00    +0.000 C 
ATOM     15  C   UNL     1      50.192   2.121 179.074  0.00  0.00    +0.000 C 
ENDROOT
BRANCH   4  16
ATOM     16  O   UNL     1      42.871   4.728 179.811  0.00  0.00    +0.000 OA
ATOM     17  H   UNL     1      43.134   3.857 180.161  0.00  0.00    +0.000 HD
ENDBRANCH   4  16
BRANCH  13  18
ATOM     18  O   UNL     1      49.933   2.167 176.218  0.00  0.00    +0.000 OA
ATOM     19  H   UNL     1      50.769   2.604 176.486  0.00  0.00    +0.000 HD
ENDBRANCH  13  18
BRANCH   3  20
ATOM     20  C   UNL     1      43.637   4.298 176.868  0.00  0.00    +0.000 C 
ATOM     21  C   UNL     1      42.770   4.335 175.606  0.00  0.00    +0.000 C 
BRANCH  21  25
ATOM     22  C   UNL     1      40.636   6.540 173.733  0.00  0.00    +0.000 C 
ATOM     23  C   UNL     1      41.869   5.621 173.516  0.00  0.00    +0.000 C 
ATOM     24  C   UNL     1      39.203   6.114 173.600  0.00  0.00    +0.000 C 
ATOM     25  C   UNL     1      41.951   4.374 174.428  0.00  0.00    +0.000 C 
ATOM     26  C   UNL     1      38.242   7.290 173.468  0.00  0.00    +0.000 C 
ATOM     27  C   UNL     1      40.618   7.966 173.698  0.00  0.00    +0.000 C 
ATOM     28  C   UNL     1      39.187   8.399 173.532  0.00  0.00    +0.000 C 
ATOM     29  C   UNL     1      38.935   4.734 173.653  0.00  0.00    +0.000 C 
ATOM     30  C   UNL     1      41.053   3.243 174.187  0.00  0.00    +0.000 C 
ATOM     31  C   UNL     1      43.161   6.492 173.750  0.00  0.00    +0.000 C 
ATOM     32  C   UNL     1      41.896   5.186 172.011  0.00  0.00    +0.000 C 
ATOM     33  C   UNL     1      39.825   3.546 173.906  0.00  0.00    +0.000 C 
ATOM     34  C   UNL     1      37.166   7.286 174.545  0.00  0.00    +0.000 C 
ATOM     35  C   UNL     1      41.321   1.842 174.667  0.00  0.00    +0.000 C 
BRANCH  26  36
ATOM     36  O   UNL     1      37.590   7.251 172.226  0.00  0.00    +0.000 OA
ATOM     37  H   UNL     1      37.967   6.438 171.845  0.00  0.00    +0.000 HD
ENDBRANCH  26  36
ENDBRANCH  21  25
ENDBRANCH   3  20
TORSDOF 5
ENDMDL
MODEL 7
REMARK VINA RESULT:      -6.3      4.983      8.235
REMARK  Name = 342374_SipholenolA.pdbqt.pdb
REMARK  5 active torsions:
REMARK  status: ('A' for Active; 'I' for Inactive)
REMARK    1  A    between atoms: C_3  and  C_20
REMARK    2  A    between atoms: C_4  and  O_16
REMARK    3  A    between atoms: C_13  and  O_18
REMARK    4  A    between atoms: C_21  and  C_25
REMARK    5  A    between atoms: C_26  and  O_36
REMARK                            x       y       z     vdW  Elec       q    Type
REMARK                         _______ _______ _______ _____ _____    ______ ____
ROOT
ATOM      1  O   UNL     1      38.592   7.237 193.487  0.00  0.00    +0.000 OA
ATOM      2  C   UNL     1      36.327   5.939 193.416  0.00  0.00    +0.000 C 
ATOM      3  C   UNL     1      34.806   6.105 193.476  0.00  0.00    +0.000 C 
ATOM      4  C   UNL     1      34.189   7.054 194.489  0.00  0.00    +0.000 C 
ATOM      5  C   UNL     1      37.211   7.228 193.715  0.00  0.00    +0.000 C 
ATOM      6  C   UNL     1      36.751   5.610 192.046  0.00  0.00    +0.000 C 
ATOM      7  C   UNL     1      35.201   7.994 194.928  0.00  0.00    +0.000 C 
ATOM      8  C   UNL     1      36.648   8.162 194.607  0.00  0.00    +0.000 C 
ATOM      9  C   UNL     1      36.765   4.823 194.404  0.00  0.00    +0.000 C 
ATOM     10  C   UNL     1      37.825   5.929 191.036  0.00  0.00    +0.000 C 
ATOM     11  C   UNL     1      39.103   7.786 192.228  0.00  0.00    +0.000 C 
ATOM     12  C   UNL     1      32.970   7.777 193.895  0.00  0.00    +0.000 C 
ATOM     13  C   UNL     1      38.937   6.798 191.034  0.00  0.00    +0.000 C 
ATOM     14  C   UNL     1      38.410   9.129 191.854  0.00  0.00    +0.000 C 
ATOM     15  C   UNL     1      40.630   8.023 192.418  0.00  0.00    +0.000 C 
ENDROOT
BRANCH   4  16
ATOM     16  O   UNL     1      33.702   6.327 195.589  0.00  0.00    +0.000 OA
ATOM     17  H   UNL     1      34.436   5.707 195.748  0.00  0.00    +0.000 HD
ENDBRANCH   4  16
BRANCH  13  18
ATOM     18  O   UNL     1      39.844   6.731 189.981  0.00  0.00    +0.000 OA
ATOM     19  H   UNL     1      39.483   6.215 189.230  0.00  0.00    +0.000 HD
ENDBRANCH  13  18
BRANCH   3  20
ATOM     20  C   UNL     1      33.961   5.197 192.744  0.00  0.00    +0.000 C 
ATOM     21  C   UNL     1      33.049   4.235 191.976  0.00  0.00    +0.000 C 
BRANCH  21  25
ATOM     22  C   UNL     1      32.572   2.783 188.723  0.00  0.00    +0.000 C 
ATOM     23  C   UNL     1      32.722   2.342 190.204  0.00  0.00    +0.000 C 
ATOM     24  C   UNL     1      31.274   3.106 188.041  0.00  0.00    +0.000 C 
ATOM     25  C   UNL     1      32.187   3.336 191.262  0.00  0.00    +0.000 C 
ATOM     26  C   UNL     1      31.385   3.108 186.521  0.00  0.00    +0.000 C 
ATOM     27  C   UNL     1      33.519   2.586 187.674  0.00  0.00    +0.000 C 
ATOM     28  C   UNL     1      32.796   2.775 186.368  0.00  0.00    +0.000 C 
ATOM     29  C   UNL     1      30.170   3.395 188.864  0.00  0.00    +0.000 C 
ATOM     30  C   UNL     1      30.744   3.490 191.444  0.00  0.00    +0.000 C 
ATOM     31  C   UNL     1      34.255   2.103 190.478  0.00  0.00    +0.000 C 
ATOM     32  C   UNL     1      32.020   0.951 190.373  0.00  0.00    +0.000 C 
ATOM     33  C   UNL     1      30.037   3.528 190.358  0.00  0.00    +0.000 C 
ATOM     34  C   UNL     1      30.957   4.435 185.908  0.00  0.00    +0.000 C 
ATOM     35  C   UNL     1      30.108   4.039 192.693  0.00  0.00    +0.000 C 
BRANCH  26  36
ATOM     36  O   UNL     1      30.566   2.110 185.970  0.00  0.00    +0.000 OA
ATOM     37  H   UNL     1      30.297   1.628 186.772  0.00  0.00    +0.000 HD
ENDBRANCH  26  36
ENDBRANCH  21  25
ENDBRANCH   3  20
TORSDOF 5
ENDMDL
MODEL 8
REMARK VINA RESULT:      -6.2     25.396     29.254
REMARK  Name = 342374_SipholenolA.pdbqt.pdb
REMARK  5 active torsions:
REMARK  status: ('A' for Active; 'I' for Inactive)
REMARK    1  A    between atoms: C_3  and  C_20
REMARK    2  A    between atoms: C_4  and  O_16
REMARK    3  A    between atoms: C_13  and  O_18
REMARK    4  A    between atoms: C_21  and  C_25
REMARK    5  A    between atoms: C_26  and  O_36
REMARK                            x       y       z     vdW  Elec       q    Type
REMARK                         _______ _______ _______ _____ _____    ______ ____
ROOT
ATOM      1  O   UNL     1      10.210 -12.726 177.943  0.00  0.00    +0.000 OA
ATOM      2  C   UNL     1      12.116 -14.505 178.099  0.00  0.00    +0.000 C 
ATOM      3  C   UNL     1      12.655 -15.666 178.939  0.00  0.00    +0.000 C 
ATOM      4  C   UNL     1      12.686 -15.554 180.453  0.00  0.00    +0.000 C 
ATOM      5  C   UNL     1      10.907 -13.668 178.709  0.00  0.00    +0.000 C 
ATOM      6  C   UNL     1      11.518 -15.010 176.854  0.00  0.00    +0.000 C 
ATOM      7  C   UNL     1      11.759 -14.518 180.865  0.00  0.00    +0.000 C 
ATOM      8  C   UNL     1      10.867 -13.588 180.115  0.00  0.00    +0.000 C 
ATOM      9  C   UNL     1      13.269 -13.513 177.785  0.00  0.00    +0.000 C 
ATOM     10  C   UNL     1      10.328 -14.804 175.949  0.00  0.00    +0.000 C 
ATOM     11  C   UNL     1       8.959 -13.124 177.291  0.00  0.00    +0.000 C 
ATOM     12  C   UNL     1      12.353 -16.900 181.113  0.00  0.00    +0.000 C 
ATOM     13  C   UNL     1       9.198 -13.961 175.999  0.00  0.00    +0.000 C 
ATOM     14  C   UNL     1       8.039 -13.942 178.245  0.00  0.00    +0.000 C 
ATOM     15  C   UNL     1       8.231 -11.816 176.863  0.00  0.00    +0.000 C 
ENDROOT
BRANCH   4  16
ATOM     16  O   UNL     1      13.985 -15.230 180.882  0.00  0.00    +0.000 OA
ATOM     17  H   UNL     1      14.370 -16.116 181.008  0.00  0.00    +0.000 HD
ENDBRANCH   4  16
BRANCH  13  18
ATOM     18  O   UNL     1       8.352 -13.899 174.896  0.00  0.00    +0.000 OA
ATOM     19  H   UNL     1       7.765 -13.115 174.938  0.00  0.00    +0.000 HD
ENDBRANCH  13  18
BRANCH   3  20
ATOM     20  C   UNL     1      13.345 -16.753 178.292  0.00  0.00    +0.000 C 
ATOM     21  C   UNL     1      14.068 -17.920 177.613  0.00  0.00    +0.000 C 
BRANCH  21  25
ATOM     22  C   UNL     1      13.420 -20.899 175.710  0.00  0.00    +0.000 C 
ATOM     23  C   UNL     1      14.279 -19.607 175.628  0.00  0.00    +0.000 C 
ATOM     24  C   UNL     1      13.854 -22.191 176.339  0.00  0.00    +0.000 C 
ATOM     25  C   UNL     1      14.742 -19.018 176.982  0.00  0.00    +0.000 C 
ATOM     26  C   UNL     1      12.993 -23.376 175.919  0.00  0.00    +0.000 C 
ATOM     27  C   UNL     1      12.293 -21.226 174.899  0.00  0.00    +0.000 C 
ATOM     28  C   UNL     1      12.055 -22.706 175.027  0.00  0.00    +0.000 C 
ATOM     29  C   UNL     1      14.936 -22.136 177.237  0.00  0.00    +0.000 C 
ATOM     30  C   UNL     1      15.803 -19.689 177.736  0.00  0.00    +0.000 C 
ATOM     31  C   UNL     1      13.428 -18.515 174.878  0.00  0.00    +0.000 C 
ATOM     32  C   UNL     1      15.521 -19.902 174.720  0.00  0.00    +0.000 C 
ATOM     33  C   UNL     1      15.736 -20.982 177.779  0.00  0.00    +0.000 C 
ATOM     34  C   UNL     1      12.367 -24.091 177.109  0.00  0.00    +0.000 C 
ATOM     35  C   UNL     1      16.645 -19.011 178.784  0.00  0.00    +0.000 C 
BRANCH  26  36
ATOM     36  O   UNL     1      13.766 -24.320 175.225  0.00  0.00    +0.000 OA
ATOM     37  H   UNL     1      14.428 -24.550 175.901  0.00  0.00    +0.000 HD
ENDBRANCH  26  36
ENDBRANCH  21  25
ENDBRANCH   3  20
TORSDOF 5
ENDMDL
MODEL 9
REMARK VINA RESULT:      -6.2     27.105     29.991
REMARK  Name = 342374_SipholenolA.pdbqt.pdb
REMARK  5 active torsions:
REMARK  status: ('A' for Active; 'I' for Inactive)
REMARK    1  A    between atoms: C_3  and  C_20
REMARK    2  A    between atoms: C_4  and  O_16
REMARK    3  A    between atoms: C_13  and  O_18
REMARK    4  A    between atoms: C_21  and  C_25
REMARK    5  A    between atoms: C_26  and  O_36
REMARK                            x       y       z     vdW  Elec       q    Type
REMARK                         _______ _______ _______ _____ _____    ______ ____
ROOT
ATOM      1  O   UNL     1      57.009  -7.565 184.492  0.00  0.00    +0.000 OA
ATOM      2  C   UNL     1      55.977  -9.074 186.358  0.00  0.00    +0.000 C 
ATOM      3  C   UNL     1      54.687  -9.385 187.122  0.00  0.00    +0.000 C 
ATOM      4  C   UNL     1      53.801  -8.249 187.602  0.00  0.00    +0.000 C 
ATOM      5  C   UNL     1      55.960  -7.813 185.386  0.00  0.00    +0.000 C 
ATOM      6  C   UNL     1      56.287 -10.161 185.416  0.00  0.00    +0.000 C 
ATOM      7  C   UNL     1      54.114  -7.056 186.840  0.00  0.00    +0.000 C 
ATOM      8  C   UNL     1      55.106  -6.760 185.766  0.00  0.00    +0.000 C 
ATOM      9  C   UNL     1      57.143  -8.880 187.366  0.00  0.00    +0.000 C 
ATOM     10  C   UNL     1      56.784 -10.398 184.011  0.00  0.00    +0.000 C 
ATOM     11  C   UNL     1      56.884  -8.017 183.104  0.00  0.00    +0.000 C 
ATOM     12  C   UNL     1      52.315  -8.619 187.480  0.00  0.00    +0.000 C 
ATOM     13  C   UNL     1      57.147  -9.545 182.947  0.00  0.00    +0.000 C 
ATOM     14  C   UNL     1      55.482  -7.695 182.509  0.00  0.00    +0.000 C 
ATOM     15  C   UNL     1      57.980  -7.276 182.282  0.00  0.00    +0.000 C 
ENDROOT
BRANCH   4  16
ATOM     16  O   UNL     1      54.024  -8.015 188.970  0.00  0.00    +0.000 OA
ATOM     17  H   UNL     1      54.913  -8.395 189.086  0.00  0.00    +0.000 HD
ENDBRANCH   4  16
BRANCH  13  18
ATOM     18  O   UNL     1      57.733 -10.095 181.811  0.00  0.00    +0.000 OA
ATOM     19  H   UNL     1      57.131 -10.730 181.370  0.00  0.00    +0.000 HD
ENDBRANCH  13  18
BRANCH   3  20
ATOM     20  C   UNL     1      54.440 -10.726 187.587  0.00  0.00    +0.000 C 
ATOM     21  C   UNL     1      54.161 -12.147 188.085  0.00  0.00    +0.000 C 
BRANCH  21  25
ATOM     22  C   UNL     1      51.665 -14.729 187.944  0.00  0.00    +0.000 C 
ATOM     23  C   UNL     1      53.183 -14.536 187.679  0.00  0.00    +0.000 C 
ATOM     24  C   UNL     1      51.058 -15.131 189.257  0.00  0.00    +0.000 C 
ATOM     25  C   UNL     1      53.892 -13.475 188.555  0.00  0.00    +0.000 C 
ATOM     26  C   UNL     1      49.624 -15.632 189.121  0.00  0.00    +0.000 C 
ATOM     27  C   UNL     1      50.650 -14.953 186.966  0.00  0.00    +0.000 C 
ATOM     28  C   UNL     1      49.444 -15.498 187.680  0.00  0.00    +0.000 C 
ATOM     29  C   UNL     1      51.847 -14.961 190.409  0.00  0.00    +0.000 C 
ATOM     30  C   UNL     1      54.163 -13.767 189.963  0.00  0.00    +0.000 C 
ATOM     31  C   UNL     1      53.357 -14.127 186.168  0.00  0.00    +0.000 C 
ATOM     32  C   UNL     1      53.889 -15.926 187.846  0.00  0.00    +0.000 C 
ATOM     33  C   UNL     1      53.211 -14.359 190.613  0.00  0.00    +0.000 C 
ATOM     34  C   UNL     1      48.647 -14.839 189.978  0.00  0.00    +0.000 C 
ATOM     35  C   UNL     1      55.213 -13.060 190.780  0.00  0.00    +0.000 C 
BRANCH  26  36
ATOM     36  O   UNL     1      49.536 -16.975 189.519  0.00  0.00    +0.000 OA
ATOM     37  H   UNL     1      50.280 -17.030 190.145  0.00  0.00    +0.000 HD
ENDBRANCH  26  36
ENDBRANCH  21  25
ENDBRANCH   3  20
TORSDOF 5
ENDMDL
