MODEL 1
REMARK VINA RESULT:      -4.6      0.000      0.000
REMARK  Name = 43806_Diaminocyclohexane.pdbqt.pdb
REMARK  2 active torsions:
REMARK  status: ('A' for Active; 'I' for Inactive)
REMARK    1  A    between atoms: C_1  and  N_7
REMARK    2  A    between atoms: C_2  and  N_10
REMARK                            x       y       z     vdW  Elec       q    Type
REMARK                         _______ _______ _______ _____ _____    ______ ____
ROOT
ATOM      1  C   UNL     1      21.357   5.064 187.540  0.00  0.00    +0.000 A 
ATOM      2  C   UNL     1      21.499   4.529 186.169  0.00  0.00    +0.000 A 
ATOM      3  C   UNL     1      20.207   4.603 188.259  0.00  0.00    +0.000 A 
ATOM      4  C   UNL     1      20.482   3.601 185.769  0.00  0.00    +0.000 A 
ATOM      5  C   UNL     1      19.077   3.626 187.894  0.00  0.00    +0.000 A 
ATOM      6  C   UNL     1      19.235   3.056 186.483  0.00  0.00    +0.000 A 
ENDROOT
BRANCH   1   7
ATOM      7  N   UNL     1      22.325   5.907 188.135  0.00  0.00    +0.000 N 
ATOM      8  H   UNL     1      21.975   6.423 188.936  0.00  0.00    +0.000 HD
ATOM      9  H   UNL     1      22.825   6.501 187.481  0.00  0.00    +0.000 HD
ENDBRANCH   1   7
BRANCH   2  10
ATOM     10  N   UNL     1      22.514   4.956 185.282  0.00  0.00    +0.000 N 
ATOM     11  H   UNL     1      22.162   5.463 184.476  0.00  0.00    +0.000 HD
ATOM     12  H   UNL     1      23.179   4.235 185.024  0.00  0.00    +0.000 HD
ENDBRANCH   2  10
TORSDOF 2
ENDMDL
MODEL 2
REMARK VINA RESULT:      -4.6      0.099      2.287
REMARK  Name = 43806_Diaminocyclohexane.pdbqt.pdb
REMARK  2 active torsions:
REMARK  status: ('A' for Active; 'I' for Inactive)
REMARK    1  A    between atoms: C_1  and  N_7
REMARK    2  A    between atoms: C_2  and  N_10
REMARK                            x       y       z     vdW  Elec       q    Type
REMARK                         _______ _______ _______ _____ _____    ______ ____
ROOT
ATOM      1  C   UNL     1      21.401   4.488 186.176  0.00  0.00    +0.000 A 
ATOM      2  C   UNL     1      21.289   5.041 187.544  0.00  0.00    +0.000 A 
ATOM      3  C   UNL     1      20.375   3.559 185.807  0.00  0.00    +0.000 A 
ATOM      4  C   UNL     1      20.151   4.592 188.290  0.00  0.00    +0.000 A 
ATOM      5  C   UNL     1      19.141   3.026 186.553  0.00  0.00    +0.000 A 
ATOM      6  C   UNL     1      19.013   3.614 187.960  0.00  0.00    +0.000 A 
ENDROOT
BRANCH   1   7
ATOM      7  N   UNL     1      22.401   4.902 185.264  0.00  0.00    +0.000 N 
ATOM      8  H   UNL     1      23.220   4.303 185.262  0.00  0.00    +0.000 HD
ATOM      9  H   UNL     1      22.643   5.887 185.322  0.00  0.00    +0.000 HD
ENDBRANCH   1   7
BRANCH   2  10
ATOM     10  N   UNL     1      22.270   5.889 188.109  0.00  0.00    +0.000 N 
ATOM     11  H   UNL     1      21.963   6.356 188.956  0.00  0.00    +0.000 HD
ATOM     12  H   UNL     1      22.704   6.529 187.452  0.00  0.00    +0.000 HD
ENDBRANCH   2  10
TORSDOF 2
ENDMDL
MODEL 3
REMARK VINA RESULT:      -4.5      2.083      3.401
REMARK  Name = 43806_Diaminocyclohexane.pdbqt.pdb
REMARK  2 active torsions:
REMARK  status: ('A' for Active; 'I' for Inactive)
REMARK    1  A    between atoms: C_1  and  N_7
REMARK    2  A    between atoms: C_2  and  N_10
REMARK                            x       y       z     vdW  Elec       q    Type
REMARK                         _______ _______ _______ _____ _____    ______ ____
ROOT
ATOM      1  C   UNL     1      19.584   3.562 187.077  0.00  0.00    +0.000 A 
ATOM      2  C   UNL     1      20.299   4.670 187.748  0.00  0.00    +0.000 A 
ATOM      3  C   UNL     1      20.085   3.208 185.782  0.00  0.00    +0.000 A 
ATOM      4  C   UNL     1      21.411   5.207 187.020  0.00  0.00    +0.000 A 
ATOM      5  C   UNL     1      21.255   3.743 184.940  0.00  0.00    +0.000 A 
ATOM      6  C   UNL     1      22.008   4.874 185.643  0.00  0.00    +0.000 A 
ENDROOT
BRANCH   1   7
ATOM      7  N   UNL     1      18.532   2.846 187.695  0.00  0.00    +0.000 N 
ATOM      8  H   UNL     1      18.840   2.251 188.458  0.00  0.00    +0.000 HD
ATOM      9  H   UNL     1      17.917   2.360 187.050  0.00  0.00    +0.000 HD
ENDBRANCH   1   7
BRANCH   2  10
ATOM     10  N   UNL     1      19.875   5.218 188.982  0.00  0.00    +0.000 N 
ATOM     11  H   UNL     1      20.597   5.747 189.459  0.00  0.00    +0.000 HD
ATOM     12  H   UNL     1      19.409   4.559 189.597  0.00  0.00    +0.000 HD
ENDBRANCH   2  10
TORSDOF 2
ENDMDL
MODEL 4
REMARK VINA RESULT:      -4.5      2.108      2.877
REMARK  Name = 43806_Diaminocyclohexane.pdbqt.pdb
REMARK  2 active torsions:
REMARK  status: ('A' for Active; 'I' for Inactive)
REMARK    1  A    between atoms: C_1  and  N_7
REMARK    2  A    between atoms: C_2  and  N_10
REMARK                            x       y       z     vdW  Elec       q    Type
REMARK                         _______ _______ _______ _____ _____    ______ ____
ROOT
ATOM      1  C   UNL     1      20.279   4.649 187.746  0.00  0.00    +0.000 A 
ATOM      2  C   UNL     1      19.616   3.552 187.007  0.00  0.00    +0.000 A 
ATOM      3  C   UNL     1      21.402   5.241 187.082  0.00  0.00    +0.000 A 
ATOM      4  C   UNL     1      20.173   3.263 185.718  0.00  0.00    +0.000 A 
ATOM      5  C   UNL     1      22.057   4.977 185.716  0.00  0.00    +0.000 A 
ATOM      6  C   UNL     1      21.358   3.858 184.942  0.00  0.00    +0.000 A 
ENDROOT
BRANCH   1   7
ATOM      7  N   UNL     1      19.798   5.136 188.984  0.00  0.00    +0.000 N 
ATOM      8  H   UNL     1      20.057   6.101 189.167  0.00  0.00    +0.000 HD
ATOM      9  H   UNL     1      19.982   4.529 189.776  0.00  0.00    +0.000 HD
ENDBRANCH   1   7
BRANCH   2  10
ATOM     10  N   UNL     1      18.561   2.788 187.557  0.00  0.00    +0.000 N 
ATOM     11  H   UNL     1      18.850   1.869 187.876  0.00  0.00    +0.000 HD
ATOM     12  H   UNL     1      17.724   2.752 186.985  0.00  0.00    +0.000 HD
ENDBRANCH   2  10
TORSDOF 2
ENDMDL
MODEL 5
REMARK VINA RESULT:      -4.3      3.025      4.173
REMARK  Name = 43806_Diaminocyclohexane.pdbqt.pdb
REMARK  2 active torsions:
REMARK  status: ('A' for Active; 'I' for Inactive)
REMARK    1  A    between atoms: C_1  and  N_7
REMARK    2  A    between atoms: C_2  and  N_10
REMARK                            x       y       z     vdW  Elec       q    Type
REMARK                         _______ _______ _______ _____ _____    ______ ____
ROOT
ATOM      1  C   UNL     1      18.576   2.551 188.385  0.00  0.00    +0.000 A 
ATOM      2  C   UNL     1      19.520   3.159 189.348  0.00  0.00    +0.000 A 
ATOM      3  C   UNL     1      18.852   2.823 187.005  0.00  0.00    +0.000 A 
ATOM      4  C   UNL     1      20.594   3.905 188.760  0.00  0.00    +0.000 A 
ATOM      5  C   UNL     1      19.969   3.616 186.307  0.00  0.00    +0.000 A 
ATOM      6  C   UNL     1      20.957   4.227 187.302  0.00  0.00    +0.000 A 
ENDROOT
BRANCH   1   7
ATOM      7  N   UNL     1      17.521   1.697 188.784  0.00  0.00    +0.000 N 
ATOM      8  H   UNL     1      16.607   2.011 188.475  0.00  0.00    +0.000 HD
ATOM      9  H   UNL     1      17.532   1.446 189.768  0.00  0.00    +0.000 HD
ENDBRANCH   1   7
BRANCH   2  10
ATOM     10  N   UNL     1      19.339   3.082 190.749  0.00  0.00    +0.000 N 
ATOM     11  H   UNL     1      18.727   2.326 191.037  0.00  0.00    +0.000 HD
ATOM     12  H   UNL     1      19.099   3.963 191.191  0.00  0.00    +0.000 HD
ENDBRANCH   2  10
TORSDOF 2
ENDMDL
MODEL 6
REMARK VINA RESULT:      -4.3      2.973      3.643
REMARK  Name = 43806_Diaminocyclohexane.pdbqt.pdb
REMARK  2 active torsions:
REMARK  status: ('A' for Active; 'I' for Inactive)
REMARK    1  A    between atoms: C_1  and  N_7
REMARK    2  A    between atoms: C_2  and  N_10
REMARK                            x       y       z     vdW  Elec       q    Type
REMARK                         _______ _______ _______ _____ _____    ______ ____
ROOT
ATOM      1  C   UNL     1      19.548   3.199 189.261  0.00  0.00    +0.000 A 
ATOM      2  C   UNL     1      18.626   2.603 188.270  0.00  0.00    +0.000 A 
ATOM      3  C   UNL     1      20.645   3.936 188.708  0.00  0.00    +0.000 A 
ATOM      4  C   UNL     1      18.944   2.878 186.899  0.00  0.00    +0.000 A 
ATOM      5  C   UNL     1      21.053   4.261 187.261  0.00  0.00    +0.000 A 
ATOM      6  C   UNL     1      20.087   3.663 186.237  0.00  0.00    +0.000 A 
ENDROOT
BRANCH   1   7
ATOM      7  N   UNL     1      19.327   3.118 190.656  0.00  0.00    +0.000 N 
ATOM      8  H   UNL     1      18.345   3.070 190.908  0.00  0.00    +0.000 HD
ATOM      9  H   UNL     1      19.834   3.806 191.204  0.00  0.00    +0.000 HD
ENDBRANCH   1   7
BRANCH   2  10
ATOM     10  N   UNL     1      17.552   1.757 188.636  0.00  0.00    +0.000 N 
ATOM     11  H   UNL     1      16.793   1.751 187.962  0.00  0.00    +0.000 HD
ATOM     12  H   UNL     1      17.223   1.883 189.587  0.00  0.00    +0.000 HD
ENDBRANCH   2  10
TORSDOF 2
ENDMDL
MODEL 7
REMARK VINA RESULT:      -4.1     20.911     22.243
REMARK  Name = 43806_Diaminocyclohexane.pdbqt.pdb
REMARK  2 active torsions:
REMARK  status: ('A' for Active; 'I' for Inactive)
REMARK    1  A    between atoms: C_1  and  N_7
REMARK    2  A    between atoms: C_2  and  N_10
REMARK                            x       y       z     vdW  Elec       q    Type
REMARK                         _______ _______ _______ _____ _____    ______ ____
ROOT
ATOM      1  C   UNL     1      29.669  -0.687 168.144  0.00  0.00    +0.000 A 
ATOM      2  C   UNL     1      30.347  -0.899 166.847  0.00  0.00    +0.000 A 
ATOM      3  C   UNL     1      29.973   0.551 168.797  0.00  0.00    +0.000 A 
ATOM      4  C   UNL     1      31.186   0.180 166.415  0.00  0.00    +0.000 A 
ATOM      5  C   UNL     1      30.863   1.741 168.402  0.00  0.00    +0.000 A 
ATOM      6  C   UNL     1      31.549   1.531 167.050  0.00  0.00    +0.000 A 
ENDROOT
BRANCH   1   7
ATOM      7  N   UNL     1      28.725  -1.600 168.672  0.00  0.00    +0.000 N 
ATOM      8  H   UNL     1      28.612  -2.437 168.108  0.00  0.00    +0.000 HD
ATOM      9  H   UNL     1      27.835  -1.185 168.929  0.00  0.00    +0.000 HD
ENDBRANCH   1   7
BRANCH   2  10
ATOM     10  N   UNL     1      30.245  -2.108 166.119  0.00  0.00    +0.000 N 
ATOM     11  H   UNL     1      31.121  -2.616 166.051  0.00  0.00    +0.000 HD
ATOM     12  H   UNL     1      29.779  -2.021 165.222  0.00  0.00    +0.000 HD
ENDBRANCH   2  10
TORSDOF 2
ENDMDL
MODEL 8
REMARK VINA RESULT:      -4.1     30.933     32.101
REMARK  Name = 43806_Diaminocyclohexane.pdbqt.pdb
REMARK  2 active torsions:
REMARK  status: ('A' for Active; 'I' for Inactive)
REMARK    1  A    between atoms: C_1  and  N_7
REMARK    2  A    between atoms: C_2  and  N_10
REMARK                            x       y       z     vdW  Elec       q    Type
REMARK                         _______ _______ _______ _____ _____    ______ ____
ROOT
ATOM      1  C   UNL     1      44.012  -7.058 167.069  0.00  0.00    +0.000 A 
ATOM      2  C   UNL     1      43.199  -7.383 165.877  0.00  0.00    +0.000 A 
ATOM      3  C   UNL     1      43.298  -6.436 168.144  0.00  0.00    +0.000 A 
ATOM      4  C   UNL     1      41.807  -7.058 165.982  0.00  0.00    +0.000 A 
ATOM      5  C   UNL     1      41.820  -6.050 168.322  0.00  0.00    +0.000 A 
ATOM      6  C   UNL     1      40.975  -6.405 167.097  0.00  0.00    +0.000 A 
ENDROOT
BRANCH   1   7
ATOM      7  N   UNL     1      45.379  -7.406 167.180  0.00  0.00    +0.000 N 
ATOM      8  H   UNL     1      45.866  -7.420 166.289  0.00  0.00    +0.000 HD
ATOM      9  H   UNL     1      45.559  -8.238 167.733  0.00  0.00    +0.000 HD
ENDBRANCH   1   7
BRANCH   2  10
ATOM     10  N   UNL     1      43.760  -7.903 164.687  0.00  0.00    +0.000 N 
ATOM     11  H   UNL     1      44.509  -7.331 164.309  0.00  0.00    +0.000 HD
ATOM     12  H   UNL     1      43.081  -8.166 163.981  0.00  0.00    +0.000 HD
ENDBRANCH   2  10
TORSDOF 2
ENDMDL
MODEL 9
REMARK VINA RESULT:      -4.1      2.646      2.815
REMARK  Name = 43806_Diaminocyclohexane.pdbqt.pdb
REMARK  2 active torsions:
REMARK  status: ('A' for Active; 'I' for Inactive)
REMARK    1  A    between atoms: C_1  and  N_7
REMARK    2  A    between atoms: C_2  and  N_10
REMARK                            x       y       z     vdW  Elec       q    Type
REMARK                         _______ _______ _______ _____ _____    ______ ____
ROOT
ATOM      1  C   UNL     1      21.084   1.941 188.446  0.00  0.00    +0.000 A 
ATOM      2  C   UNL     1      21.938   2.233 187.273  0.00  0.00    +0.000 A 
ATOM      3  C   UNL     1      19.717   2.351 188.323  0.00  0.00    +0.000 A 
ATOM      4  C   UNL     1      21.265   2.853 186.170  0.00  0.00    +0.000 A 
ATOM      5  C   UNL     1      18.934   3.025 187.184  0.00  0.00    +0.000 A 
ATOM      6  C   UNL     1      19.812   3.308 185.963  0.00  0.00    +0.000 A 
ENDROOT
BRANCH   1   7
ATOM      7  N   UNL     1      21.557   1.238 189.579  0.00  0.00    +0.000 N 
ATOM      8  H   UNL     1      22.315   1.710 190.062  0.00  0.00    +0.000 HD
ATOM      9  H   UNL     1      21.756   0.256 189.413  0.00  0.00    +0.000 HD
ENDBRANCH   1   7
BRANCH   2  10
ATOM     10  N   UNL     1      23.332   1.993 187.264  0.00  0.00    +0.000 N 
ATOM     11  H   UNL     1      23.729   1.873 188.190  0.00  0.00    +0.000 HD
ATOM     12  H   UNL     1      23.867   2.641 186.696  0.00  0.00    +0.000 HD
ENDBRANCH   2  10
TORSDOF 2
ENDMDL
