MODEL 1
REMARK VINA RESULT:      -9.3      0.000      0.000
REMARK  Name = 44234954_SipholenolL.pdbqt.pdb
REMARK  5 active torsions:
REMARK  status: ('A' for Active; 'I' for Inactive)
REMARK    1  A    between atoms: C_3  and  C_20
REMARK    2  A    between atoms: C_4  and  O_16
REMARK    3  A    between atoms: C_13  and  O_18
REMARK    4  A    between atoms: C_21  and  C_25
REMARK    5  A    between atoms: C_26  and  O_36
REMARK                            x       y       z     vdW  Elec       q    Type
REMARK                         _______ _______ _______ _____ _____    ______ ____
ROOT
ATOM      1  O   UNL     1      23.709  -0.088 195.908  0.00  0.00    +0.000 OA
ATOM      2  C   UNL     1      21.788   0.572 194.276  0.00  0.00    +0.000 C 
ATOM      3  C   UNL     1      20.784  -0.002 193.273  0.00  0.00    +0.000 C 
ATOM      4  C   UNL     1      19.972  -1.229 193.646  0.00  0.00    +0.000 C 
ATOM      5  C   UNL     1      22.626  -0.487 195.119  0.00  0.00    +0.000 C 
ATOM      6  C   UNL     1      22.867   1.297 193.588  0.00  0.00    +0.000 C 
ATOM      7  C   UNL     1      20.703  -1.977 194.652  0.00  0.00    +0.000 C 
ATOM      8  C   UNL     1      21.970  -1.704 195.393  0.00  0.00    +0.000 C 
ATOM      9  C   UNL     1      21.059   1.518 195.265  0.00  0.00    +0.000 C 
ATOM     10  C   UNL     1      24.364   1.472 193.612  0.00  0.00    +0.000 C 
ATOM     11  C   UNL     1      25.080  -0.223 195.386  0.00  0.00    +0.000 C 
ATOM     12  C   UNL     1      18.544  -0.872 194.045  0.00  0.00    +0.000 C 
ATOM     13  C   UNL     1      25.425   0.899 194.351  0.00  0.00    +0.000 C 
ATOM     14  C   UNL     1      26.012  -0.074 196.619  0.00  0.00    +0.000 C 
ATOM     15  C   UNL     1      25.287  -1.612 194.706  0.00  0.00    +0.000 C 
ENDROOT
BRANCH   4  16
ATOM     16  O   UNL     1      19.837  -2.048 192.502  0.00  0.00    +0.000 OA
ATOM     17  H   UNL     1      19.520  -2.876 192.908  0.00  0.00    +0.000 HD
ENDBRANCH   4  16
BRANCH  13  18
ATOM     18  O   UNL     1      26.734   1.182 193.982  0.00  0.00    +0.000 OA
ATOM     19  H   UNL     1      26.788   1.900 193.326  0.00  0.00    +0.000 HD
ENDBRANCH  13  18
BRANCH   3  20
ATOM     20  C   UNL     1      20.554   0.644 192.009  0.00  0.00    +0.000 C 
ATOM     21  C   UNL     1      20.275   1.329 190.668  0.00  0.00    +0.000 C 
BRANCH  21  25
ATOM     22  C   UNL     1      21.095   2.575 188.561  0.00  0.00    +0.000 A 
ATOM     23  C   UNL     1      20.729   3.263 187.188  0.00  0.00    +0.000 A 
ATOM     24  C   UNL     1      22.589   2.497 189.082  0.00  0.00    +0.000 C 
ATOM     25  C   UNL     1      19.968   1.980 189.433  0.00  0.00    +0.000 A 
ATOM     26  C   UNL     1      21.688   3.895 186.153  0.00  0.00    +0.000 C 
ATOM     27  C   UNL     1      23.385   3.171 188.052  0.00  0.00    +0.000 C 
ATOM     28  C   UNL     1      23.011   3.808 186.740  0.00  0.00    +0.000 C 
ATOM     29  C   UNL     1      19.316   3.278 186.997  0.00  0.00    +0.000 A 
ATOM     30  C   UNL     1      18.528   2.060 189.059  0.00  0.00    +0.000 A 
ATOM     31  C   UNL     1      23.030   1.017 189.183  0.00  0.00    +0.000 C 
ATOM     32  C   UNL     1      22.724   3.269 190.413  0.00  0.00    +0.000 C 
ATOM     33  C   UNL     1      18.317   2.676 187.940  0.00  0.00    +0.000 A 
ATOM     34  C   UNL     1      21.578   3.206 184.801  0.00  0.00    +0.000 C 
ATOM     35  C   UNL     1      17.389   1.396 189.775  0.00  0.00    +0.000 C 
BRANCH  26  36
ATOM     36  O   UNL     1      21.346   5.244 185.959  0.00  0.00    +0.000 OA
ATOM     37  H   UNL     1      22.074   5.537 185.380  0.00  0.00    +0.000 HD
ENDBRANCH  26  36
ENDBRANCH  21  25
ENDBRANCH   3  20
TORSDOF 5
ENDMDL
MODEL 2
REMARK VINA RESULT:      -9.1      3.308      5.056
REMARK  Name = 44234954_SipholenolL.pdbqt.pdb
REMARK  5 active torsions:
REMARK  status: ('A' for Active; 'I' for Inactive)
REMARK    1  A    between atoms: C_3  and  C_20
REMARK    2  A    between atoms: C_4  and  O_16
REMARK    3  A    between atoms: C_13  and  O_18
REMARK    4  A    between atoms: C_21  and  C_25
REMARK    5  A    between atoms: C_26  and  O_36
REMARK                            x       y       z     vdW  Elec       q    Type
REMARK                         _______ _______ _______ _____ _____    ______ ____
ROOT
ATOM      1  O   UNL     1      29.462   2.037 191.734  0.00  0.00    +0.000 OA
ATOM      2  C   UNL     1      26.939   1.600 192.216  0.00  0.00    +0.000 C 
ATOM      3  C   UNL     1      25.862   0.513 192.208  0.00  0.00    +0.000 C 
ATOM      4  C   UNL     1      26.159  -0.839 192.831  0.00  0.00    +0.000 C 
ATOM      5  C   UNL     1      28.433   1.117 191.953  0.00  0.00    +0.000 C 
ATOM      6  C   UNL     1      26.750   2.541 191.101  0.00  0.00    +0.000 C 
ATOM      7  C   UNL     1      27.595  -1.052 192.808  0.00  0.00    +0.000 C 
ATOM      8  C   UNL     1      28.739  -0.185 192.399  0.00  0.00    +0.000 C 
ATOM      9  C   UNL     1      26.903   2.364 193.565  0.00  0.00    +0.000 C 
ATOM     10  C   UNL     1      27.530   3.273 190.039  0.00  0.00    +0.000 C 
ATOM     11  C   UNL     1      29.889   2.339 190.357  0.00  0.00    +0.000 C 
ATOM     12  C   UNL     1      25.526  -0.986 194.211  0.00  0.00    +0.000 C 
ATOM     13  C   UNL     1      28.884   3.295 189.630  0.00  0.00    +0.000 C 
ATOM     14  C   UNL     1      31.258   3.058 190.492  0.00  0.00    +0.000 C 
ATOM     15  C   UNL     1      30.035   1.033 189.515  0.00  0.00    +0.000 C 
ENDROOT
BRANCH   4  16
ATOM     16  O   UNL     1      25.555  -1.845 192.044  0.00  0.00    +0.000 OA
ATOM     17  H   UNL     1      26.068  -2.626 192.321  0.00  0.00    +0.000 HD
ENDBRANCH   4  16
BRANCH  13  18
ATOM     18  O   UNL     1      29.228   3.982 188.472  0.00  0.00    +0.000 OA
ATOM     19  H   UNL     1      29.054   4.937 188.541  0.00  0.00    +0.000 HD
ENDBRANCH  13  18
BRANCH   3  20
ATOM     20  C   UNL     1      24.554   0.775 191.673  0.00  0.00    +0.000 C 
ATOM     21  C   UNL     1      23.162   1.089 191.116  0.00  0.00    +0.000 C 
BRANCH  21  25
ATOM     22  C   UNL     1      21.738   2.466 189.460  0.00  0.00    +0.000 A 
ATOM     23  C   UNL     1      20.307   2.803 188.887  0.00  0.00    +0.000 A 
ATOM     24  C   UNL     1      23.044   3.180 188.913  0.00  0.00    +0.000 C 
ATOM     25  C   UNL     1      21.874   1.431 190.597  0.00  0.00    +0.000 A 
ATOM     26  C   UNL     1      19.942   3.777 187.743  0.00  0.00    +0.000 C 
ATOM     27  C   UNL     1      22.565   4.108 187.884  0.00  0.00    +0.000 C 
ATOM     28  C   UNL     1      21.190   4.399 187.346  0.00  0.00    +0.000 C 
ATOM     29  C   UNL     1      19.301   2.094 189.606  0.00  0.00    +0.000 A 
ATOM     30  C   UNL     1      20.702   0.755 191.219  0.00  0.00    +0.000 A 
ATOM     31  C   UNL     1      23.978   2.131 188.263  0.00  0.00    +0.000 C 
ATOM     32  C   UNL     1      23.719   3.982 190.046  0.00  0.00    +0.000 C 
ATOM     33  C   UNL     1      19.566   1.120 190.717  0.00  0.00    +0.000 A 
ATOM     34  C   UNL     1      19.235   3.057 186.604  0.00  0.00    +0.000 C 
ATOM     35  C   UNL     1      20.751  -0.355 192.229  0.00  0.00    +0.000 C 
BRANCH  26  36
ATOM     36  O   UNL     1      19.059   4.757 188.225  0.00  0.00    +0.000 OA
ATOM     37  H   UNL     1      18.448   4.212 188.754  0.00  0.00    +0.000 HD
ENDBRANCH  26  36
ENDBRANCH  21  25
ENDBRANCH   3  20
TORSDOF 5
ENDMDL
MODEL 3
REMARK VINA RESULT:      -8.0      1.856      3.364
REMARK  Name = 44234954_SipholenolL.pdbqt.pdb
REMARK  5 active torsions:
REMARK  status: ('A' for Active; 'I' for Inactive)
REMARK    1  A    between atoms: C_3  and  C_20
REMARK    2  A    between atoms: C_4  and  O_16
REMARK    3  A    between atoms: C_13  and  O_18
REMARK    4  A    between atoms: C_21  and  C_25
REMARK    5  A    between atoms: C_26  and  O_36
REMARK                            x       y       z     vdW  Elec       q    Type
REMARK                         _______ _______ _______ _____ _____    ______ ____
ROOT
ATOM      1  O   UNL     1      22.964  -0.933 198.164  0.00  0.00    +0.000 OA
ATOM      2  C   UNL     1      21.873   0.321 196.157  0.00  0.00    +0.000 C 
ATOM      3  C   UNL     1      21.187   0.104 194.806  0.00  0.00    +0.000 C 
ATOM      4  C   UNL     1      20.089  -0.937 194.683  0.00  0.00    +0.000 C 
ATOM      5  C   UNL     1      22.164  -0.986 197.018  0.00  0.00    +0.000 C 
ATOM      6  C   UNL     1      23.235   0.848 195.980  0.00  0.00    +0.000 C 
ATOM      7  C   UNL     1      20.281  -1.935 195.718  0.00  0.00    +0.000 C 
ATOM      8  C   UNL     1      21.244  -2.042 196.853  0.00  0.00    +0.000 C 
ATOM      9  C   UNL     1      21.034   1.298 197.020  0.00  0.00    +0.000 C 
ATOM     10  C   UNL     1      24.638   0.669 196.502  0.00  0.00    +0.000 C 
ATOM     11  C   UNL     1      24.382  -1.324 198.081  0.00  0.00    +0.000 C 
ATOM     12  C   UNL     1      18.700  -0.305 194.672  0.00  0.00    +0.000 C 
ATOM     13  C   UNL     1      25.258  -0.208 197.421  0.00  0.00    +0.000 C 
ATOM     14  C   UNL     1      24.845  -1.526 199.550  0.00  0.00    +0.000 C 
ATOM     15  C   UNL     1      24.553  -2.643 197.265  0.00  0.00    +0.000 C 
ENDROOT
BRANCH   4  16
ATOM     16  O   UNL     1      20.208  -1.576 193.428  0.00  0.00    +0.000 OA
ATOM     17  H   UNL     1      21.172  -1.529 193.290  0.00  0.00    +0.000 HD
ENDBRANCH   4  16
BRANCH  13  18
ATOM     18  O   UNL     1      26.643  -0.196 197.536  0.00  0.00    +0.000 OA
ATOM     19  H   UNL     1      26.980  -0.953 198.046  0.00  0.00    +0.000 HD
ENDBRANCH  13  18
BRANCH   3  20
ATOM     20  C   UNL     1      21.526   0.915 193.669  0.00  0.00    +0.000 C 
ATOM     21  C   UNL     1      21.894   1.807 192.479  0.00  0.00    +0.000 C 
BRANCH  21  25
ATOM     22  C   UNL     1      21.251   2.998 190.280  0.00  0.00    +0.000 A 
ATOM     23  C   UNL     1      21.674   3.977 189.117  0.00  0.00    +0.000 A 
ATOM     24  C   UNL     1      19.819   2.320 190.319  0.00  0.00    +0.000 C 
ATOM     25  C   UNL     1      22.262   2.670 191.400  0.00  0.00    +0.000 A 
ATOM     26  C   UNL     1      20.824   4.460 187.920  0.00  0.00    +0.000 C 
ATOM     27  C   UNL     1      19.136   2.808 189.117  0.00  0.00    +0.000 C 
ATOM     28  C   UNL     1      19.560   3.757 188.028  0.00  0.00    +0.000 C 
ATOM     29  C   UNL     1      23.035   4.376 189.269  0.00  0.00    +0.000 A 
ATOM     30  C   UNL     1      23.651   3.207 191.417  0.00  0.00    +0.000 A 
ATOM     31  C   UNL     1      19.050   2.798 191.574  0.00  0.00    +0.000 C 
ATOM     32  C   UNL     1      19.959   0.785 190.234  0.00  0.00    +0.000 C 
ATOM     33  C   UNL     1      23.925   3.967 190.406  0.00  0.00    +0.000 A 
ATOM     34  C   UNL     1      20.676   5.975 187.919  0.00  0.00    +0.000 C 
ATOM     35  C   UNL     1      24.648   3.051 192.528  0.00  0.00    +0.000 C 
BRANCH  26  36
ATOM     36  O   UNL     1      21.459   4.106 186.719  0.00  0.00    +0.000 OA
ATOM     37  H   UNL     1      20.987   3.283 186.494  0.00  0.00    +0.000 HD
ENDBRANCH  26  36
ENDBRANCH  21  25
ENDBRANCH   3  20
TORSDOF 5
ENDMDL
MODEL 4
REMARK VINA RESULT:      -8.0     33.720     35.617
REMARK  Name = 44234954_SipholenolL.pdbqt.pdb
REMARK  5 active torsions:
REMARK  status: ('A' for Active; 'I' for Inactive)
REMARK    1  A    between atoms: C_3  and  C_20
REMARK    2  A    between atoms: C_4  and  O_16
REMARK    3  A    between atoms: C_13  and  O_18
REMARK    4  A    between atoms: C_21  and  C_25
REMARK    5  A    between atoms: C_26  and  O_36
REMARK                            x       y       z     vdW  Elec       q    Type
REMARK                         _______ _______ _______ _____ _____    ______ ____
ROOT
ATOM      1  O   UNL     1      39.488 -24.811 176.308  0.00  0.00    +0.000 OA
ATOM      2  C   UNL     1      40.088 -23.041 174.491  0.00  0.00    +0.000 C 
ATOM      3  C   UNL     1      39.683 -21.674 173.935  0.00  0.00    +0.000 C 
ATOM      4  C   UNL     1      39.421 -20.525 174.890  0.00  0.00    +0.000 C 
ATOM      5  C   UNL     1      39.353 -23.506 175.825  0.00  0.00    +0.000 C 
ATOM      6  C   UNL     1      39.704 -24.122 173.570  0.00  0.00    +0.000 C 
ATOM      7  C   UNL     1      39.041 -21.074 176.179  0.00  0.00    +0.000 C 
ATOM      8  C   UNL     1      38.970 -22.470 176.702  0.00  0.00    +0.000 C 
ATOM      9  C   UNL     1      41.618 -23.075 174.739  0.00  0.00    +0.000 C 
ATOM     10  C   UNL     1      39.085 -25.497 173.569  0.00  0.00    +0.000 C 
ATOM     11  C   UNL     1      38.439 -25.805 176.023  0.00  0.00    +0.000 C 
ATOM     12  C   UNL     1      40.592 -19.548 174.947  0.00  0.00    +0.000 C 
ATOM     13  C   UNL     1      38.526 -26.342 174.555  0.00  0.00    +0.000 C 
ATOM     14  C   UNL     1      38.700 -26.980 177.004  0.00  0.00    +0.000 C 
ATOM     15  C   UNL     1      37.018 -25.203 176.253  0.00  0.00    +0.000 C 
ENDROOT
BRANCH   4  16
ATOM     16  O   UNL     1      38.336 -19.765 174.400  0.00  0.00    +0.000 OA
ATOM     17  H   UNL     1      38.751 -18.885 174.320  0.00  0.00    +0.000 HD
ENDBRANCH   4  16
BRANCH  13  18
ATOM     18  O   UNL     1      37.878 -27.506 174.158  0.00  0.00    +0.000 OA
ATOM     19  H   UNL     1      38.090 -28.263 174.731  0.00  0.00    +0.000 HD
ENDBRANCH  13  18
BRANCH   3  20
ATOM     20  C   UNL     1      39.609 -21.449 172.517  0.00  0.00    +0.000 C 
ATOM     21  C   UNL     1      39.564 -21.216 171.003  0.00  0.00    +0.000 C 
BRANCH  21  25
ATOM     22  C   UNL     1      38.674 -21.895 168.677  0.00  0.00    +0.000 A 
ATOM     23  C   UNL     1      38.675 -21.642 167.120  0.00  0.00    +0.000 A 
ATOM     24  C   UNL     1      37.797 -23.040 169.335  0.00  0.00    +0.000 C 
ATOM     25  C   UNL     1      39.567 -21.023 169.587  0.00  0.00    +0.000 A 
ATOM     26  C   UNL     1      37.850 -22.370 166.034  0.00  0.00    +0.000 C 
ATOM     27  C   UNL     1      37.112 -23.685 168.210  0.00  0.00    +0.000 C 
ATOM     28  C   UNL     1      37.120 -23.413 166.730  0.00  0.00    +0.000 C 
ATOM     29  C   UNL     1      39.611 -20.621 166.779  0.00  0.00    +0.000 A 
ATOM     30  C   UNL     1      40.473 -19.967 169.057  0.00  0.00    +0.000 A 
ATOM     31  C   UNL     1      36.747 -22.413 170.282  0.00  0.00    +0.000 C 
ATOM     32  C   UNL     1      38.712 -24.071 170.030  0.00  0.00    +0.000 C 
ATOM     33  C   UNL     1      40.440 -19.855 167.768  0.00  0.00    +0.000 A 
ATOM     34  C   UNL     1      36.950 -21.403 165.278  0.00  0.00    +0.000 C 
ATOM     35  C   UNL     1      41.267 -18.989 169.873  0.00  0.00    +0.000 C 
BRANCH  26  36
ATOM     36  O   UNL     1      38.717 -22.949 165.093  0.00  0.00    +0.000 OA
ATOM     37  H   UNL     1      38.484 -23.892 165.182  0.00  0.00    +0.000 HD
ENDBRANCH  26  36
ENDBRANCH  21  25
ENDBRANCH   3  20
TORSDOF 5
ENDMDL
MODEL 5
REMARK VINA RESULT:      -7.7      3.115      5.991
REMARK  Name = 44234954_SipholenolL.pdbqt.pdb
REMARK  5 active torsions:
REMARK  status: ('A' for Active; 'I' for Inactive)
REMARK    1  A    between atoms: C_3  and  C_20
REMARK    2  A    between atoms: C_4  and  O_16
REMARK    3  A    between atoms: C_13  and  O_18
REMARK    4  A    between atoms: C_21  and  C_25
REMARK    5  A    between atoms: C_26  and  O_36
REMARK                            x       y       z     vdW  Elec       q    Type
REMARK                         _______ _______ _______ _____ _____    ______ ____
ROOT
ATOM      1  O   UNL     1      28.929   2.194 191.380  0.00  0.00    +0.000 OA
ATOM      2  C   UNL     1      26.890   1.278 192.719  0.00  0.00    +0.000 C 
ATOM      3  C   UNL     1      26.133  -0.006 193.069  0.00  0.00    +0.000 C 
ATOM      4  C   UNL     1      26.906  -1.234 193.512  0.00  0.00    +0.000 C 
ATOM      5  C   UNL     1      28.260   1.096 191.930  0.00  0.00    +0.000 C 
ATOM      6  C   UNL     1      26.126   2.100 191.768  0.00  0.00    +0.000 C 
ATOM      7  C   UNL     1      28.252  -1.150 192.974  0.00  0.00    +0.000 C 
ATOM      8  C   UNL     1      28.969  -0.091 192.205  0.00  0.00    +0.000 C 
ATOM      9  C   UNL     1      27.174   2.087 194.011  0.00  0.00    +0.000 C 
ATOM     10  C   UNL     1      26.310   2.920 190.516  0.00  0.00    +0.000 C 
ATOM     11  C   UNL     1      28.768   2.505 189.949  0.00  0.00    +0.000 C 
ATOM     12  C   UNL     1      26.847  -1.434 195.023  0.00  0.00    +0.000 C 
ATOM     13  C   UNL     1      27.395   3.196 189.653  0.00  0.00    +0.000 C 
ATOM     14  C   UNL     1      29.914   3.494 189.605  0.00  0.00    +0.000 C 
ATOM     15  C   UNL     1      28.876   1.214 189.080  0.00  0.00    +0.000 C 
ENDROOT
BRANCH   4  16
ATOM     16  O   UNL     1      26.287  -2.381 192.968  0.00  0.00    +0.000 OA
ATOM     17  H   UNL     1      26.647  -2.370 192.061  0.00  0.00    +0.000 HD
ENDBRANCH   4  16
BRANCH  13  18
ATOM     18  O   UNL     1      27.155   3.877 188.465  0.00  0.00    +0.000 OA
ATOM     19  H   UNL     1      27.646   3.498 187.714  0.00  0.00    +0.000 HD
ENDBRANCH  13  18
BRANCH   3  20
ATOM     20  C   UNL     1      24.696  -0.043 193.042  0.00  0.00    +0.000 C 
ATOM     21  C   UNL     1      23.165  -0.059 192.988  0.00  0.00    +0.000 C 
BRANCH  21  25
ATOM     22  C   UNL     1      21.024   0.908 191.917  0.00  0.00    +0.000 A 
ATOM     23  C   UNL     1      19.450   0.872 191.810  0.00  0.00    +0.000 A 
ATOM     24  C   UNL     1      21.895   1.923 191.067  0.00  0.00    +0.000 C 
ATOM     25  C   UNL     1      21.739  -0.054 192.892  0.00  0.00    +0.000 A 
ATOM     26  C   UNL     1      18.537   1.718 190.892  0.00  0.00    +0.000 C 
ATOM     27  C   UNL     1      20.922   2.696 190.288  0.00  0.00    +0.000 C 
ATOM     28  C   UNL     1      19.421   2.631 190.194  0.00  0.00    +0.000 C 
ATOM     29  C   UNL     1      18.906  -0.062 192.739  0.00  0.00    +0.000 A 
ATOM     30  C   UNL     1      21.005  -0.999 193.778  0.00  0.00    +0.000 A 
ATOM     31  C   UNL     1      22.815   1.138 190.101  0.00  0.00    +0.000 C 
ATOM     32  C   UNL     1      22.663   2.876 192.007  0.00  0.00    +0.000 C 
ATOM     33  C   UNL     1      19.718  -0.932 193.654  0.00  0.00    +0.000 A 
ATOM     34  C   UNL     1      17.717   0.836 189.961  0.00  0.00    +0.000 C 
ATOM     35  C   UNL     1      21.619  -2.055 194.650  0.00  0.00    +0.000 C 
BRANCH  26  36
ATOM     36  O   UNL     1      17.629   2.448 191.676  0.00  0.00    +0.000 OA
ATOM     37  H   UNL     1      16.830   1.895 191.597  0.00  0.00    +0.000 HD
ENDBRANCH  26  36
ENDBRANCH  21  25
ENDBRANCH   3  20
TORSDOF 5
ENDMDL
MODEL 6
REMARK VINA RESULT:      -7.5      2.059      3.946
REMARK  Name = 44234954_SipholenolL.pdbqt.pdb
REMARK  5 active torsions:
REMARK  status: ('A' for Active; 'I' for Inactive)
REMARK    1  A    between atoms: C_3  and  C_20
REMARK    2  A    between atoms: C_4  and  O_16
REMARK    3  A    between atoms: C_13  and  O_18
REMARK    4  A    between atoms: C_21  and  C_25
REMARK    5  A    between atoms: C_26  and  O_36
REMARK                            x       y       z     vdW  Elec       q    Type
REMARK                         _______ _______ _______ _____ _____    ______ ____
ROOT
ATOM      1  O   UNL     1      27.655   0.233 196.093  0.00  0.00    +0.000 OA
ATOM      2  C   UNL     1      25.623   0.904 194.605  0.00  0.00    +0.000 C 
ATOM      3  C   UNL     1      24.333   0.366 193.982  0.00  0.00    +0.000 C 
ATOM      4  C   UNL     1      23.374  -0.447 194.832  0.00  0.00    +0.000 C 
ATOM      5  C   UNL     1      26.372  -0.064 195.624  0.00  0.00    +0.000 C 
ATOM      6  C   UNL     1      26.665   1.094 193.584  0.00  0.00    +0.000 C 
ATOM      7  C   UNL     1      24.120  -1.054 195.918  0.00  0.00    +0.000 C 
ATOM      8  C   UNL     1      25.542  -0.936 196.357  0.00  0.00    +0.000 C 
ATOM      9  C   UNL     1      25.337   2.246 195.328  0.00  0.00    +0.000 C 
ATOM     10  C   UNL     1      28.136   0.861 193.353  0.00  0.00    +0.000 C 
ATOM     11  C   UNL     1      28.826  -0.403 195.465  0.00  0.00    +0.000 C 
ATOM     12  C   UNL     1      22.170   0.375 195.282  0.00  0.00    +0.000 C 
ATOM     13  C   UNL     1      29.180   0.253 194.088  0.00  0.00    +0.000 C 
ATOM     14  C   UNL     1      30.004  -0.174 196.449  0.00  0.00    +0.000 C 
ATOM     15  C   UNL     1      28.584  -1.929 195.244  0.00  0.00    +0.000 C 
ENDROOT
BRANCH   4  16
ATOM     16  O   UNL     1      22.831  -1.483 194.039  0.00  0.00    +0.000 OA
ATOM     17  H   UNL     1      23.573  -1.654 193.429  0.00  0.00    +0.000 HD
ENDBRANCH   4  16
BRANCH  13  18
ATOM     18  O   UNL     1      30.413   0.062 193.477  0.00  0.00    +0.000 OA
ATOM     19  H   UNL     1      30.995  -0.525 193.991  0.00  0.00    +0.000 HD
ENDBRANCH  13  18
BRANCH   3  20
ATOM     20  C   UNL     1      23.990   0.673 192.620  0.00  0.00    +0.000 C 
ATOM     21  C   UNL     1      23.608   1.030 191.180  0.00  0.00    +0.000 C 
BRANCH  21  25
ATOM     22  C   UNL     1      21.844   1.984 189.554  0.00  0.00    +0.000 A 
ATOM     23  C   UNL     1      21.483   2.424 188.083  0.00  0.00    +0.000 A 
ATOM     24  C   UNL     1      20.795   2.091 190.738  0.00  0.00    +0.000 C 
ATOM     25  C   UNL     1      23.247   1.412 189.851  0.00  0.00    +0.000 A 
ATOM     26  C   UNL     1      20.161   3.040 187.569  0.00  0.00    +0.000 C 
ATOM     27  C   UNL     1      19.581   2.631 190.119  0.00  0.00    +0.000 C 
ATOM     28  C   UNL     1      19.267   3.058 188.710  0.00  0.00    +0.000 C 
ATOM     29  C   UNL     1      22.564   2.144 187.197  0.00  0.00    +0.000 A 
ATOM     30  C   UNL     1      24.278   1.213 188.795  0.00  0.00    +0.000 A 
ATOM     31  C   UNL     1      21.312   3.087 191.804  0.00  0.00    +0.000 C 
ATOM     32  C   UNL     1      20.494   0.688 191.305  0.00  0.00    +0.000 C 
ATOM     33  C   UNL     1      23.883   1.562 187.612  0.00  0.00    +0.000 A 
ATOM     34  C   UNL     1      20.390   4.416 186.958  0.00  0.00    +0.000 C 
ATOM     35  C   UNL     1      25.703   0.793 189.014  0.00  0.00    +0.000 C 
BRANCH  26  36
ATOM     36  O   UNL     1      19.623   2.224 186.560  0.00  0.00    +0.000 OA
ATOM     37  H   UNL     1      18.975   1.704 187.069  0.00  0.00    +0.000 HD
ENDBRANCH  26  36
ENDBRANCH  21  25
ENDBRANCH   3  20
TORSDOF 5
ENDMDL
MODEL 7
REMARK VINA RESULT:      -7.0      3.443      7.611
REMARK  Name = 44234954_SipholenolL.pdbqt.pdb
REMARK  5 active torsions:
REMARK  status: ('A' for Active; 'I' for Inactive)
REMARK    1  A    between atoms: C_3  and  C_20
REMARK    2  A    between atoms: C_4  and  O_16
REMARK    3  A    between atoms: C_13  and  O_18
REMARK    4  A    between atoms: C_21  and  C_25
REMARK    5  A    between atoms: C_26  and  O_36
REMARK                            x       y       z     vdW  Elec       q    Type
REMARK                         _______ _______ _______ _____ _____    ______ ____
ROOT
ATOM      1  O   UNL     1      28.493   2.060 191.689  0.00  0.00    +0.000 OA
ATOM      2  C   UNL     1      26.540   1.401 193.284  0.00  0.00    +0.000 C 
ATOM      3  C   UNL     1      25.760   0.204 193.834  0.00  0.00    +0.000 C 
ATOM      4  C   UNL     1      26.515  -1.009 194.346  0.00  0.00    +0.000 C 
ATOM      5  C   UNL     1      27.827   1.063 192.410  0.00  0.00    +0.000 C 
ATOM      6  C   UNL     1      25.733   2.156 192.313  0.00  0.00    +0.000 C 
ATOM      7  C   UNL     1      27.811  -1.055 193.695  0.00  0.00    +0.000 C 
ATOM      8  C   UNL     1      28.504  -0.123 192.757  0.00  0.00    +0.000 C 
ATOM      9  C   UNL     1      26.970   2.328 194.451  0.00  0.00    +0.000 C 
ATOM     10  C   UNL     1      25.843   2.827 190.967  0.00  0.00    +0.000 C 
ATOM     11  C   UNL     1      28.222   2.223 190.251  0.00  0.00    +0.000 C 
ATOM     12  C   UNL     1      26.579  -1.043 195.870  0.00  0.00    +0.000 C 
ATOM     13  C   UNL     1      26.860   2.951 189.992  0.00  0.00    +0.000 C 
ATOM     14  C   UNL     1      29.376   3.108 189.707  0.00  0.00    +0.000 C 
ATOM     15  C   UNL     1      28.198   0.843 189.524  0.00  0.00    +0.000 C 
ENDROOT
BRANCH   4  16
ATOM     16  O   UNL     1      25.801  -2.174 193.985  0.00  0.00    +0.000 OA
ATOM     17  H   UNL     1      25.076  -1.787 193.460  0.00  0.00    +0.000 HD
ENDBRANCH   4  16
BRANCH  13  18
ATOM     18  O   UNL     1      26.548   3.513 188.760  0.00  0.00    +0.000 OA
ATOM     19  H   UNL     1      26.580   2.862 188.036  0.00  0.00    +0.000 HD
ENDBRANCH  13  18
BRANCH   3  20
ATOM     20  C   UNL     1      24.326   0.240 193.930  0.00  0.00    +0.000 C 
ATOM     21  C   UNL     1      22.801   0.292 194.064  0.00  0.00    +0.000 C 
BRANCH  21  25
ATOM     22  C   UNL     1      20.721  -0.049 195.554  0.00  0.00    +0.000 A 
ATOM     23  C   UNL     1      19.157   0.080 195.715  0.00  0.00    +0.000 A 
ATOM     24  C   UNL     1      21.633  -0.628 196.714  0.00  0.00    +0.000 C 
ATOM     25  C   UNL     1      21.383   0.376 194.226  0.00  0.00    +0.000 A 
ATOM     26  C   UNL     1      18.294  -0.258 196.953  0.00  0.00    +0.000 C 
ATOM     27  C   UNL     1      20.703  -0.959 197.798  0.00  0.00    +0.000 C 
ATOM     28  C   UNL     1      19.211  -0.810 197.931  0.00  0.00    +0.000 C 
ATOM     29  C   UNL     1      18.565   0.541 194.503  0.00  0.00    +0.000 A 
ATOM     30  C   UNL     1      20.605   0.871 193.057  0.00  0.00    +0.000 A 
ATOM     31  C   UNL     1      22.616   0.465 197.199  0.00  0.00    +0.000 C 
ATOM     32  C   UNL     1      22.337  -1.917 196.239  0.00  0.00    +0.000 C 
ATOM     33  C   UNL     1      19.327   0.906 193.263  0.00  0.00    +0.000 A 
ATOM     34  C   UNL     1      17.538   0.964 197.454  0.00  0.00    +0.000 C 
ATOM     35  C   UNL     1      21.174   1.429 191.785  0.00  0.00    +0.000 C 
BRANCH  26  36
ATOM     36  O   UNL     1      17.335  -1.224 196.607  0.00  0.00    +0.000 OA
ATOM     37  H   UNL     1      16.696  -0.681 196.111  0.00  0.00    +0.000 HD
ENDBRANCH  26  36
ENDBRANCH  21  25
ENDBRANCH   3  20
TORSDOF 5
ENDMDL
MODEL 8
REMARK VINA RESULT:      -6.9     33.776     35.726
REMARK  Name = 44234954_SipholenolL.pdbqt.pdb
REMARK  5 active torsions:
REMARK  status: ('A' for Active; 'I' for Inactive)
REMARK    1  A    between atoms: C_3  and  C_20
REMARK    2  A    between atoms: C_4  and  O_16
REMARK    3  A    between atoms: C_13  and  O_18
REMARK    4  A    between atoms: C_21  and  C_25
REMARK    5  A    between atoms: C_26  and  O_36
REMARK                            x       y       z     vdW  Elec       q    Type
REMARK                         _______ _______ _______ _____ _____    ______ ____
ROOT
ATOM      1  O   UNL     1      35.773 -29.707 176.298  0.00  0.00    +0.000 OA
ATOM      2  C   UNL     1      37.541 -28.199 175.118  0.00  0.00    +0.000 C 
ATOM      3  C   UNL     1      38.720 -27.260 175.383  0.00  0.00    +0.000 C 
ATOM      4  C   UNL     1      39.808 -27.681 176.354  0.00  0.00    +0.000 C 
ATOM      5  C   UNL     1      36.969 -28.986 176.378  0.00  0.00    +0.000 C 
ATOM      6  C   UNL     1      36.350 -27.445 174.696  0.00  0.00    +0.000 C 
ATOM      7  C   UNL     1      39.247 -28.639 177.289  0.00  0.00    +0.000 C 
ATOM      8  C   UNL     1      37.911 -29.299 177.379  0.00  0.00    +0.000 C 
ATOM      9  C   UNL     1      37.927 -29.233 174.029  0.00  0.00    +0.000 C 
ATOM     10  C   UNL     1      34.862 -27.376 174.930  0.00  0.00    +0.000 C 
ATOM     11  C   UNL     1      34.523 -29.100 176.787  0.00  0.00    +0.000 C 
ATOM     12  C   UNL     1      41.061 -28.169 175.634  0.00  0.00    +0.000 C 
ATOM     13  C   UNL     1      33.952 -28.047 175.780  0.00  0.00    +0.000 C 
ATOM     14  C   UNL     1      33.513 -30.273 176.916  0.00  0.00    +0.000 C 
ATOM     15  C   UNL     1      34.739 -28.407 178.168  0.00  0.00    +0.000 C 
ENDROOT
BRANCH   4  16
ATOM     16  O   UNL     1      40.226 -26.547 177.086  0.00  0.00    +0.000 OA
ATOM     17  H   UNL     1      40.263 -26.916 177.988  0.00  0.00    +0.000 HD
ENDBRANCH   4  16
BRANCH  13  18
ATOM     18  O   UNL     1      32.639 -27.597 175.852  0.00  0.00    +0.000 OA
ATOM     19  H   UNL     1      32.009 -28.316 176.035  0.00  0.00    +0.000 HD
ENDBRANCH  13  18
BRANCH   3  20
ATOM     20  C   UNL     1      38.843 -26.014 174.677  0.00  0.00    +0.000 C 
ATOM     21  C   UNL     1      38.938 -24.681 173.928  0.00  0.00    +0.000 C 
BRANCH  21  25
ATOM     22  C   UNL     1      39.937 -22.308 173.730  0.00  0.00    +0.000 A 
ATOM     23  C   UNL     1      39.987 -20.940 172.945  0.00  0.00    +0.000 A 
ATOM     24  C   UNL     1      40.827 -22.564 175.017  0.00  0.00    +0.000 C 
ATOM     25  C   UNL     1      38.983 -23.423 173.250  0.00  0.00    +0.000 A 
ATOM     26  C   UNL     1      40.877 -19.709 173.230  0.00  0.00    +0.000 C 
ATOM     27  C   UNL     1      41.576 -21.318 175.213  0.00  0.00    +0.000 C 
ATOM     28  C   UNL     1      41.614 -20.029 174.437  0.00  0.00    +0.000 C 
ATOM     29  C   UNL     1      39.031 -20.936 171.888  0.00  0.00    +0.000 A 
ATOM     30  C   UNL     1      38.062 -23.255 172.092  0.00  0.00    +0.000 A 
ATOM     31  C   UNL     1      41.820 -23.719 174.743  0.00  0.00    +0.000 C 
ATOM     32  C   UNL     1      39.923 -22.810 176.243  0.00  0.00    +0.000 C 
ATOM     33  C   UNL     1      38.140 -22.090 171.533  0.00  0.00    +0.000 A 
ATOM     34  C   UNL     1      41.771 -19.383 172.042  0.00  0.00    +0.000 C 
ATOM     35  C   UNL     1      37.205 -24.324 171.478  0.00  0.00    +0.000 C 
BRANCH  26  36
ATOM     36  O   UNL     1      40.066 -18.585 173.457  0.00  0.00    +0.000 OA
ATOM     37  H   UNL     1      40.374 -18.308 174.339  0.00  0.00    +0.000 HD
ENDBRANCH  26  36
ENDBRANCH  21  25
ENDBRANCH   3  20
TORSDOF 5
ENDMDL
MODEL 9
REMARK VINA RESULT:      -6.5     17.807     22.133
REMARK  Name = 44234954_SipholenolL.pdbqt.pdb
REMARK  5 active torsions:
REMARK  status: ('A' for Active; 'I' for Inactive)
REMARK    1  A    between atoms: C_3  and  C_20
REMARK    2  A    between atoms: C_4  and  O_16
REMARK    3  A    between atoms: C_13  and  O_18
REMARK    4  A    between atoms: C_21  and  C_25
REMARK    5  A    between atoms: C_26  and  O_36
REMARK                            x       y       z     vdW  Elec       q    Type
REMARK                         _______ _______ _______ _____ _____    ______ ____
ROOT
ATOM      1  O   UNL     1      34.151  12.628 184.932  0.00  0.00    +0.000 OA
ATOM      2  C   UNL     1      35.605  12.448 182.776  0.00  0.00    +0.000 C 
ATOM      3  C   UNL     1      36.863  12.997 182.101  0.00  0.00    +0.000 C 
ATOM      4  C   UNL     1      38.152  13.108 182.895  0.00  0.00    +0.000 C 
ATOM      5  C   UNL     1      35.361  12.896 184.284  0.00  0.00    +0.000 C 
ATOM      6  C   UNL     1      34.389  12.966 182.131  0.00  0.00    +0.000 C 
ATOM      7  C   UNL     1      37.818  13.215 184.303  0.00  0.00    +0.000 C 
ATOM      8  C   UNL     1      36.524  13.137 185.044  0.00  0.00    +0.000 C 
ATOM      9  C   UNL     1      35.615  10.898 182.723  0.00  0.00    +0.000 C 
ATOM     10  C   UNL     1      33.031  13.528 182.468  0.00  0.00    +0.000 C 
ATOM     11  C   UNL     1      33.122  13.678 185.018  0.00  0.00    +0.000 C 
ATOM     12  C   UNL     1      39.127  11.981 182.566  0.00  0.00    +0.000 C 
ATOM     13  C   UNL     1      32.355  13.858 183.665  0.00  0.00    +0.000 C 
ATOM     14  C   UNL     1      32.122  13.194 186.103  0.00  0.00    +0.000 C 
ATOM     15  C   UNL     1      33.751  15.047 185.423  0.00  0.00    +0.000 C 
ENDROOT
BRANCH   4  16
ATOM     16  O   UNL     1      38.821  14.292 182.512  0.00  0.00    +0.000 OA
ATOM     17  H   UNL     1      38.419  14.454 181.639  0.00  0.00    +0.000 HD
ENDBRANCH   4  16
BRANCH  13  18
ATOM     18  O   UNL     1      31.142  14.532 183.591  0.00  0.00    +0.000 OA
ATOM     19  H   UNL     1      30.535  14.283 184.310  0.00  0.00    +0.000 HD
ENDBRANCH  13  18
BRANCH   3  20
ATOM     20  C   UNL     1      36.857  13.351 180.707  0.00  0.00    +0.000 C 
ATOM     21  C   UNL     1      36.868  13.699 179.215  0.00  0.00    +0.000 C 
BRANCH  21  25
ATOM     22  C   UNL     1      35.586  14.324 177.063  0.00  0.00    +0.000 A 
ATOM     23  C   UNL     1      35.644  14.652 175.521  0.00  0.00    +0.000 A 
ATOM     24  C   UNL     1      34.218  14.319 177.864  0.00  0.00    +0.000 C 
ATOM     25  C   UNL     1      36.890  13.975 177.813  0.00  0.00    +0.000 A 
ATOM     26  C   UNL     1      34.478  15.049 174.586  0.00  0.00    +0.000 C 
ATOM     27  C   UNL     1      33.195  14.652 176.867  0.00  0.00    +0.000 C 
ATOM     28  C   UNL     1      33.281  14.977 175.400  0.00  0.00    +0.000 C 
ATOM     29  C   UNL     1      36.973  14.501 175.027  0.00  0.00    +0.000 A 
ATOM     30  C   UNL     1      38.214  13.891 177.135  0.00  0.00    +0.000 A 
ATOM     31  C   UNL     1      34.248  15.418 178.953  0.00  0.00    +0.000 C 
ATOM     32  C   UNL     1      33.939  12.908 178.425  0.00  0.00    +0.000 C 
ATOM     33  C   UNL     1      38.162  14.135 175.865  0.00  0.00    +0.000 A 
ATOM     34  C   UNL     1      34.707  16.419 173.964  0.00  0.00    +0.000 C 
ATOM     35  C   UNL     1      39.542  13.693 177.806  0.00  0.00    +0.000 C 
BRANCH  26  36
ATOM     36  O   UNL     1      34.388  14.126 173.530  0.00  0.00    +0.000 OA
ATOM     37  H   UNL     1      34.714  14.664 172.786  0.00  0.00    +0.000 HD
ENDBRANCH  26  36
ENDBRANCH  21  25
ENDBRANCH   3  20
TORSDOF 5
ENDMDL
