MODEL 1
REMARK VINA RESULT:      -7.0      0.000      0.000
REMARK  Name = 442793_6gingerol.pdbqt.pdb
REMARK  7 active torsions:
REMARK  status: ('A' for Active; 'I' for Inactive)
REMARK    1  A    between atoms: C_1  and  C_3
REMARK    2  A    between atoms: C_5  and  O_6
REMARK    3  A    between atoms: C_5  and  C_8
REMARK    4  A    between atoms: C_9  and  C_10
REMARK    5  A    between atoms: C_13  and  C_14
REMARK    6  A    between atoms: C_17  and  O_20
REMARK    7  A    between atoms: C_19  and  O_22
REMARK                            x       y       z     vdW  Elec       q    Type
REMARK                         _______ _______ _______ _____ _____    ______ ____
ROOT
ATOM      1  C   UNL     1      19.710   2.469 189.187  0.00  0.00    +0.000 C 
ATOM      2  C   UNL     1      20.494   3.098 188.029  0.00  0.00    +0.000 C 
ENDROOT
BRANCH   2   3
ATOM      3  C   UNL     1      21.224   3.684 186.955  0.00  0.00    +0.000 A 
ATOM      4  C   UNL     1      22.401   4.383 187.217  0.00  0.00    +0.000 A 
ATOM      5  C   UNL     1      20.760   3.556 185.649  0.00  0.00    +0.000 A 
ATOM      6  C   UNL     1      23.127   4.965 186.174  0.00  0.00    +0.000 A 
ATOM      7  C   UNL     1      21.474   4.130 184.601  0.00  0.00    +0.000 A 
ATOM      8  C   UNL     1      22.651   4.829 184.867  0.00  0.00    +0.000 A 
BRANCH   6   9
ATOM      9  O   UNL     1      24.294   5.671 186.342  0.00  0.00    +0.000 OA
ATOM     10  C   UNL     1      25.033   5.354 187.492  0.00  0.00    +0.000 C 
ENDBRANCH   6   9
BRANCH   8  11
ATOM     11  O   UNL     1      23.347   5.390 183.833  0.00  0.00    +0.000 OA
ATOM     12  H   UNL     1      22.735   5.540 183.088  0.00  0.00    +0.000 HD
ENDBRANCH   8  11
ENDBRANCH   2   3
BRANCH   1  14
ATOM     13  O   UNL     1      17.791   1.608 190.148  0.00  0.00    +0.000 OA
ATOM     14  C   UNL     1      18.975   1.878 190.278  0.00  0.00    +0.000 C 
ATOM     15  C   UNL     1      19.646   1.612 191.520  0.00  0.00    +0.000 C 
ATOM     16  C   UNL     1      20.301   1.351 192.743  0.00  0.00    +0.000 C 
BRANCH  16  17
ATOM     17  O   UNL     1      21.672   1.425 192.755  0.00  0.00    +0.000 OA
ATOM     18  H   UNL     1      22.081   0.635 192.360  0.00  0.00    +0.000 HD
ENDBRANCH  16  17
BRANCH  16  19
ATOM     19  C   UNL     1      19.621   1.023 193.942  0.00  0.00    +0.000 C 
ATOM     20  C   UNL     1      18.882   0.659 195.234  0.00  0.00    +0.000 C 
BRANCH  20  21
ATOM     21  C   UNL     1      18.141   0.292 196.523  0.00  0.00    +0.000 C 
ATOM     22  C   UNL     1      17.401  -0.077 197.813  0.00  0.00    +0.000 C 
ATOM     23  C   UNL     1      16.668  -0.448 199.106  0.00  0.00    +0.000 C 
ENDBRANCH  20  21
ENDBRANCH  16  19
ENDBRANCH   1  14
TORSDOF 7
ENDMDL
MODEL 2
REMARK VINA RESULT:      -6.7      1.245      2.407
REMARK  Name = 442793_6gingerol.pdbqt.pdb
REMARK  7 active torsions:
REMARK  status: ('A' for Active; 'I' for Inactive)
REMARK    1  A    between atoms: C_1  and  C_3
REMARK    2  A    between atoms: C_5  and  O_6
REMARK    3  A    between atoms: C_5  and  C_8
REMARK    4  A    between atoms: C_9  and  C_10
REMARK    5  A    between atoms: C_13  and  C_14
REMARK    6  A    between atoms: C_17  and  O_20
REMARK    7  A    between atoms: C_19  and  O_22
REMARK                            x       y       z     vdW  Elec       q    Type
REMARK                         _______ _______ _______ _____ _____    ______ ____
ROOT
ATOM      1  C   UNL     1      20.773   3.018 190.577  0.00  0.00    +0.000 C 
ATOM      2  C   UNL     1      21.802   3.663 189.640  0.00  0.00    +0.000 C 
ENDROOT
BRANCH   2   3
ATOM      3  C   UNL     1      22.758   4.259 188.769  0.00  0.00    +0.000 A 
ATOM      4  C   UNL     1      22.401   4.574 187.459  0.00  0.00    +0.000 A 
ATOM      5  C   UNL     1      24.045   4.524 189.228  0.00  0.00    +0.000 A 
ATOM      6  C   UNL     1      23.329   5.158 186.592  0.00  0.00    +0.000 A 
ATOM      7  C   UNL     1      24.979   5.107 188.375  0.00  0.00    +0.000 A 
ATOM      8  C   UNL     1      24.618   5.420 187.065  0.00  0.00    +0.000 A 
BRANCH   6   9
ATOM      9  O   UNL     1      23.062   5.499 185.288  0.00  0.00    +0.000 OA
ATOM     10  C   UNL     1      22.116   4.697 184.634  0.00  0.00    +0.000 C 
ENDBRANCH   6   9
BRANCH   8  11
ATOM     11  O   UNL     1      25.540   5.992 186.233  0.00  0.00    +0.000 OA
ATOM     12  H   UNL     1      26.292   5.379 186.132  0.00  0.00    +0.000 HD
ENDBRANCH   8  11
ENDBRANCH   2   3
BRANCH   1  14
ATOM     13  O   UNL     1      18.648   2.267 191.095  0.00  0.00    +0.000 OA
ATOM     14  C   UNL     1      19.806   2.410 191.456  0.00  0.00    +0.000 C 
ATOM     15  C   UNL     1      20.215   1.973 192.762  0.00  0.00    +0.000 C 
ATOM     16  C   UNL     1      20.611   1.545 194.048  0.00  0.00    +0.000 C 
BRANCH  16  17
ATOM     17  O   UNL     1      21.958   1.484 194.307  0.00  0.00    +0.000 OA
ATOM     18  H   UNL     1      22.152   1.620 195.250  0.00  0.00    +0.000 HD
ENDBRANCH  16  17
BRANCH  16  19
ATOM     19  C   UNL     1      19.699   1.182 195.069  0.00  0.00    +0.000 C 
ATOM     20  C   UNL     1      18.713   0.798 196.178  0.00  0.00    +0.000 C 
BRANCH  20  21
ATOM     21  C   UNL     1      17.728   0.420 197.288  0.00  0.00    +0.000 C 
ATOM     22  C   UNL     1      16.744   0.043 198.401  0.00  0.00    +0.000 C 
ATOM     23  C   UNL     1      15.764  -0.329 199.518  0.00  0.00    +0.000 C 
ENDBRANCH  20  21
ENDBRANCH  16  19
ENDBRANCH   1  14
TORSDOF 7
ENDMDL
MODEL 3
REMARK VINA RESULT:      -6.4      3.440     11.803
REMARK  Name = 442793_6gingerol.pdbqt.pdb
REMARK  7 active torsions:
REMARK  status: ('A' for Active; 'I' for Inactive)
REMARK    1  A    between atoms: C_1  and  C_3
REMARK    2  A    between atoms: C_5  and  O_6
REMARK    3  A    between atoms: C_5  and  C_8
REMARK    4  A    between atoms: C_9  and  C_10
REMARK    5  A    between atoms: C_13  and  C_14
REMARK    6  A    between atoms: C_17  and  O_20
REMARK    7  A    between atoms: C_19  and  O_22
REMARK                            x       y       z     vdW  Elec       q    Type
REMARK                         _______ _______ _______ _____ _____    ______ ____
ROOT
ATOM      1  C   UNL     1      19.091   0.575 194.552  0.00  0.00    +0.000 C 
ATOM      2  C   UNL     1      18.375   0.341 195.888  0.00  0.00    +0.000 C 
ENDROOT
BRANCH   2   3
ATOM      3  C   UNL     1      17.710   0.121 197.128  0.00  0.00    +0.000 A 
ATOM      4  C   UNL     1      17.862  -1.097 197.790  0.00  0.00    +0.000 A 
ATOM      5  C   UNL     1      16.911   1.121 197.675  0.00  0.00    +0.000 A 
ATOM      6  C   UNL     1      17.215  -1.328 199.007  0.00  0.00    +0.000 A 
ATOM      7  C   UNL     1      16.262   0.904 198.887  0.00  0.00    +0.000 A 
ATOM      8  C   UNL     1      16.416  -0.316 199.546  0.00  0.00    +0.000 A 
BRANCH   6   9
ATOM      9  O   UNL     1      17.309  -2.496 199.724  0.00  0.00    +0.000 OA
ATOM     10  C   UNL     1      17.040  -3.671 199.005  0.00  0.00    +0.000 C 
ENDBRANCH   6   9
BRANCH   8  11
ATOM     11  O   UNL     1      15.775  -0.522 200.736  0.00  0.00    +0.000 OA
ATOM     12  H   UNL     1      14.855  -0.791 200.553  0.00  0.00    +0.000 HD
ENDBRANCH   8  11
ENDBRANCH   2   3
BRANCH   1  14
ATOM     13  O   UNL     1      20.986   0.772 193.241  0.00  0.00    +0.000 OA
ATOM     14  C   UNL     1      19.766   0.792 193.297  0.00  0.00    +0.000 C 
ATOM     15  C   UNL     1      18.992   1.035 192.112  0.00  0.00    +0.000 C 
ATOM     16  C   UNL     1      18.235   1.277 190.944  0.00  0.00    +0.000 C 
BRANCH  16  17
ATOM     17  O   UNL     1      16.885   1.031 191.004  0.00  0.00    +0.000 OA
ATOM     18  H   UNL     1      16.397   1.783 191.381  0.00  0.00    +0.000 HD
ENDBRANCH  16  17
BRANCH  16  19
ATOM     19  C   UNL     1      18.793   1.755 189.733  0.00  0.00    +0.000 C 
ATOM     20  C   UNL     1      19.402   2.278 188.428  0.00  0.00    +0.000 C 
BRANCH  20  21
ATOM     21  C   UNL     1      20.014   2.806 187.127  0.00  0.00    +0.000 C 
ATOM     22  C   UNL     1      20.626   3.332 185.825  0.00  0.00    +0.000 C 
ATOM     23  C   UNL     1      21.240   3.851 184.521  0.00  0.00    +0.000 C 
ENDBRANCH  20  21
ENDBRANCH  16  19
ENDBRANCH   1  14
TORSDOF 7
ENDMDL
MODEL 4
REMARK VINA RESULT:      -5.9     23.986     29.086
REMARK  Name = 442793_6gingerol.pdbqt.pdb
REMARK  7 active torsions:
REMARK  status: ('A' for Active; 'I' for Inactive)
REMARK    1  A    between atoms: C_1  and  C_3
REMARK    2  A    between atoms: C_5  and  O_6
REMARK    3  A    between atoms: C_5  and  C_8
REMARK    4  A    between atoms: C_9  and  C_10
REMARK    5  A    between atoms: C_13  and  C_14
REMARK    6  A    between atoms: C_17  and  O_20
REMARK    7  A    between atoms: C_19  and  O_22
REMARK                            x       y       z     vdW  Elec       q    Type
REMARK                         _______ _______ _______ _____ _____    ______ ____
ROOT
ATOM      1  C   UNL     1      33.626   1.633 165.941  0.00  0.00    +0.000 C 
ATOM      2  C   UNL     1      32.404   0.862 166.457  0.00  0.00    +0.000 C 
ENDROOT
BRANCH   2   3
ATOM      3  C   UNL     1      31.271   0.145 166.935  0.00  0.00    +0.000 A 
ATOM      4  C   UNL     1      30.660  -0.809 166.123  0.00  0.00    +0.000 A 
ATOM      5  C   UNL     1      30.777   0.398 168.212  0.00  0.00    +0.000 A 
ATOM      6  C   UNL     1      29.546  -1.520 166.578  0.00  0.00    +0.000 A 
ATOM      7  C   UNL     1      29.669  -0.304 168.678  0.00  0.00    +0.000 A 
ATOM      8  C   UNL     1      29.060  -1.257 167.862  0.00  0.00    +0.000 A 
BRANCH   6   9
ATOM      9  O   UNL     1      28.884  -2.475 165.844  0.00  0.00    +0.000 OA
ATOM     10  C   UNL     1      29.652  -3.130 164.869  0.00  0.00    +0.000 C 
ENDBRANCH   6   9
BRANCH   8  11
ATOM     11  O   UNL     1      27.972  -1.943 168.326  0.00  0.00    +0.000 OA
ATOM     12  H   UNL     1      27.860  -1.746 169.275  0.00  0.00    +0.000 HD
ENDBRANCH   8  11
ENDBRANCH   2   3
BRANCH   1  14
ATOM     13  O   UNL     1      34.663   3.142 164.528  0.00  0.00    +0.000 OA
ATOM     14  C   UNL     1      34.775   2.354 165.455  0.00  0.00    +0.000 C 
ATOM     15  C   UNL     1      36.056   2.137 166.069  0.00  0.00    +0.000 C 
ATOM     16  C   UNL     1      37.318   1.926 166.667  0.00  0.00    +0.000 C 
BRANCH  16  17
ATOM     17  O   UNL     1      37.346   1.242 167.858  0.00  0.00    +0.000 OA
ATOM     18  H   UNL     1      37.637   1.808 168.593  0.00  0.00    +0.000 HD
ENDBRANCH  16  17
BRANCH  16  19
ATOM     19  C   UNL     1      38.537   2.377 166.105  0.00  0.00    +0.000 C 
ATOM     20  C   UNL     1      39.857   2.873 165.504  0.00  0.00    +0.000 C 
BRANCH  20  21
ATOM     21  C   UNL     1      41.174   3.375 164.906  0.00  0.00    +0.000 C 
ATOM     22  C   UNL     1      42.492   3.876 164.305  0.00  0.00    +0.000 C 
ATOM     23  C   UNL     1      43.806   4.379 163.698  0.00  0.00    +0.000 C 
ENDBRANCH  20  21
ENDBRANCH  16  19
ENDBRANCH   1  14
TORSDOF 7
ENDMDL
MODEL 5
REMARK VINA RESULT:      -5.9      4.500      9.402
REMARK  Name = 442793_6gingerol.pdbqt.pdb
REMARK  7 active torsions:
REMARK  status: ('A' for Active; 'I' for Inactive)
REMARK    1  A    between atoms: C_1  and  C_3
REMARK    2  A    between atoms: C_5  and  O_6
REMARK    3  A    between atoms: C_5  and  C_8
REMARK    4  A    between atoms: C_9  and  C_10
REMARK    5  A    between atoms: C_13  and  C_14
REMARK    6  A    between atoms: C_17  and  O_20
REMARK    7  A    between atoms: C_19  and  O_22
REMARK                            x       y       z     vdW  Elec       q    Type
REMARK                         _______ _______ _______ _____ _____    ______ ____
ROOT
ATOM      1  C   UNL     1      23.809   3.032 190.218  0.00  0.00    +0.000 C 
ATOM      2  C   UNL     1      22.379   2.875 189.685  0.00  0.00    +0.000 C 
ENDROOT
BRANCH   2   3
ATOM      3  C   UNL     1      21.051   2.728 189.194  0.00  0.00    +0.000 A 
ATOM      4  C   UNL     1      20.070   2.160 190.005  0.00  0.00    +0.000 A 
ATOM      5  C   UNL     1      20.736   3.153 187.906  0.00  0.00    +0.000 A 
ATOM      6  C   UNL     1      18.762   2.008 189.536  0.00  0.00    +0.000 A 
ATOM      7  C   UNL     1      19.437   3.008 187.427  0.00  0.00    +0.000 A 
ATOM      8  C   UNL     1      18.459   2.438 188.241  0.00  0.00    +0.000 A 
BRANCH   6   9
ATOM      9  O   UNL     1      17.737   1.459 190.267  0.00  0.00    +0.000 OA
ATOM     10  C   UNL     1      17.854   1.577 191.660  0.00  0.00    +0.000 C 
ENDBRANCH   6   9
BRANCH   8  11
ATOM     11  O   UNL     1      17.185   2.299 187.764  0.00  0.00    +0.000 OA
ATOM     12  H   UNL     1      16.604   2.028 188.499  0.00  0.00    +0.000 HD
ENDBRANCH   8  11
ENDBRANCH   2   3
BRANCH   1  14
ATOM     13  O   UNL     1      25.350   3.706 191.805  0.00  0.00    +0.000 OA
ATOM     14  C   UNL     1      25.152   3.179 190.721  0.00  0.00    +0.000 C 
ATOM     15  C   UNL     1      26.257   2.704 189.935  0.00  0.00    +0.000 C 
ATOM     16  C   UNL     1      27.347   2.241 189.166  0.00  0.00    +0.000 C 
BRANCH  16  17
ATOM     17  O   UNL     1      27.064   1.432 188.093  0.00  0.00    +0.000 OA
ATOM     18  H   UNL     1      27.584   1.676 187.308  0.00  0.00    +0.000 HD
ENDBRANCH  16  17
BRANCH  16  19
ATOM     19  C   UNL     1      28.697   2.568 189.442  0.00  0.00    +0.000 C 
ATOM     20  C   UNL     1      30.156   2.930 189.737  0.00  0.00    +0.000 C 
BRANCH  20  21
ATOM     21  C   UNL     1      31.615   3.297 190.027  0.00  0.00    +0.000 C 
ATOM     22  C   UNL     1      33.073   3.666 190.318  0.00  0.00    +0.000 C 
ATOM     23  C   UNL     1      34.529   4.042 190.612  0.00  0.00    +0.000 C 
ENDBRANCH  20  21
ENDBRANCH  16  19
ENDBRANCH   1  14
TORSDOF 7
ENDMDL
MODEL 6
REMARK VINA RESULT:      -5.9      4.710      9.284
REMARK  Name = 442793_6gingerol.pdbqt.pdb
REMARK  7 active torsions:
REMARK  status: ('A' for Active; 'I' for Inactive)
REMARK    1  A    between atoms: C_1  and  C_3
REMARK    2  A    between atoms: C_5  and  O_6
REMARK    3  A    between atoms: C_5  and  C_8
REMARK    4  A    between atoms: C_9  and  C_10
REMARK    5  A    between atoms: C_13  and  C_14
REMARK    6  A    between atoms: C_17  and  O_20
REMARK    7  A    between atoms: C_19  and  O_22
REMARK                            x       y       z     vdW  Elec       q    Type
REMARK                         _______ _______ _______ _____ _____    ______ ____
ROOT
ATOM      1  C   UNL     1      23.544   2.473 190.993  0.00  0.00    +0.000 C 
ATOM      2  C   UNL     1      22.079   2.201 190.631  0.00  0.00    +0.000 C 
ENDROOT
BRANCH   2   3
ATOM      3  C   UNL     1      20.718   1.947 190.297  0.00  0.00    +0.000 A 
ATOM      4  C   UNL     1      20.198   2.425 189.095  0.00  0.00    +0.000 A 
ATOM      5  C   UNL     1      19.912   1.225 191.171  0.00  0.00    +0.000 A 
ATOM      6  C   UNL     1      18.864   2.185 188.753  0.00  0.00    +0.000 A 
ATOM      7  C   UNL     1      18.581   0.978 190.844  0.00  0.00    +0.000 A 
ATOM      8  C   UNL     1      18.065   1.458 189.640  0.00  0.00    +0.000 A 
BRANCH   6   9
ATOM      9  O   UNL     1      18.272   2.618 187.592  0.00  0.00    +0.000 OA
ATOM     10  C   UNL     1      19.150   3.080 186.600  0.00  0.00    +0.000 C 
ENDBRANCH   6   9
BRANCH   8  11
ATOM     11  O   UNL     1      16.757   1.212 189.325  0.00  0.00    +0.000 OA
ATOM     12  H   UNL     1      16.690   1.068 188.362  0.00  0.00    +0.000 HD
ENDBRANCH   8  11
ENDBRANCH   2   3
BRANCH   1  14
ATOM     13  O   UNL     1      25.200   3.538 192.205  0.00  0.00    +0.000 OA
ATOM     14  C   UNL     1      24.921   2.726 191.336  0.00  0.00    +0.000 C 
ATOM     15  C   UNL     1      25.963   2.019 190.646  0.00  0.00    +0.000 C 
ATOM     16  C   UNL     1      26.992   1.328 189.969  0.00  0.00    +0.000 C 
BRANCH  16  17
ATOM     17  O   UNL     1      26.628   0.250 189.198  0.00  0.00    +0.000 OA
ATOM     18  H   UNL     1      27.400  -0.269 188.915  0.00  0.00    +0.000 HD
ENDBRANCH  16  17
BRANCH  16  19
ATOM     19  C   UNL     1      28.359   1.687 190.043  0.00  0.00    +0.000 C 
ATOM     20  C   UNL     1      29.838   2.082 190.115  0.00  0.00    +0.000 C 
BRANCH  20  21
ATOM     21  C   UNL     1      31.316   2.479 190.181  0.00  0.00    +0.000 C 
ATOM     22  C   UNL     1      32.795   2.876 190.246  0.00  0.00    +0.000 C 
ATOM     23  C   UNL     1      34.272   3.277 190.303  0.00  0.00    +0.000 C 
ENDBRANCH  20  21
ENDBRANCH  16  19
ENDBRANCH   1  14
TORSDOF 7
ENDMDL
MODEL 7
REMARK VINA RESULT:      -5.8     22.480     24.388
REMARK  Name = 442793_6gingerol.pdbqt.pdb
REMARK  7 active torsions:
REMARK  status: ('A' for Active; 'I' for Inactive)
REMARK    1  A    between atoms: C_1  and  C_3
REMARK    2  A    between atoms: C_5  and  O_6
REMARK    3  A    between atoms: C_5  and  C_8
REMARK    4  A    between atoms: C_9  and  C_10
REMARK    5  A    between atoms: C_13  and  C_14
REMARK    6  A    between atoms: C_17  and  O_20
REMARK    7  A    between atoms: C_19  and  O_22
REMARK                            x       y       z     vdW  Elec       q    Type
REMARK                         _______ _______ _______ _____ _____    ______ ____
ROOT
ATOM      1  C   UNL     1      14.146 -16.358 179.668  0.00  0.00    +0.000 C 
ATOM      2  C   UNL     1      14.743 -17.706 179.244  0.00  0.00    +0.000 C 
ENDROOT
BRANCH   2   3
ATOM      3  C   UNL     1      15.298 -18.958 178.853  0.00  0.00    +0.000 A 
ATOM      4  C   UNL     1      15.158 -20.068 179.683  0.00  0.00    +0.000 A 
ATOM      5  C   UNL     1      15.978 -19.068 177.643  0.00  0.00    +0.000 A 
ATOM      6  C   UNL     1      15.699 -21.303 179.313  0.00  0.00    +0.000 A 
ATOM      7  C   UNL     1      16.521 -20.292 177.262  0.00  0.00    +0.000 A 
ATOM      8  C   UNL     1      16.380 -21.401 178.096  0.00  0.00    +0.000 A 
BRANCH   6   9
ATOM      9  O   UNL     1      15.609 -22.446 180.070  0.00  0.00    +0.000 OA
ATOM     10  C   UNL     1      15.903 -22.294 181.434  0.00  0.00    +0.000 C 
ENDBRANCH   6   9
BRANCH   8  11
ATOM     11  O   UNL     1      16.915 -22.600 177.716  0.00  0.00    +0.000 OA
ATOM     12  H   UNL     1      16.784 -23.243 178.437  0.00  0.00    +0.000 HD
ENDBRANCH   8  11
ENDBRANCH   2   3
BRANCH   1  14
ATOM     13  O   UNL     1      13.494 -14.806 181.253  0.00  0.00    +0.000 OA
ATOM     14  C   UNL     1      13.587 -15.092 180.069  0.00  0.00    +0.000 C 
ATOM     15  C   UNL     1      13.138 -14.168 179.065  0.00  0.00    +0.000 C 
ATOM     16  C   UNL     1      12.693 -13.257 178.082  0.00  0.00    +0.000 C 
BRANCH  16  17
ATOM     17  O   UNL     1      13.055 -13.505 176.780  0.00  0.00    +0.000 OA
ATOM     18  H   UNL     1      12.991 -12.707 176.228  0.00  0.00    +0.000 HD
ENDBRANCH  16  17
BRANCH  16  19
ATOM     19  C   UNL     1      11.901 -12.118 178.369  0.00  0.00    +0.000 C 
ATOM     20  C   UNL     1      11.047 -10.882 178.670  0.00  0.00    +0.000 C 
BRANCH  20  21
ATOM     21  C   UNL     1      10.196  -9.644 178.966  0.00  0.00    +0.000 C 
ATOM     22  C   UNL     1       9.344  -8.405 179.262  0.00  0.00    +0.000 C 
ATOM     23  C   UNL     1       8.485  -7.171 179.554  0.00  0.00    +0.000 C 
ENDBRANCH  20  21
ENDBRANCH  16  19
ENDBRANCH   1  14
TORSDOF 7
ENDMDL
MODEL 8
REMARK VINA RESULT:      -5.7     34.653     35.519
REMARK  Name = 442793_6gingerol.pdbqt.pdb
REMARK  7 active torsions:
REMARK  status: ('A' for Active; 'I' for Inactive)
REMARK    1  A    between atoms: C_1  and  C_3
REMARK    2  A    between atoms: C_5  and  O_6
REMARK    3  A    between atoms: C_5  and  C_8
REMARK    4  A    between atoms: C_9  and  C_10
REMARK    5  A    between atoms: C_13  and  C_14
REMARK    6  A    between atoms: C_17  and  O_20
REMARK    7  A    between atoms: C_19  and  O_22
REMARK                            x       y       z     vdW  Elec       q    Type
REMARK                         _______ _______ _______ _____ _____    ______ ____
ROOT
ATOM      1  C   UNL     1      38.931 -24.721 176.340  0.00  0.00    +0.000 C 
ATOM      2  C   UNL     1      39.352 -23.346 175.806  0.00  0.00    +0.000 C 
ENDROOT
BRANCH   2   3
ATOM      3  C   UNL     1      39.742 -22.069 175.311  0.00  0.00    +0.000 A 
ATOM      4  C   UNL     1      41.010 -21.897 174.759  0.00  0.00    +0.000 A 
ATOM      5  C   UNL     1      38.856 -20.998 175.381  0.00  0.00    +0.000 A 
ATOM      6  C   UNL     1      41.408 -20.649 174.271  0.00  0.00    +0.000 A 
ATOM      7  C   UNL     1      39.239 -19.749 174.898  0.00  0.00    +0.000 A 
ATOM      8  C   UNL     1      40.509 -19.581 174.347  0.00  0.00    +0.000 A 
BRANCH   6   9
ATOM      9  O   UNL     1      42.636 -20.391 173.713  0.00  0.00    +0.000 OA
ATOM     10  C   UNL     1      43.211 -21.452 172.997  0.00  0.00    +0.000 C 
ENDBRANCH   6   9
BRANCH   8  11
ATOM     11  O   UNL     1      40.878 -18.352 173.874  0.00  0.00    +0.000 OA
ATOM     12  H   UNL     1      41.091 -18.433 172.926  0.00  0.00    +0.000 HD
ENDBRANCH   8  11
ENDBRANCH   2   3
BRANCH   1  14
ATOM     13  O   UNL     1      39.347 -26.919 176.925  0.00  0.00    +0.000 OA
ATOM     14  C   UNL     1      38.534 -26.011 176.845  0.00  0.00    +0.000 C 
ATOM     15  C   UNL     1      37.172 -26.222 177.252  0.00  0.00    +0.000 C 
ATOM     16  C   UNL     1      35.835 -26.435 177.651  0.00  0.00    +0.000 C 
BRANCH  16  17
ATOM     17  O   UNL     1      35.033 -25.328 177.791  0.00  0.00    +0.000 OA
ATOM     18  H   UNL     1      34.695 -25.239 178.699  0.00  0.00    +0.000 HD
ENDBRANCH  16  17
BRANCH  16  19
ATOM     19  C   UNL     1      35.288 -27.716 177.909  0.00  0.00    +0.000 C 
ATOM     20  C   UNL     1      34.692 -29.102 178.179  0.00  0.00    +0.000 C 
BRANCH  20  21
ATOM     21  C   UNL     1      34.094 -30.487 178.443  0.00  0.00    +0.000 C 
ATOM     22  C   UNL     1      33.496 -31.873 178.705  0.00  0.00    +0.000 C 
ATOM     23  C   UNL     1      32.905 -33.262 178.964  0.00  0.00    +0.000 C 
ENDBRANCH  20  21
ENDBRANCH  16  19
ENDBRANCH   1  14
TORSDOF 7
ENDMDL
MODEL 9
REMARK VINA RESULT:      -5.6      2.927      4.114
REMARK  Name = 442793_6gingerol.pdbqt.pdb
REMARK  7 active torsions:
REMARK  status: ('A' for Active; 'I' for Inactive)
REMARK    1  A    between atoms: C_1  and  C_3
REMARK    2  A    between atoms: C_5  and  O_6
REMARK    3  A    between atoms: C_5  and  C_8
REMARK    4  A    between atoms: C_9  and  C_10
REMARK    5  A    between atoms: C_13  and  C_14
REMARK    6  A    between atoms: C_17  and  O_20
REMARK    7  A    between atoms: C_19  and  O_22
REMARK                            x       y       z     vdW  Elec       q    Type
REMARK                         _______ _______ _______ _____ _____    ______ ____
ROOT
ATOM      1  C   UNL     1      19.155   0.962 192.588  0.00  0.00    +0.000 C 
ATOM      2  C   UNL     1      19.256   1.460 191.140  0.00  0.00    +0.000 C 
ENDROOT
BRANCH   2   3
ATOM      3  C   UNL     1      19.349   1.925 189.798  0.00  0.00    +0.000 A 
ATOM      4  C   UNL     1      20.590   2.281 189.272  0.00  0.00    +0.000 A 
ATOM      5  C   UNL     1      18.202   2.022 189.015  0.00  0.00    +0.000 A 
ATOM      6  C   UNL     1      20.698   2.740 187.956  0.00  0.00    +0.000 A 
ATOM      7  C   UNL     1      18.295   2.478 187.703  0.00  0.00    +0.000 A 
ATOM      8  C   UNL     1      19.538   2.834 187.181  0.00  0.00    +0.000 A 
BRANCH   6   9
ATOM      9  O   UNL     1      21.878   3.112 187.360  0.00  0.00    +0.000 OA
ATOM     10  C   UNL     1      22.851   2.105 187.260  0.00  0.00    +0.000 C 
ENDBRANCH   6   9
BRANCH   8  11
ATOM     11  O   UNL     1      19.623   3.280 185.891  0.00  0.00    +0.000 OA
ATOM     12  H   UNL     1      18.731   3.535 185.590  0.00  0.00    +0.000 HD
ENDBRANCH   8  11
ENDBRANCH   2   3
BRANCH   1  14
ATOM     13  O   UNL     1      18.091  -0.152 194.313  0.00  0.00    +0.000 OA
ATOM     14  C   UNL     1      19.060   0.497 193.948  0.00  0.00    +0.000 C 
ATOM     15  C   UNL     1      20.113   0.805 194.875  0.00  0.00    +0.000 C 
ATOM     16  C   UNL     1      21.145   1.106 195.791  0.00  0.00    +0.000 C 
BRANCH  16  17
ATOM     17  O   UNL     1      22.319   1.602 195.279  0.00  0.00    +0.000 OA
ATOM     18  H   UNL     1      23.064   0.993 195.424  0.00  0.00    +0.000 HD
ENDBRANCH  16  17
BRANCH  16  19
ATOM     19  C   UNL     1      21.029   0.927 197.191  0.00  0.00    +0.000 C 
ATOM     20  C   UNL     1      20.911   0.739 198.707  0.00  0.00    +0.000 C 
BRANCH  20  21
ATOM     21  C   UNL     1      20.799   0.553 200.223  0.00  0.00    +0.000 C 
ATOM     22  C   UNL     1      20.686   0.366 201.740  0.00  0.00    +0.000 C 
ATOM     23  C   UNL     1      20.575   0.171 203.255  0.00  0.00    +0.000 C 
ENDBRANCH  20  21
ENDBRANCH  16  19
ENDBRANCH   1  14
TORSDOF 7
ENDMDL
