MODEL 1
REMARK VINA RESULT:      -7.5      0.000      0.000
REMARK  Name = 44423609_SipholenoneA.pdbqt.pdb
REMARK  4 active torsions:
REMARK  status: ('A' for Active; 'I' for Inactive)
REMARK    1  A    between atoms: C_3  and  C_19
REMARK    2  A    between atoms: C_5  and  O_17
REMARK    3  A    between atoms: C_20  and  C_24
REMARK    4  A    between atoms: C_25  and  O_35
REMARK                            x       y       z     vdW  Elec       q    Type
REMARK                         _______ _______ _______ _____ _____    ______ ____
ROOT
ATOM      1  O   UNL     1      20.398   1.372 201.689  0.00  0.00    +0.000 OA
ATOM      2  O   UNL     1      22.615   4.325 201.448  0.00  0.00    +0.000 OA
ATOM      3  C   UNL     1      19.674   0.275 197.963  0.00  0.00    +0.000 C 
ATOM      4  C   UNL     1      20.486   0.514 199.235  0.00  0.00    +0.000 C 
ATOM      5  C   UNL     1      18.246  -0.237 198.055  0.00  0.00    +0.000 C 
ATOM      6  C   UNL     1      19.710   0.957 200.544  0.00  0.00    +0.000 C 
ATOM      7  C   UNL     1      17.771  -0.063 199.414  0.00  0.00    +0.000 C 
ATOM      8  C   UNL     1      18.382   0.501 200.652  0.00  0.00    +0.000 C 
ATOM      9  C   UNL     1      21.406   1.650 199.058  0.00  0.00    +0.000 C 
ATOM     10  C   UNL     1      21.302  -0.765 199.576  0.00  0.00    +0.000 C 
ATOM     11  C   UNL     1      17.342   0.477 197.045  0.00  0.00    +0.000 C 
ATOM     12  C   UNL     1      21.983   2.817 199.831  0.00  0.00    +0.000 C 
ATOM     13  C   UNL     1      20.604   2.803 201.942  0.00  0.00    +0.000 C 
ATOM     14  C   UNL     1      21.847   3.426 201.133  0.00  0.00    +0.000 C 
ATOM     15  C   UNL     1      20.863   2.902 203.481  0.00  0.00    +0.000 C 
ATOM     16  C   UNL     1      19.303   3.616 201.591  0.00  0.00    +0.000 C 
ENDROOT
BRANCH   5  17
ATOM     17  O   UNL     1      18.209  -1.599 197.709  0.00  0.00    +0.000 OA
ATOM     18  H   UNL     1      17.879  -1.552 196.793  0.00  0.00    +0.000 HD
ENDBRANCH   5  17
BRANCH   3  19
ATOM     19  C   UNL     1      20.343   0.289 196.688  0.00  0.00    +0.000 C 
ATOM     20  C   UNL     1      21.046   0.294 195.328  0.00  0.00    +0.000 C 
BRANCH  20  24
ATOM     21  C   UNL     1      20.475   0.472 191.748  0.00  0.00    +0.000 C 
ATOM     22  C   UNL     1      21.119  -0.440 192.822  0.00  0.00    +0.000 C 
ATOM     23  C   UNL     1      21.203   1.492 190.910  0.00  0.00    +0.000 C 
ATOM     24  C   UNL     1      21.707   0.290 194.054  0.00  0.00    +0.000 C 
ATOM     25  C   UNL     1      20.268   2.185 189.917  0.00  0.00    +0.000 C 
ATOM     26  C   UNL     1      19.121   0.477 191.307  0.00  0.00    +0.000 C 
ATOM     27  C   UNL     1      19.017   1.496 190.208  0.00  0.00    +0.000 C 
ATOM     28  C   UNL     1      22.377   2.012 191.493  0.00  0.00    +0.000 C 
ATOM     29  C   UNL     1      22.929   1.084 193.913  0.00  0.00    +0.000 C 
ATOM     30  C   UNL     1      20.020  -1.460 193.311  0.00  0.00    +0.000 C 
ATOM     31  C   UNL     1      22.231  -1.303 192.136  0.00  0.00    +0.000 C 
ATOM     32  C   UNL     1      23.053   1.758 192.813  0.00  0.00    +0.000 C 
ATOM     33  C   UNL     1      20.774   2.081 188.488  0.00  0.00    +0.000 C 
ATOM     34  C   UNL     1      23.796   1.504 195.071  0.00  0.00    +0.000 C 
BRANCH  25  35
ATOM     35  O   UNL     1      20.157   3.555 190.219  0.00  0.00    +0.000 OA
ATOM     36  H   UNL     1      21.065   3.854 190.037  0.00  0.00    +0.000 HD
ENDBRANCH  25  35
ENDBRANCH  20  24
ENDBRANCH   3  19
TORSDOF 4
ENDMDL
MODEL 2
REMARK VINA RESULT:      -7.4     38.321     42.854
REMARK  Name = 44423609_SipholenoneA.pdbqt.pdb
REMARK  4 active torsions:
REMARK  status: ('A' for Active; 'I' for Inactive)
REMARK    1  A    between atoms: C_3  and  C_19
REMARK    2  A    between atoms: C_5  and  O_17
REMARK    3  A    between atoms: C_20  and  C_24
REMARK    4  A    between atoms: C_25  and  O_35
REMARK                            x       y       z     vdW  Elec       q    Type
REMARK                         _______ _______ _______ _____ _____    ______ ____
ROOT
ATOM      1  O   UNL     1      40.328 -19.688 169.305  0.00  0.00    +0.000 OA
ATOM      2  O   UNL     1      41.118 -21.082 165.969  0.00  0.00    +0.000 OA
ATOM      3  C   UNL     1      43.044 -21.183 171.755  0.00  0.00    +0.000 C 
ATOM      4  C   UNL     1      42.482 -20.341 170.611  0.00  0.00    +0.000 C 
ATOM      5  C   UNL     1      42.255 -21.342 173.044  0.00  0.00    +0.000 C 
ATOM      6  C   UNL     1      40.908 -20.281 170.432  0.00  0.00    +0.000 C 
ATOM      7  C   UNL     1      40.883 -20.934 172.809  0.00  0.00    +0.000 C 
ATOM      8  C   UNL     1      40.151 -20.431 171.610  0.00  0.00    +0.000 C 
ATOM      9  C   UNL     1      42.890 -20.896 169.309  0.00  0.00    +0.000 C 
ATOM     10  C   UNL     1      43.002 -18.881 170.738  0.00  0.00    +0.000 C 
ATOM     11  C   UNL     1      42.334 -22.782 173.561  0.00  0.00    +0.000 C 
ATOM     12  C   UNL     1      42.354 -21.102 167.908  0.00  0.00    +0.000 C 
ATOM     13  C   UNL     1      39.914 -20.520 168.170  0.00  0.00    +0.000 C 
ATOM     14  C   UNL     1      41.123 -20.905 167.180  0.00  0.00    +0.000 C 
ATOM     15  C   UNL     1      38.854 -19.658 167.409  0.00  0.00    +0.000 C 
ATOM     16  C   UNL     1      39.227 -21.842 168.679  0.00  0.00    +0.000 C 
ENDROOT
BRANCH   5  17
ATOM     17  O   UNL     1      42.824 -20.541 174.049  0.00  0.00    +0.000 OA
ATOM     18  H   UNL     1      42.029 -20.253 174.533  0.00  0.00    +0.000 HD
ENDBRANCH   5  17
BRANCH   3  19
ATOM     19  C   UNL     1      44.420 -21.605 171.708  0.00  0.00    +0.000 C 
ATOM     20  C   UNL     1      45.879 -22.066 171.661  0.00  0.00    +0.000 C 
BRANCH  20  24
ATOM     21  C   UNL     1      48.287 -23.963 169.718  0.00  0.00    +0.000 C 
ATOM     22  C   UNL     1      47.653 -23.908 171.130  0.00  0.00    +0.000 C 
ATOM     23  C   UNL     1      49.603 -23.343 169.321  0.00  0.00    +0.000 C 
ATOM     24  C   UNL     1      47.246 -22.500 171.627  0.00  0.00    +0.000 C 
ATOM     25  C   UNL     1      49.947 -23.628 167.858  0.00  0.00    +0.000 C 
ATOM     26  C   UNL     1      47.797 -24.647 168.569  0.00  0.00    +0.000 C 
ATOM     27  C   UNL     1      48.804 -24.446 167.472  0.00  0.00    +0.000 C 
ATOM     28  C   UNL     1      49.997 -22.235 170.097  0.00  0.00    +0.000 C 
ATOM     29  C   UNL     1      48.282 -21.531 171.992  0.00  0.00    +0.000 C 
ATOM     30  C   UNL     1      46.376 -24.834 171.123  0.00  0.00    +0.000 C 
ATOM     31  C   UNL     1      48.650 -24.562 172.147  0.00  0.00    +0.000 C 
ATOM     32  C   UNL     1      49.349 -21.524 171.256  0.00  0.00    +0.000 C 
ATOM     33  C   UNL     1      51.314 -24.273 167.708  0.00  0.00    +0.000 C 
ATOM     34  C   UNL     1      48.030 -20.309 172.837  0.00  0.00    +0.000 C 
BRANCH  25  35
ATOM     35  O   UNL     1      49.969 -22.433 167.115  0.00  0.00    +0.000 OA
ATOM     36  H   UNL     1      49.131 -22.029 167.400  0.00  0.00    +0.000 HD
ENDBRANCH  25  35
ENDBRANCH  20  24
ENDBRANCH   3  19
TORSDOF 4
ENDMDL
MODEL 3
REMARK VINA RESULT:      -7.3     36.290     38.904
REMARK  Name = 44423609_SipholenoneA.pdbqt.pdb
REMARK  4 active torsions:
REMARK  status: ('A' for Active; 'I' for Inactive)
REMARK    1  A    between atoms: C_3  and  C_19
REMARK    2  A    between atoms: C_5  and  O_17
REMARK    3  A    between atoms: C_20  and  C_24
REMARK    4  A    between atoms: C_25  and  O_35
REMARK                            x       y       z     vdW  Elec       q    Type
REMARK                         _______ _______ _______ _____ _____    ______ ____
ROOT
ATOM      1  O   UNL     1      36.432 -29.114 176.825  0.00  0.00    +0.000 OA
ATOM      2  O   UNL     1      35.623 -26.804 179.601  0.00  0.00    +0.000 OA
ATOM      3  C   UNL     1      36.938 -26.823 173.645  0.00  0.00    +0.000 C 
ATOM      4  C   UNL     1      37.234 -27.419 175.020  0.00  0.00    +0.000 C 
ATOM      5  C   UNL     1      36.403 -27.706 172.530  0.00  0.00    +0.000 C 
ATOM      6  C   UNL     1      36.347 -28.637 175.512  0.00  0.00    +0.000 C 
ATOM      7  C   UNL     1      35.913 -28.944 173.104  0.00  0.00    +0.000 C 
ATOM      8  C   UNL     1      35.832 -29.469 174.498  0.00  0.00    +0.000 C 
ATOM      9  C   UNL     1      36.969 -26.434 176.082  0.00  0.00    +0.000 C 
ATOM     10  C   UNL     1      38.724 -27.861 175.083  0.00  0.00    +0.000 C 
ATOM     11  C   UNL     1      35.311 -26.982 171.734  0.00  0.00    +0.000 C 
ATOM     12  C   UNL     1      36.423 -26.355 177.491  0.00  0.00    +0.000 C 
ATOM     13  C   UNL     1      35.466 -28.663 177.832  0.00  0.00    +0.000 C 
ATOM     14  C   UNL     1      35.824 -27.231 178.471  0.00  0.00    +0.000 C 
ATOM     15  C   UNL     1      35.501 -29.766 178.940  0.00  0.00    +0.000 C 
ATOM     16  C   UNL     1      34.018 -28.604 177.218  0.00  0.00    +0.000 C 
ENDROOT
BRANCH   5  17
ATOM     17  O   UNL     1      37.430 -27.982 171.611  0.00  0.00    +0.000 OA
ATOM     18  H   UNL     1      37.344 -27.228 171.000  0.00  0.00    +0.000 HD
ENDBRANCH   5  17
BRANCH   3  19
ATOM     19  C   UNL     1      37.407 -25.496 173.338  0.00  0.00    +0.000 C 
ATOM     20  C   UNL     1      37.894 -24.082 173.012  0.00  0.00    +0.000 C 
BRANCH  20  24
ATOM     21  C   UNL     1      40.752 -21.853 173.204  0.00  0.00    +0.000 C 
ATOM     22  C   UNL     1      39.270 -21.953 173.643  0.00  0.00    +0.000 C 
ATOM     23  C   UNL     1      41.257 -21.153 171.968  0.00  0.00    +0.000 C 
ATOM     24  C   UNL     1      38.344 -22.756 172.698  0.00  0.00    +0.000 C 
ATOM     25  C   UNL     1      42.782 -21.210 171.864  0.00  0.00    +0.000 C 
ATOM     26  C   UNL     1      41.901 -22.330 173.897  0.00  0.00    +0.000 C 
ATOM     27  C   UNL     1      43.103 -21.929 173.090  0.00  0.00    +0.000 C 
ATOM     28  C   UNL     1      40.325 -21.063 170.913  0.00  0.00    +0.000 C 
ATOM     29  C   UNL     1      37.980 -22.200 171.393  0.00  0.00    +0.000 C 
ATOM     30  C   UNL     1      39.234 -22.616 175.074  0.00  0.00    +0.000 C 
ATOM     31  C   UNL     1      38.709 -20.502 173.829  0.00  0.00    +0.000 C 
ATOM     32  C   UNL     1      38.907 -21.547 170.766  0.00  0.00    +0.000 C 
ATOM     33  C   UNL     1      43.396 -19.828 171.717  0.00  0.00    +0.000 C 
ATOM     34  C   UNL     1      36.811 -22.679 170.572  0.00  0.00    +0.000 C 
BRANCH  25  35
ATOM     35  O   UNL     1      43.171 -21.959 170.738  0.00  0.00    +0.000 OA
ATOM     36  H   UNL     1      42.824 -21.401 170.021  0.00  0.00    +0.000 HD
ENDBRANCH  25  35
ENDBRANCH  20  24
ENDBRANCH   3  19
TORSDOF 4
ENDMDL
MODEL 4
REMARK VINA RESULT:      -7.2     28.417     30.508
REMARK  Name = 44423609_SipholenoneA.pdbqt.pdb
REMARK  4 active torsions:
REMARK  status: ('A' for Active; 'I' for Inactive)
REMARK    1  A    between atoms: C_3  and  C_19
REMARK    2  A    between atoms: C_5  and  O_17
REMARK    3  A    between atoms: C_20  and  C_24
REMARK    4  A    between atoms: C_25  and  O_35
REMARK                            x       y       z     vdW  Elec       q    Type
REMARK                         _______ _______ _______ _____ _____    ______ ____
ROOT
ATOM      1  O   UNL     1      45.372   3.516 178.545  0.00  0.00    +0.000 OA
ATOM      2  O   UNL     1      43.830   5.853 180.964  0.00  0.00    +0.000 OA
ATOM      3  C   UNL     1      42.764   3.159 175.597  0.00  0.00    +0.000 C 
ATOM      4  C   UNL     1      43.789   3.838 176.504  0.00  0.00    +0.000 C 
ATOM      5  C   UNL     1      42.958   1.712 175.175  0.00  0.00    +0.000 C 
ATOM      6  C   UNL     1      44.560   2.941 177.560  0.00  0.00    +0.000 C 
ATOM      7  C   UNL     1      43.948   1.099 176.040  0.00  0.00    +0.000 C 
ATOM      8  C   UNL     1      44.749   1.593 177.198  0.00  0.00    +0.000 C 
ATOM      9  C   UNL     1      43.133   4.812 177.392  0.00  0.00    +0.000 C 
ATOM     10  C   UNL     1      44.852   4.564 175.632  0.00  0.00    +0.000 C 
ATOM     11  C   UNL     1      41.630   0.949 175.210  0.00  0.00    +0.000 C 
ATOM     12  C   UNL     1      43.217   5.344 178.807  0.00  0.00    +0.000 C 
ATOM     13  C   UNL     1      44.838   3.746 179.892  0.00  0.00    +0.000 C 
ATOM     14  C   UNL     1      43.964   5.090 180.016  0.00  0.00    +0.000 C 
ATOM     15  C   UNL     1      46.100   3.841 180.810  0.00  0.00    +0.000 C 
ATOM     16  C   UNL     1      43.963   2.521 180.353  0.00  0.00    +0.000 C 
ENDROOT
BRANCH   5  17
ATOM     17  O   UNL     1      43.396   1.663 173.841  0.00  0.00    +0.000 OA
ATOM     18  H   UNL     1      44.011   2.418 173.816  0.00  0.00    +0.000 HD
ENDBRANCH   5  17
BRANCH   3  19
ATOM     19  C   UNL     1      41.764   3.962 174.941  0.00  0.00    +0.000 C 
ATOM     20  C   UNL     1      40.706   4.811 174.233  0.00  0.00    +0.000 C 
BRANCH  20  24
ATOM     21  C   UNL     1      39.704   8.232 173.548  0.00  0.00    +0.000 C 
ATOM     22  C   UNL     1      39.167   6.921 174.175  0.00  0.00    +0.000 C 
ATOM     23  C   UNL     1      39.472   8.688 172.131  0.00  0.00    +0.000 C 
ATOM     24  C   UNL     1      39.720   5.611 173.564  0.00  0.00    +0.000 C 
ATOM     25  C   UNL     1      40.110  10.052 171.859  0.00  0.00    +0.000 C 
ATOM     26  C   UNL     1      40.445   9.265 174.191  0.00  0.00    +0.000 C 
ATOM     27  C   UNL     1      40.669  10.347 173.173  0.00  0.00    +0.000 C 
ATOM     28  C   UNL     1      39.229   7.653 171.204  0.00  0.00    +0.000 C 
ATOM     29  C   UNL     1      39.307   5.206 172.219  0.00  0.00    +0.000 C 
ATOM     30  C   UNL     1      39.506   6.947 175.715  0.00  0.00    +0.000 C 
ATOM     31  C   UNL     1      37.603   6.932 174.079  0.00  0.00    +0.000 C 
ATOM     32  C   UNL     1      39.168   6.156 171.349  0.00  0.00    +0.000 C 
ATOM     33  C   UNL     1      39.105  11.055 171.318  0.00  0.00    +0.000 C 
ATOM     34  C   UNL     1      39.453   3.806 171.681  0.00  0.00    +0.000 C 
BRANCH  25  35
ATOM     35  O   UNL     1      41.136   9.935 170.904  0.00  0.00    +0.000 OA
ATOM     36  H   UNL     1      40.806  10.533 170.211  0.00  0.00    +0.000 HD
ENDBRANCH  25  35
ENDBRANCH  20  24
ENDBRANCH   3  19
TORSDOF 4
ENDMDL
MODEL 5
REMARK VINA RESULT:      -7.2     28.216     31.843
REMARK  Name = 44423609_SipholenoneA.pdbqt.pdb
REMARK  4 active torsions:
REMARK  status: ('A' for Active; 'I' for Inactive)
REMARK    1  A    between atoms: C_3  and  C_19
REMARK    2  A    between atoms: C_5  and  O_17
REMARK    3  A    between atoms: C_20  and  C_24
REMARK    4  A    between atoms: C_25  and  O_35
REMARK                            x       y       z     vdW  Elec       q    Type
REMARK                         _______ _______ _______ _____ _____    ______ ____
ROOT
ATOM      1  O   UNL     1      15.464 -17.844 178.675  0.00  0.00    +0.000 OA
ATOM      2  O   UNL     1      12.552 -15.823 177.612  0.00  0.00    +0.000 OA
ATOM      3  C   UNL     1      14.796 -21.486 177.295  0.00  0.00    +0.000 C 
ATOM      4  C   UNL     1      15.097 -19.988 177.248  0.00  0.00    +0.000 C 
ATOM      5  C   UNL     1      15.412 -22.354 178.379  0.00  0.00    +0.000 C 
ATOM      6  C   UNL     1      15.367 -19.239 178.618  0.00  0.00    +0.000 C 
ATOM      7  C   UNL     1      15.918 -21.499 179.436  0.00  0.00    +0.000 C 
ATOM      8  C   UNL     1      15.932 -20.022 179.644  0.00  0.00    +0.000 C 
ATOM      9  C   UNL     1      13.932 -19.240 176.746  0.00  0.00    +0.000 C 
ATOM     10  C   UNL     1      16.316 -19.733 176.319  0.00  0.00    +0.000 C 
ATOM     11  C   UNL     1      14.394 -23.368 178.913  0.00  0.00    +0.000 C 
ATOM     12  C   UNL     1      13.202 -17.932 176.963  0.00  0.00    +0.000 C 
ATOM     13  C   UNL     1      14.295 -17.043 179.055  0.00  0.00    +0.000 C 
ATOM     14  C   UNL     1      13.269 -16.788 177.842  0.00  0.00    +0.000 C 
ATOM     15  C   UNL     1      14.887 -15.683 179.549  0.00  0.00    +0.000 C 
ATOM     16  C   UNL     1      13.523 -17.725 180.245  0.00  0.00    +0.000 C 
ENDROOT
BRANCH   5  17
ATOM     17  O   UNL     1      16.464 -23.113 177.837  0.00  0.00    +0.000 OA
ATOM     18  H   UNL     1      16.381 -23.940 178.346  0.00  0.00    +0.000 HD
ENDBRANCH   5  17
BRANCH   3  19
ATOM     19  C   UNL     1      14.146 -22.108 176.170  0.00  0.00    +0.000 C 
ATOM     20  C   UNL     1      13.444 -22.763 174.978  0.00  0.00    +0.000 C 
BRANCH  20  24
ATOM     21  C   UNL     1      13.394 -22.959 171.354  0.00  0.00    +0.000 C 
ATOM     22  C   UNL     1      12.479 -22.615 172.555  0.00  0.00    +0.000 C 
ATOM     23  C   UNL     1      13.473 -24.296 170.662  0.00  0.00    +0.000 C 
ATOM     24  C   UNL     1      12.780 -23.381 173.866  0.00  0.00    +0.000 C 
ATOM     25  C   UNL     1      14.449 -24.272 169.485  0.00  0.00    +0.000 C 
ATOM     26  C   UNL     1      14.267 -22.084 170.646  0.00  0.00    +0.000 C 
ATOM     27  C   UNL     1      14.880 -22.880 169.528  0.00  0.00    +0.000 C 
ATOM     28  C   UNL     1      13.116 -25.401 171.462  0.00  0.00    +0.000 C 
ATOM     29  C   UNL     1      12.467 -24.808 173.962  0.00  0.00    +0.000 C 
ATOM     30  C   UNL     1      12.602 -21.067 172.830  0.00  0.00    +0.000 C 
ATOM     31  C   UNL     1      10.991 -22.858 172.129  0.00  0.00    +0.000 C 
ATOM     32  C   UNL     1      12.679 -25.516 172.898  0.00  0.00    +0.000 C 
ATOM     33  C   UNL     1      13.797 -24.732 168.192  0.00  0.00    +0.000 C 
ATOM     34  C   UNL     1      12.345 -25.556 175.264  0.00  0.00    +0.000 C 
BRANCH  25  35
ATOM     35  O   UNL     1      15.537 -25.130 169.730  0.00  0.00    +0.000 OA
ATOM     36  H   UNL     1      16.135 -24.874 169.006  0.00  0.00    +0.000 HD
ENDBRANCH  25  35
ENDBRANCH  20  24
ENDBRANCH   3  19
TORSDOF 4
ENDMDL
MODEL 6
REMARK VINA RESULT:      -7.1     37.904     42.515
REMARK  Name = 44423609_SipholenoneA.pdbqt.pdb
REMARK  4 active torsions:
REMARK  status: ('A' for Active; 'I' for Inactive)
REMARK    1  A    between atoms: C_3  and  C_19
REMARK    2  A    between atoms: C_5  and  O_17
REMARK    3  A    between atoms: C_20  and  C_24
REMARK    4  A    between atoms: C_25  and  O_35
REMARK                            x       y       z     vdW  Elec       q    Type
REMARK                         _______ _______ _______ _____ _____    ______ ____
ROOT
ATOM      1  O   UNL     1      49.815 -24.296 170.082  0.00  0.00    +0.000 OA
ATOM      2  O   UNL     1      51.275 -21.703 172.282  0.00  0.00    +0.000 OA
ATOM      3  C   UNL     1      45.945 -24.313 170.876  0.00  0.00    +0.000 C 
ATOM      4  C   UNL     1      47.280 -23.779 170.361  0.00  0.00    +0.000 C 
ATOM      5  C   UNL     1      45.591 -25.780 170.703  0.00  0.00    +0.000 C 
ATOM      6  C   UNL     1      48.525 -24.761 170.361  0.00  0.00    +0.000 C 
ATOM      7  C   UNL     1      46.797 -26.519 170.379  0.00  0.00    +0.000 C 
ATOM      8  C   UNL     1      48.227 -26.129 170.208  0.00  0.00    +0.000 C 
ATOM      9  C   UNL     1      47.778 -22.699 171.229  0.00  0.00    +0.000 C 
ATOM     10  C   UNL     1      47.100 -23.240 168.914  0.00  0.00    +0.000 C 
ATOM     11  C   UNL     1      44.913 -26.333 171.962  0.00  0.00    +0.000 C 
ATOM     12  C   UNL     1      49.074 -22.157 171.794  0.00  0.00    +0.000 C 
ATOM     13  C   UNL     1      50.727 -23.960 171.181  0.00  0.00    +0.000 C 
ATOM     14  C   UNL     1      50.477 -22.496 171.799  0.00  0.00    +0.000 C 
ATOM     15  C   UNL     1      52.156 -24.039 170.552  0.00  0.00    +0.000 C 
ATOM     16  C   UNL     1      50.617 -25.029 172.332  0.00  0.00    +0.000 C 
ENDROOT
BRANCH   5  17
ATOM     17  O   UNL     1      44.653 -25.923 169.666  0.00  0.00    +0.000 OA
ATOM     18  H   UNL     1      44.899 -25.179 169.086  0.00  0.00    +0.000 HD
ENDBRANCH   5  17
BRANCH   3  19
ATOM     19  C   UNL     1      44.926 -23.380 171.286  0.00  0.00    +0.000 C 
ATOM     20  C   UNL     1      43.838 -22.399 171.729  0.00  0.00    +0.000 C 
BRANCH  20  24
ATOM     21  C   UNL     1      40.610 -22.191 173.376  0.00  0.00    +0.000 C 
ATOM     22  C   UNL     1      41.307 -21.833 172.039  0.00  0.00    +0.000 C 
ATOM     23  C   UNL     1      40.407 -21.255 174.540  0.00  0.00    +0.000 C 
ATOM     24  C   UNL     1      42.811 -21.485 172.141  0.00  0.00    +0.000 C 
ATOM     25  C   UNL     1      39.642 -21.925 175.683  0.00  0.00    +0.000 C 
ATOM     26  C   UNL     1      39.983 -23.421 173.729  0.00  0.00    +0.000 C 
ATOM     27  C   UNL     1      39.402 -23.241 175.104  0.00  0.00    +0.000 C 
ATOM     28  C   UNL     1      41.346 -20.207 174.631  0.00  0.00    +0.000 C 
ATOM     29  C   UNL     1      43.224 -20.224 172.761  0.00  0.00    +0.000 C 
ATOM     30  C   UNL     1      41.133 -23.058 171.060  0.00  0.00    +0.000 C 
ATOM     31  C   UNL     1      40.530 -20.644 171.379  0.00  0.00    +0.000 C 
ATOM     32  C   UNL     1      42.540 -19.838 173.791  0.00  0.00    +0.000 C 
ATOM     33  C   UNL     1      38.409 -21.134 176.085  0.00  0.00    +0.000 C 
ATOM     34  C   UNL     1      44.584 -19.602 172.574  0.00  0.00    +0.000 C 
BRANCH  25  35
ATOM     35  O   UNL     1      40.457 -22.032 176.824  0.00  0.00    +0.000 OA
ATOM     36  H   UNL     1      40.018 -22.763 177.292  0.00  0.00    +0.000 HD
ENDBRANCH  25  35
ENDBRANCH  20  24
ENDBRANCH   3  19
TORSDOF 4
ENDMDL
MODEL 7
REMARK VINA RESULT:      -7.1      4.472      6.070
REMARK  Name = 44423609_SipholenoneA.pdbqt.pdb
REMARK  4 active torsions:
REMARK  status: ('A' for Active; 'I' for Inactive)
REMARK    1  A    between atoms: C_3  and  C_19
REMARK    2  A    between atoms: C_5  and  O_17
REMARK    3  A    between atoms: C_20  and  C_24
REMARK    4  A    between atoms: C_25  and  O_35
REMARK                            x       y       z     vdW  Elec       q    Type
REMARK                         _______ _______ _______ _____ _____    ______ ____
ROOT
ATOM      1  O   UNL     1      27.135   0.761 197.250  0.00  0.00    +0.000 OA
ATOM      2  O   UNL     1      29.141   3.748 196.383  0.00  0.00    +0.000 OA
ATOM      3  C   UNL     1      24.443   0.414 194.378  0.00  0.00    +0.000 C 
ATOM      4  C   UNL     1      25.826   0.411 195.029  0.00  0.00    +0.000 C 
ATOM      5  C   UNL     1      23.244  -0.136 195.132  0.00  0.00    +0.000 C 
ATOM      6  C   UNL     1      25.909   0.568 196.604  0.00  0.00    +0.000 C 
ATOM      7  C   UNL     1      23.582  -0.246 196.538  0.00  0.00    +0.000 C 
ATOM      8  C   UNL     1      24.807   0.072 197.328  0.00  0.00    +0.000 C 
ATOM      9  C   UNL     1      26.608   1.578 194.590  0.00  0.00    +0.000 C 
ATOM     10  C   UNL     1      26.578  -0.893 194.641  0.00  0.00    +0.000 C 
ATOM     11  C   UNL     1      22.010   0.747 194.917  0.00  0.00    +0.000 C 
ATOM     12  C   UNL     1      27.611   2.580 195.124  0.00  0.00    +0.000 C 
ATOM     13  C   UNL     1      27.573   2.116 197.603  0.00  0.00    +0.000 C 
ATOM     14  C   UNL     1      28.244   2.913 196.378  0.00  0.00    +0.000 C 
ATOM     15  C   UNL     1      28.619   1.912 198.747  0.00  0.00    +0.000 C 
ATOM     16  C   UNL     1      26.364   2.956 198.161  0.00  0.00    +0.000 C 
ENDROOT
BRANCH   5  17
ATOM     17  O   UNL     1      22.905  -1.402 194.624  0.00  0.00    +0.000 OA
ATOM     18  H   UNL     1      23.765  -1.703 194.278  0.00  0.00    +0.000 HD
ENDBRANCH   5  17
BRANCH   3  19
ATOM     19  C   UNL     1      24.329   0.695 192.970  0.00  0.00    +0.000 C 
ATOM     20  C   UNL     1      24.196   0.995 191.475  0.00  0.00    +0.000 C 
BRANCH  20  24
ATOM     21  C   UNL     1      22.317   2.930 189.046  0.00  0.00    +0.000 C 
ATOM     22  C   UNL     1      22.686   1.467 189.396  0.00  0.00    +0.000 C 
ATOM     23  C   UNL     1      23.034   3.804 188.049  0.00  0.00    +0.000 C 
ATOM     24  C   UNL     1      24.064   1.268 190.072  0.00  0.00    +0.000 C 
ATOM     25  C   UNL     1      22.376   5.179 187.919  0.00  0.00    +0.000 C 
ATOM     26  C   UNL     1      21.217   3.692 189.536  0.00  0.00    +0.000 C 
ATOM     27  C   UNL     1      21.261   5.026 188.845  0.00  0.00    +0.000 C 
ATOM     28  C   UNL     1      24.388   3.475 187.835  0.00  0.00    +0.000 C 
ATOM     29  C   UNL     1      25.289   1.452 189.292  0.00  0.00    +0.000 C 
ATOM     30  C   UNL     1      21.565   0.900 190.349  0.00  0.00    +0.000 C 
ATOM     31  C   UNL     1      22.609   0.611 188.086  0.00  0.00    +0.000 C 
ATOM     32  C   UNL     1      25.281   2.415 188.425  0.00  0.00    +0.000 C 
ATOM     33  C   UNL     1      22.012   5.504 186.480  0.00  0.00    +0.000 C 
ATOM     34  C   UNL     1      26.637   0.921 189.707  0.00  0.00    +0.000 C 
BRANCH  25  35
ATOM     35  O   UNL     1      23.250   6.187 188.364  0.00  0.00    +0.000 OA
ATOM     36  H   UNL     1      22.729   6.569 189.092  0.00  0.00    +0.000 HD
ENDBRANCH  25  35
ENDBRANCH  20  24
ENDBRANCH   3  19
TORSDOF 4
ENDMDL
MODEL 8
REMARK VINA RESULT:      -6.9     28.241     30.848
REMARK  Name = 44423609_SipholenoneA.pdbqt.pdb
REMARK  4 active torsions:
REMARK  status: ('A' for Active; 'I' for Inactive)
REMARK    1  A    between atoms: C_3  and  C_19
REMARK    2  A    between atoms: C_5  and  O_17
REMARK    3  A    between atoms: C_20  and  C_24
REMARK    4  A    between atoms: C_25  and  O_35
REMARK                            x       y       z     vdW  Elec       q    Type
REMARK                         _______ _______ _______ _____ _____    ______ ____
ROOT
ATOM      1  O   UNL     1      45.427   3.576 178.507  0.00  0.00    +0.000 OA
ATOM      2  O   UNL     1      43.982   6.174 180.711  0.00  0.00    +0.000 OA
ATOM      3  C   UNL     1      42.917   3.235 175.474  0.00  0.00    +0.000 C 
ATOM      4  C   UNL     1      43.957   3.889 176.383  0.00  0.00    +0.000 C 
ATOM      5  C   UNL     1      43.012   1.754 175.148  0.00  0.00    +0.000 C 
ATOM      6  C   UNL     1      44.611   3.004 177.524  0.00  0.00    +0.000 C 
ATOM      7  C   UNL     1      43.915   1.122 176.091  0.00  0.00    +0.000 C 
ATOM      8  C   UNL     1      44.706   1.625 177.252  0.00  0.00    +0.000 C 
ATOM      9  C   UNL     1      43.346   4.965 177.181  0.00  0.00    +0.000 C 
ATOM     10  C   UNL     1      45.108   4.475 175.517  0.00  0.00    +0.000 C 
ATOM     11  C   UNL     1      41.626   1.099 175.170  0.00  0.00    +0.000 C 
ATOM     12  C   UNL     1      43.416   5.578 178.563  0.00  0.00    +0.000 C 
ATOM     13  C   UNL     1      44.860   3.931 179.813  0.00  0.00    +0.000 C 
ATOM     14  C   UNL     1      44.092   5.344 179.817  0.00  0.00    +0.000 C 
ATOM     15  C   UNL     1      46.089   3.986 180.779  0.00  0.00    +0.000 C 
ATOM     16  C   UNL     1      43.873   2.809 180.308  0.00  0.00    +0.000 C 
ENDROOT
BRANCH   5  17
ATOM     17  O   UNL     1      43.496   1.587 173.840  0.00  0.00    +0.000 OA
ATOM     18  H   UNL     1      44.186   0.913 173.980  0.00  0.00    +0.000 HD
ENDBRANCH   5  17
BRANCH   3  19
ATOM     19  C   UNL     1      42.012   4.070 174.727  0.00  0.00    +0.000 C 
ATOM     20  C   UNL     1      41.042   4.947 173.932  0.00  0.00    +0.000 C 
BRANCH  20  24
ATOM     21  C   UNL     1      40.115   5.928 170.562  0.00  0.00    +0.000 C 
ATOM     22  C   UNL     1      40.576   6.535 171.910  0.00  0.00    +0.000 C 
ATOM     23  C   UNL     1      38.687   5.800 170.097  0.00  0.00    +0.000 C 
ATOM     24  C   UNL     1      40.134   5.764 173.177  0.00  0.00    +0.000 C 
ATOM     25  C   UNL     1      38.596   5.194 168.695  0.00  0.00    +0.000 C 
ATOM     26  C   UNL     1      40.933   5.446 169.499  0.00  0.00    +0.000 C 
ATOM     27  C   UNL     1      40.011   5.022 168.390  0.00  0.00    +0.000 C 
ATOM     28  C   UNL     1      37.730   5.727 171.129  0.00  0.00    +0.000 C 
ATOM     29  C   UNL     1      38.728   5.780 173.584  0.00  0.00    +0.000 C 
ATOM     30  C   UNL     1      42.151   6.621 171.890  0.00  0.00    +0.000 C 
ATOM     31  C   UNL     1      40.067   8.015 171.986  0.00  0.00    +0.000 C 
ATOM     32  C   UNL     1      37.852   5.737 172.630  0.00  0.00    +0.000 C 
ATOM     33  C   UNL     1      37.807   6.075 167.742  0.00  0.00    +0.000 C 
ATOM     34  C   UNL     1      38.248   5.415 174.965  0.00  0.00    +0.000 C 
BRANCH  25  35
ATOM     35  O   UNL     1      37.949   3.946 168.740  0.00  0.00    +0.000 OA
ATOM     36  H   UNL     1      37.841   3.764 167.790  0.00  0.00    +0.000 HD
ENDBRANCH  25  35
ENDBRANCH  20  24
ENDBRANCH   3  19
TORSDOF 4
ENDMDL
MODEL 9
REMARK VINA RESULT:      -6.5     27.950     30.411
REMARK  Name = 44423609_SipholenoneA.pdbqt.pdb
REMARK  4 active torsions:
REMARK  status: ('A' for Active; 'I' for Inactive)
REMARK    1  A    between atoms: C_3  and  C_19
REMARK    2  A    between atoms: C_5  and  O_17
REMARK    3  A    between atoms: C_20  and  C_24
REMARK    4  A    between atoms: C_25  and  O_35
REMARK                            x       y       z     vdW  Elec       q    Type
REMARK                         _______ _______ _______ _____ _____    ______ ____
ROOT
ATOM      1  O   UNL     1      46.324   4.990 181.492  0.00  0.00    +0.000 OA
ATOM      2  O   UNL     1      43.516   6.950 182.894  0.00  0.00    +0.000 OA
ATOM      3  C   UNL     1      44.866   3.171 178.301  0.00  0.00    +0.000 C 
ATOM      4  C   UNL     1      45.332   4.332 179.178  0.00  0.00    +0.000 C 
ATOM      5  C   UNL     1      45.627   1.855 178.310  0.00  0.00    +0.000 C 
ATOM      6  C   UNL     1      46.040   3.991 180.554  0.00  0.00    +0.000 C 
ATOM      7  C   UNL     1      46.493   1.822 179.473  0.00  0.00    +0.000 C 
ATOM      8  C   UNL     1      46.748   2.774 180.593  0.00  0.00    +0.000 C 
ATOM      9  C   UNL     1      44.181   5.123 179.645  0.00  0.00    +0.000 C 
ATOM     10  C   UNL     1      46.291   5.245 178.363  0.00  0.00    +0.000 C 
ATOM     11  C   UNL     1      44.663   0.665 178.291  0.00  0.00    +0.000 C 
ATOM     12  C   UNL     1      43.704   5.883 180.865  0.00  0.00    +0.000 C 
ATOM     13  C   UNL     1      45.404   5.230 182.609  0.00  0.00    +0.000 C 
ATOM     14  C   UNL     1      44.141   6.144 182.217  0.00  0.00    +0.000 C 
ATOM     15  C   UNL     1      46.272   5.952 183.691  0.00  0.00    +0.000 C 
ATOM     16  C   UNL     1      44.888   3.864 183.198  0.00  0.00    +0.000 C 
ENDROOT
BRANCH   5  17
ATOM     17  O   UNL     1      46.398   1.746 177.140  0.00  0.00    +0.000 OA
ATOM     18  H   UNL     1      47.134   2.351 177.342  0.00  0.00    +0.000 HD
ENDBRANCH   5  17
BRANCH   3  19
ATOM     19  C   UNL     1      43.874   3.410 177.285  0.00  0.00    +0.000 C 
ATOM     20  C   UNL     1      42.824   3.676 176.203  0.00  0.00    +0.000 C 
BRANCH  20  24
ATOM     21  C   UNL     1      41.864   6.007 173.592  0.00  0.00    +0.000 C 
ATOM     22  C   UNL     1      41.319   5.360 174.890  0.00  0.00    +0.000 C 
ATOM     23  C   UNL     1      41.606   5.516 172.190  0.00  0.00    +0.000 C 
ATOM     24  C   UNL     1      41.837   3.933 175.194  0.00  0.00    +0.000 C 
ATOM     25  C   UNL     1      42.259   6.418 171.142  0.00  0.00    +0.000 C 
ATOM     26  C   UNL     1      42.637   7.197 173.470  0.00  0.00    +0.000 C 
ATOM     27  C   UNL     1      42.855   7.434 172.002  0.00  0.00    +0.000 C 
ATOM     28  C   UNL     1      41.323   4.139 172.084  0.00  0.00    +0.000 C 
ATOM     29  C   UNL     1      41.384   2.807 174.375  0.00  0.00    +0.000 C 
ATOM     30  C   UNL     1      41.695   6.305 176.096  0.00  0.00    +0.000 C 
ATOM     31  C   UNL     1      39.754   5.354 174.822  0.00  0.00    +0.000 C 
ATOM     32  C   UNL     1      41.241   3.038 173.108  0.00  0.00    +0.000 C 
ATOM     33  C   UNL     1      41.259   6.915 170.112  0.00  0.00    +0.000 C 
ATOM     34  C   UNL     1      41.495   1.364 174.796  0.00  0.00    +0.000 C 
BRANCH  25  35
ATOM     35  O   UNL     1      43.260   5.718 170.444  0.00  0.00    +0.000 OA
ATOM     36  H   UNL     1      43.714   5.272 171.180  0.00  0.00    +0.000 HD
ENDBRANCH  25  35
ENDBRANCH  20  24
ENDBRANCH   3  19
TORSDOF 4
ENDMDL
