MODEL 1
REMARK VINA RESULT:      -7.4      0.000      0.000
REMARK  Name = 445154_Resveratrol.pdbqt.pdb
REMARK  5 active torsions:
REMARK  status: ('A' for Active; 'I' for Inactive)
REMARK    1  A    between atoms: C_1  and  C_11
REMARK    2  A    between atoms: C_4  and  O_7
REMARK    3  A    between atoms: C_5  and  O_9
REMARK    4  A    between atoms: C_12  and  C_13
REMARK    5  A    between atoms: C_18  and  O_19
REMARK                            x       y       z     vdW  Elec       q    Type
REMARK                         _______ _______ _______ _____ _____    ______ ____
ROOT
ATOM      1  C   UNL     1      19.773   2.219 188.250  0.00  0.00    +0.000 A 
ATOM      2  C   UNL     1      18.390   2.101 188.379  0.00  0.00    +0.000 A 
ATOM      3  C   UNL     1      20.611   1.806 189.285  0.00  0.00    +0.000 A 
ATOM      4  C   UNL     1      20.056   1.274 190.446  0.00  0.00    +0.000 A 
ATOM      5  C   UNL     1      17.854   1.567 189.547  0.00  0.00    +0.000 A 
ATOM      6  C   UNL     1      18.678   1.150 190.588  0.00  0.00    +0.000 A 
ENDROOT
BRANCH   4   7
ATOM      7  O   UNL     1      20.852   0.861 191.475  0.00  0.00    +0.000 OA
ATOM      8  H   UNL     1      21.735   0.663 191.114  0.00  0.00    +0.000 HD
ENDBRANCH   4   7
BRANCH   5   9
ATOM      9  O   UNL     1      16.497   1.461 189.650  0.00  0.00    +0.000 OA
ATOM     10  H   UNL     1      16.113   2.338 189.472  0.00  0.00    +0.000 HD
ENDBRANCH   5   9
BRANCH   1  11
ATOM     11  C   UNL     1      20.334   2.765 187.058  0.00  0.00    +0.000 C 
ATOM     12  C   UNL     1      20.807   3.225 186.054  0.00  0.00    +0.000 C 
BRANCH  12  13
ATOM     13  C   UNL     1      21.369   3.770 184.862  0.00  0.00    +0.000 A 
ATOM     14  C   UNL     1      20.926   3.323 183.618  0.00  0.00    +0.000 A 
ATOM     15  C   UNL     1      22.360   4.748 184.944  0.00  0.00    +0.000 A 
ATOM     16  C   UNL     1      21.472   3.853 182.453  0.00  0.00    +0.000 A 
ATOM     17  C   UNL     1      22.909   5.281 183.781  0.00  0.00    +0.000 A 
ATOM     18  C   UNL     1      22.461   4.829 182.544  0.00  0.00    +0.000 A 
BRANCH  18  19
ATOM     19  O   UNL     1      23.014   5.366 181.419  0.00  0.00    +0.000 OA
ATOM     20  H   UNL     1      23.399   6.230 181.650  0.00  0.00    +0.000 HD
ENDBRANCH  18  19
ENDBRANCH  12  13
ENDBRANCH   1  11
TORSDOF 5
ENDMDL
MODEL 2
REMARK VINA RESULT:      -7.4      1.187      2.525
REMARK  Name = 445154_Resveratrol.pdbqt.pdb
REMARK  5 active torsions:
REMARK  status: ('A' for Active; 'I' for Inactive)
REMARK    1  A    between atoms: C_1  and  C_11
REMARK    2  A    between atoms: C_4  and  O_7
REMARK    3  A    between atoms: C_5  and  O_9
REMARK    4  A    between atoms: C_12  and  C_13
REMARK    5  A    between atoms: C_18  and  O_19
REMARK                            x       y       z     vdW  Elec       q    Type
REMARK                         _______ _______ _______ _____ _____    ______ ____
ROOT
ATOM      1  C   UNL     1      19.785   2.709 189.334  0.00  0.00    +0.000 A 
ATOM      2  C   UNL     1      20.499   2.947 190.507  0.00  0.00    +0.000 A 
ATOM      3  C   UNL     1      18.560   2.044 189.380  0.00  0.00    +0.000 A 
ATOM      4  C   UNL     1      18.056   1.621 190.607  0.00  0.00    +0.000 A 
ATOM      5  C   UNL     1      19.978   2.515 191.723  0.00  0.00    +0.000 A 
ATOM      6  C   UNL     1      18.757   1.852 191.786  0.00  0.00    +0.000 A 
ENDROOT
BRANCH   4   7
ATOM      7  O   UNL     1      16.860   0.968 190.682  0.00  0.00    +0.000 OA
ATOM      8  H   UNL     1      16.700   0.733 191.613  0.00  0.00    +0.000 HD
ENDBRANCH   4   7
BRANCH   5   9
ATOM      9  O   UNL     1      20.695   2.759 192.860  0.00  0.00    +0.000 OA
ATOM     10  H   UNL     1      20.647   1.965 193.421  0.00  0.00    +0.000 HD
ENDBRANCH   5   9
BRANCH   1  11
ATOM     11  C   UNL     1      20.308   3.145 188.081  0.00  0.00    +0.000 C 
ATOM     12  C   UNL     1      20.748   3.513 187.025  0.00  0.00    +0.000 C 
BRANCH  12  13
ATOM     13  C   UNL     1      21.272   3.950 185.773  0.00  0.00    +0.000 A 
ATOM     14  C   UNL     1      22.164   5.021 185.729  0.00  0.00    +0.000 A 
ATOM     15  C   UNL     1      20.890   3.306 184.596  0.00  0.00    +0.000 A 
ATOM     16  C   UNL     1      22.677   5.449 184.508  0.00  0.00    +0.000 A 
ATOM     17  C   UNL     1      21.401   3.732 183.373  0.00  0.00    +0.000 A 
ATOM     18  C   UNL     1      22.290   4.801 183.338  0.00  0.00    +0.000 A 
BRANCH  18  19
ATOM     19  O   UNL     1      22.777   5.200 182.128  0.00  0.00    +0.000 OA
ATOM     20  H   UNL     1      23.379   5.950 182.273  0.00  0.00    +0.000 HD
ENDBRANCH  18  19
ENDBRANCH  12  13
ENDBRANCH   1  11
TORSDOF 5
ENDMDL
MODEL 3
REMARK VINA RESULT:      -6.5      3.359      5.319
REMARK  Name = 445154_Resveratrol.pdbqt.pdb
REMARK  5 active torsions:
REMARK  status: ('A' for Active; 'I' for Inactive)
REMARK    1  A    between atoms: C_1  and  C_11
REMARK    2  A    between atoms: C_4  and  O_7
REMARK    3  A    between atoms: C_5  and  O_9
REMARK    4  A    between atoms: C_12  and  C_13
REMARK    5  A    between atoms: C_18  and  O_19
REMARK                            x       y       z     vdW  Elec       q    Type
REMARK                         _______ _______ _______ _____ _____    ______ ____
ROOT
ATOM      1  C   UNL     1      19.791   0.053 192.824  0.00  0.00    +0.000 A 
ATOM      2  C   UNL     1      19.017   0.624 193.833  0.00  0.00    +0.000 A 
ATOM      3  C   UNL     1      20.517  -1.112 193.070  0.00  0.00    +0.000 A 
ATOM      4  C   UNL     1      20.461  -1.699 194.331  0.00  0.00    +0.000 A 
ATOM      5  C   UNL     1      18.975   0.022 195.086  0.00  0.00    +0.000 A 
ATOM      6  C   UNL     1      19.693  -1.141 195.347  0.00  0.00    +0.000 A 
ENDROOT
BRANCH   4   7
ATOM      7  O   UNL     1      21.161  -2.840 194.601  0.00  0.00    +0.000 OA
ATOM      8  H   UNL     1      21.401  -3.256 193.754  0.00  0.00    +0.000 HD
ENDBRANCH   4   7
BRANCH   5   9
ATOM      9  O   UNL     1      18.209   0.598 196.059  0.00  0.00    +0.000 OA
ATOM     10  H   UNL     1      18.457   0.199 196.912  0.00  0.00    +0.000 HD
ENDBRANCH   5   9
BRANCH   1  11
ATOM     11  C   UNL     1      19.843   0.662 191.535  0.00  0.00    +0.000 C 
ATOM     12  C   UNL     1      19.888   1.175 190.449  0.00  0.00    +0.000 C 
BRANCH  12  13
ATOM     13  C   UNL     1      19.940   1.783 189.161  0.00  0.00    +0.000 A 
ATOM     14  C   UNL     1      21.132   1.772 188.436  0.00  0.00    +0.000 A 
ATOM     15  C   UNL     1      18.801   2.387 188.629  0.00  0.00    +0.000 A 
ATOM     16  C   UNL     1      21.186   2.364 187.177  0.00  0.00    +0.000 A 
ATOM     17  C   UNL     1      18.852   2.981 187.371  0.00  0.00    +0.000 A 
ATOM     18  C   UNL     1      20.044   2.965 186.655  0.00  0.00    +0.000 A 
BRANCH  18  19
ATOM     19  O   UNL     1      20.069   3.553 185.424  0.00  0.00    +0.000 OA
ATOM     20  H   UNL     1      20.280   4.496 185.540  0.00  0.00    +0.000 HD
ENDBRANCH  18  19
ENDBRANCH  12  13
ENDBRANCH   1  11
TORSDOF 5
ENDMDL
MODEL 4
REMARK VINA RESULT:      -6.3      2.601      3.666
REMARK  Name = 445154_Resveratrol.pdbqt.pdb
REMARK  5 active torsions:
REMARK  status: ('A' for Active; 'I' for Inactive)
REMARK    1  A    between atoms: C_1  and  C_11
REMARK    2  A    between atoms: C_4  and  O_7
REMARK    3  A    between atoms: C_5  and  O_9
REMARK    4  A    between atoms: C_12  and  C_13
REMARK    5  A    between atoms: C_18  and  O_19
REMARK                            x       y       z     vdW  Elec       q    Type
REMARK                         _______ _______ _______ _____ _____    ______ ____
ROOT
ATOM      1  C   UNL     1      20.556   1.534 191.590  0.00  0.00    +0.000 A 
ATOM      2  C   UNL     1      19.939   0.288 191.488  0.00  0.00    +0.000 A 
ATOM      3  C   UNL     1      20.883   2.056 192.841  0.00  0.00    +0.000 A 
ATOM      4  C   UNL     1      20.588   1.322 193.987  0.00  0.00    +0.000 A 
ATOM      5  C   UNL     1      19.652  -0.429 192.646  0.00  0.00    +0.000 A 
ATOM      6  C   UNL     1      19.973   0.077 193.901  0.00  0.00    +0.000 A 
ENDROOT
BRANCH   4   7
ATOM      7  O   UNL     1      20.897   1.807 195.225  0.00  0.00    +0.000 OA
ATOM      8  H   UNL     1      20.201   2.437 195.486  0.00  0.00    +0.000 HD
ENDBRANCH   4   7
BRANCH   5   9
ATOM      9  O   UNL     1      19.048  -1.647 192.522  0.00  0.00    +0.000 OA
ATOM     10  H   UNL     1      18.625  -1.685 191.646  0.00  0.00    +0.000 HD
ENDBRANCH   5   9
BRANCH   1  11
ATOM     11  C   UNL     1      20.854   2.280 190.411  0.00  0.00    +0.000 C 
ATOM     12  C   UNL     1      21.105   2.907 189.418  0.00  0.00    +0.000 C 
BRANCH  12  13
ATOM     13  C   UNL     1      21.402   3.652 188.239  0.00  0.00    +0.000 A 
ATOM     14  C   UNL     1      20.759   3.343 187.041  0.00  0.00    +0.000 A 
ATOM     15  C   UNL     1      22.336   4.687 188.286  0.00  0.00    +0.000 A 
ATOM     16  C   UNL     1      21.047   4.069 185.889  0.00  0.00    +0.000 A 
ATOM     17  C   UNL     1      22.627   5.415 187.136  0.00  0.00    +0.000 A 
ATOM     18  C   UNL     1      21.980   5.100 185.946  0.00  0.00    +0.000 A 
BRANCH  18  19
ATOM     19  O   UNL     1      22.282   5.828 184.832  0.00  0.00    +0.000 OA
ATOM     20  H   UNL     1      22.274   6.771 185.072  0.00  0.00    +0.000 HD
ENDBRANCH  18  19
ENDBRANCH  12  13
ENDBRANCH   1  11
TORSDOF 5
ENDMDL
MODEL 5
REMARK VINA RESULT:      -6.3      4.729     10.172
REMARK  Name = 445154_Resveratrol.pdbqt.pdb
REMARK  5 active torsions:
REMARK  status: ('A' for Active; 'I' for Inactive)
REMARK    1  A    between atoms: C_1  and  C_11
REMARK    2  A    between atoms: C_4  and  O_7
REMARK    3  A    between atoms: C_5  and  O_9
REMARK    4  A    between atoms: C_12  and  C_13
REMARK    5  A    between atoms: C_18  and  O_19
REMARK                            x       y       z     vdW  Elec       q    Type
REMARK                         _______ _______ _______ _____ _____    ______ ____
ROOT
ATOM      1  C   UNL     1      18.718   1.514 191.553  0.00  0.00    +0.000 A 
ATOM      2  C   UNL     1      17.795   0.969 190.660  0.00  0.00    +0.000 A 
ATOM      3  C   UNL     1      19.575   2.533 191.141  0.00  0.00    +0.000 A 
ATOM      4  C   UNL     1      19.502   3.003 189.833  0.00  0.00    +0.000 A 
ATOM      5  C   UNL     1      17.739   1.452 189.357  0.00  0.00    +0.000 A 
ATOM      6  C   UNL     1      18.587   2.470 188.931  0.00  0.00    +0.000 A 
ENDROOT
BRANCH   4   7
ATOM      7  O   UNL     1      20.328   4.001 189.402  0.00  0.00    +0.000 OA
ATOM      8  H   UNL     1      19.876   4.481 188.686  0.00  0.00    +0.000 HD
ENDBRANCH   4   7
BRANCH   5   9
ATOM      9  O   UNL     1      16.827   0.904 188.500  0.00  0.00    +0.000 OA
ATOM     10  H   UNL     1      17.312   0.549 187.734  0.00  0.00    +0.000 HD
ENDBRANCH   5   9
BRANCH   1  11
ATOM     11  C   UNL     1      18.786   1.027 192.892  0.00  0.00    +0.000 C 
ATOM     12  C   UNL     1      18.845   0.616 194.019  0.00  0.00    +0.000 C 
BRANCH  12  13
ATOM     13  C   UNL     1      18.915   0.129 195.358  0.00  0.00    +0.000 A 
ATOM     14  C   UNL     1      19.651  -1.021 195.641  0.00  0.00    +0.000 A 
ATOM     15  C   UNL     1      18.247   0.804 196.379  0.00  0.00    +0.000 A 
ATOM     16  C   UNL     1      19.721  -1.498 196.947  0.00  0.00    +0.000 A 
ATOM     17  C   UNL     1      18.314   0.330 197.686  0.00  0.00    +0.000 A 
ATOM     18  C   UNL     1      19.051  -0.818 197.960  0.00  0.00    +0.000 A 
BRANCH  18  19
ATOM     19  O   UNL     1      19.102  -1.263 199.249  0.00  0.00    +0.000 OA
ATOM     20  H   UNL     1      19.421  -0.536 199.811  0.00  0.00    +0.000 HD
ENDBRANCH  18  19
ENDBRANCH  12  13
ENDBRANCH   1  11
TORSDOF 5
ENDMDL
MODEL 6
REMARK VINA RESULT:      -5.9      3.813      7.414
REMARK  Name = 445154_Resveratrol.pdbqt.pdb
REMARK  5 active torsions:
REMARK  status: ('A' for Active; 'I' for Inactive)
REMARK    1  A    between atoms: C_1  and  C_11
REMARK    2  A    between atoms: C_4  and  O_7
REMARK    3  A    between atoms: C_5  and  O_9
REMARK    4  A    between atoms: C_12  and  C_13
REMARK    5  A    between atoms: C_18  and  O_19
REMARK                            x       y       z     vdW  Elec       q    Type
REMARK                         _______ _______ _______ _____ _____    ______ ____
ROOT
ATOM      1  C   UNL     1      21.332   1.986 187.983  0.00  0.00    +0.000 A 
ATOM      2  C   UNL     1      19.984   2.089 188.323  0.00  0.00    +0.000 A 
ATOM      3  C   UNL     1      21.783   2.459 186.751  0.00  0.00    +0.000 A 
ATOM      4  C   UNL     1      20.876   3.035 185.865  0.00  0.00    +0.000 A 
ATOM      5  C   UNL     1      19.094   2.667 187.424  0.00  0.00    +0.000 A 
ATOM      6  C   UNL     1      19.528   3.145 186.191  0.00  0.00    +0.000 A 
ENDROOT
BRANCH   4   7
ATOM      7  O   UNL     1      21.289   3.506 184.653  0.00  0.00    +0.000 OA
ATOM      8  H   UNL     1      22.262   3.483 184.634  0.00  0.00    +0.000 HD
ENDBRANCH   4   7
BRANCH   5   9
ATOM      9  O   UNL     1      17.778   2.758 187.779  0.00  0.00    +0.000 OA
ATOM     10  H   UNL     1      17.316   3.270 187.092  0.00  0.00    +0.000 HD
ENDBRANCH   5   9
BRANCH   1  11
ATOM     11  C   UNL     1      22.254   1.394 188.896  0.00  0.00    +0.000 C 
ATOM     12  C   UNL     1      23.031   0.896 189.665  0.00  0.00    +0.000 C 
BRANCH  12  13
ATOM     13  C   UNL     1      23.954   0.306 190.578  0.00  0.00    +0.000 A 
ATOM     14  C   UNL     1      25.303   0.655 190.526  0.00  0.00    +0.000 A 
ATOM     15  C   UNL     1      23.504  -0.620 191.520  0.00  0.00    +0.000 A 
ATOM     16  C   UNL     1      26.205   0.080 191.417  0.00  0.00    +0.000 A 
ATOM     17  C   UNL     1      24.404  -1.197 192.412  0.00  0.00    +0.000 A 
ATOM     18  C   UNL     1      25.747  -0.843 192.353  0.00  0.00    +0.000 A 
BRANCH  18  19
ATOM     19  O   UNL     1      26.610  -1.422 193.238  0.00  0.00    +0.000 OA
ATOM     20  H   UNL     1      26.657  -2.374 193.040  0.00  0.00    +0.000 HD
ENDBRANCH  18  19
ENDBRANCH  12  13
ENDBRANCH   1  11
TORSDOF 5
ENDMDL
MODEL 7
REMARK VINA RESULT:      -5.9     21.562     22.555
REMARK  Name = 445154_Resveratrol.pdbqt.pdb
REMARK  5 active torsions:
REMARK  status: ('A' for Active; 'I' for Inactive)
REMARK    1  A    between atoms: C_1  and  C_11
REMARK    2  A    between atoms: C_4  and  O_7
REMARK    3  A    between atoms: C_5  and  O_9
REMARK    4  A    between atoms: C_12  and  C_13
REMARK    5  A    between atoms: C_18  and  O_19
REMARK                            x       y       z     vdW  Elec       q    Type
REMARK                         _______ _______ _______ _____ _____    ______ ____
ROOT
ATOM      1  C   UNL     1      13.647 -14.912 179.234  0.00  0.00    +0.000 A 
ATOM      2  C   UNL     1      13.660 -13.920 178.254  0.00  0.00    +0.000 A 
ATOM      3  C   UNL     1      13.074 -14.659 180.480  0.00  0.00    +0.000 A 
ATOM      4  C   UNL     1      12.514 -13.410 180.736  0.00  0.00    +0.000 A 
ATOM      5  C   UNL     1      13.097 -12.678 178.530  0.00  0.00    +0.000 A 
ATOM      6  C   UNL     1      12.520 -12.412 179.767  0.00  0.00    +0.000 A 
ENDROOT
BRANCH   4   7
ATOM      7  O   UNL     1      11.945 -13.136 181.945  0.00  0.00    +0.000 OA
ATOM      8  H   UNL     1      12.021 -12.178 182.106  0.00  0.00    +0.000 HD
ENDBRANCH   4   7
BRANCH   5   9
ATOM      9  O   UNL     1      13.121 -11.723 177.555  0.00  0.00    +0.000 OA
ATOM     10  H   UNL     1      13.145 -12.175 176.692  0.00  0.00    +0.000 HD
ENDBRANCH   5   9
BRANCH   1  11
ATOM     11  C   UNL     1      14.223 -16.188 178.964  0.00  0.00    +0.000 C 
ATOM     12  C   UNL     1      14.708 -17.263 178.737  0.00  0.00    +0.000 C 
BRANCH  12  13
ATOM     13  C   UNL     1      15.284 -18.540 178.467  0.00  0.00    +0.000 A 
ATOM     14  C   UNL     1      15.790 -19.309 179.515  0.00  0.00    +0.000 A 
ATOM     15  C   UNL     1      15.339 -19.016 177.158  0.00  0.00    +0.000 A 
ATOM     16  C   UNL     1      16.352 -20.556 179.255  0.00  0.00    +0.000 A 
ATOM     17  C   UNL     1      15.900 -20.263 176.893  0.00  0.00    +0.000 A 
ATOM     18  C   UNL     1      16.403 -21.022 177.945  0.00  0.00    +0.000 A 
BRANCH  18  19
ATOM     19  O   UNL     1      16.948 -22.241 177.661  0.00  0.00    +0.000 OA
ATOM     20  H   UNL     1      16.241 -22.823 177.332  0.00  0.00    +0.000 HD
ENDBRANCH  18  19
ENDBRANCH  12  13
ENDBRANCH   1  11
TORSDOF 5
ENDMDL
MODEL 8
REMARK VINA RESULT:      -5.8      3.464      8.629
REMARK  Name = 445154_Resveratrol.pdbqt.pdb
REMARK  5 active torsions:
REMARK  status: ('A' for Active; 'I' for Inactive)
REMARK    1  A    between atoms: C_1  and  C_11
REMARK    2  A    between atoms: C_4  and  O_7
REMARK    3  A    between atoms: C_5  and  O_9
REMARK    4  A    between atoms: C_12  and  C_13
REMARK    5  A    between atoms: C_18  and  O_19
REMARK                            x       y       z     vdW  Elec       q    Type
REMARK                         _______ _______ _______ _____ _____    ______ ____
ROOT
ATOM      1  C   UNL     1      22.700   3.992 188.936  0.00  0.00    +0.000 A 
ATOM      2  C   UNL     1      24.094   4.008 188.988  0.00  0.00    +0.000 A 
ATOM      3  C   UNL     1      22.031   4.600 187.875  0.00  0.00    +0.000 A 
ATOM      4  C   UNL     1      22.765   5.220 186.867  0.00  0.00    +0.000 A 
ATOM      5  C   UNL     1      24.809   4.634 187.972  0.00  0.00    +0.000 A 
ATOM      6  C   UNL     1      24.155   5.243 186.906  0.00  0.00    +0.000 A 
ENDROOT
BRANCH   4   7
ATOM      7  O   UNL     1      22.137   5.822 185.816  0.00  0.00    +0.000 OA
ATOM      8  H   UNL     1      21.981   6.755 186.049  0.00  0.00    +0.000 HD
ENDBRANCH   4   7
BRANCH   5   9
ATOM      9  O   UNL     1      26.172   4.636 188.044  0.00  0.00    +0.000 OA
ATOM     10  H   UNL     1      26.427   5.002 188.910  0.00  0.00    +0.000 HD
ENDBRANCH   5   9
BRANCH   1  11
ATOM     11  C   UNL     1      21.956   3.355 189.972  0.00  0.00    +0.000 C 
ATOM     12  C   UNL     1      21.329   2.818 190.846  0.00  0.00    +0.000 C 
BRANCH  12  13
ATOM     13  C   UNL     1      20.584   2.182 191.882  0.00  0.00    +0.000 A 
ATOM     14  C   UNL     1      21.168   1.977 193.132  0.00  0.00    +0.000 A 
ATOM     15  C   UNL     1      19.275   1.765 191.643  0.00  0.00    +0.000 A 
ATOM     16  C   UNL     1      20.443   1.357 194.145  0.00  0.00    +0.000 A 
ATOM     17  C   UNL     1      18.547   1.144 192.653  0.00  0.00    +0.000 A 
ATOM     18  C   UNL     1      19.137   0.944 193.897  0.00  0.00    +0.000 A 
BRANCH  18  19
ATOM     19  O   UNL     1      18.404   0.333 194.872  0.00  0.00    +0.000 OA
ATOM     20  H   UNL     1      18.499   0.846 195.693  0.00  0.00    +0.000 HD
ENDBRANCH  18  19
ENDBRANCH  12  13
ENDBRANCH   1  11
TORSDOF 5
ENDMDL
MODEL 9
REMARK VINA RESULT:      -5.8     28.188     30.470
REMARK  Name = 445154_Resveratrol.pdbqt.pdb
REMARK  5 active torsions:
REMARK  status: ('A' for Active; 'I' for Inactive)
REMARK    1  A    between atoms: C_1  and  C_11
REMARK    2  A    between atoms: C_4  and  O_7
REMARK    3  A    between atoms: C_5  and  O_9
REMARK    4  A    between atoms: C_12  and  C_13
REMARK    5  A    between atoms: C_18  and  O_19
REMARK                            x       y       z     vdW  Elec       q    Type
REMARK                         _______ _______ _______ _____ _____    ______ ____
ROOT
ATOM      1  C   UNL     1      41.229  -6.801 166.491  0.00  0.00    +0.000 A 
ATOM      2  C   UNL     1      42.304  -7.305 165.760  0.00  0.00    +0.000 A 
ATOM      3  C   UNL     1      41.431  -6.286 167.771  0.00  0.00    +0.000 A 
ATOM      4  C   UNL     1      42.715  -6.278 168.311  0.00  0.00    +0.000 A 
ATOM      5  C   UNL     1      43.578  -7.289 166.319  0.00  0.00    +0.000 A 
ATOM      6  C   UNL     1      43.796  -6.777 167.593  0.00  0.00    +0.000 A 
ENDROOT
BRANCH   4   7
ATOM      7  O   UNL     1      42.942  -5.778 169.561  0.00  0.00    +0.000 OA
ATOM      8  H   UNL     1      43.037  -4.812 169.489  0.00  0.00    +0.000 HD
ENDBRANCH   4   7
BRANCH   5   9
ATOM      9  O   UNL     1      44.616  -7.787 165.584  0.00  0.00    +0.000 OA
ATOM     10  H   UNL     1      44.812  -8.684 165.911  0.00  0.00    +0.000 HD
ENDBRANCH   5   9
BRANCH   1  11
ATOM     11  C   UNL     1      39.918  -6.814 165.931  0.00  0.00    +0.000 C 
ATOM     12  C   UNL     1      38.814  -6.825 165.458  0.00  0.00    +0.000 C 
BRANCH  12  13
ATOM     13  C   UNL     1      37.502  -6.838 164.898  0.00  0.00    +0.000 A 
ATOM     14  C   UNL     1      37.337  -6.970 163.519  0.00  0.00    +0.000 A 
ATOM     15  C   UNL     1      36.389  -6.719 165.729  0.00  0.00    +0.000 A 
ATOM     16  C   UNL     1      36.059  -6.983 162.970  0.00  0.00    +0.000 A 
ATOM     17  C   UNL     1      35.108  -6.732 165.183  0.00  0.00    +0.000 A 
ATOM     18  C   UNL     1      34.953  -6.864 163.807  0.00  0.00    +0.000 A 
BRANCH  18  19
ATOM     19  O   UNL     1      33.688  -6.874 163.296  0.00  0.00    +0.000 OA
ATOM     20  H   UNL     1      33.747  -6.735 162.334  0.00  0.00    +0.000 HD
ENDBRANCH  18  19
ENDBRANCH  12  13
ENDBRANCH   1  11
TORSDOF 5
ENDMDL
