MODEL 1
REMARK VINA RESULT:      -7.3      0.000      0.000
REMARK  Name = 448438_Violaxanthin.pdbqt.pdb
REMARK  16 active torsions:
REMARK  status: ('A' for Active; 'I' for Inactive)
REMARK    1  A    between atoms: C_1  and  C_5
REMARK    2  A    between atoms: C_2  and  C_27
REMARK    3  A    between atoms: C_3  and  C_5
REMARK    4  A    between atoms: C_3  and  C_7
REMARK    5  A    between atoms: C_6  and  C_10
REMARK    6  A    between atoms: C_8  and  C_10
REMARK    7  A    between atoms: C_8  and  C_12
REMARK    8  A    between atoms: C_11  and  C_14
REMARK    9  A    between atoms: C_19  and  O_23
REMARK   10  A    between atoms: C_25  and  C_27
REMARK   11  A    between atoms: C_25  and  C_29
REMARK   12  A    between atoms: C_28  and  C_32
REMARK   13  A    between atoms: C_30  and  C_32
REMARK   14  A    between atoms: C_30  and  C_34
REMARK   15  A    between atoms: C_33  and  C_36
REMARK   16  A    between atoms: C_41  and  O_45
REMARK                            x       y       z     vdW  Elec       q    Type
REMARK                         _______ _______ _______ _____ _____    ______ ____
ROOT
ATOM      1  C   UNL     1      25.259   1.150 197.142  0.00  0.00    +0.000 C 
ATOM      2  C   UNL     1      24.079   1.040 196.956  0.00  0.00    +0.000 C 
ENDROOT
BRANCH   2   3
ATOM      3  C   UNL     1      22.571   0.902 196.717  0.00  0.00    +0.000 C 
BRANCH   3   4
ATOM      4  C   UNL     1      21.297   0.783 196.514  0.00  0.00    +0.000 C 
ATOM      5  C   UNL     1      20.408   0.294 197.618  0.00  0.00    +0.000 C 
BRANCH   4   7
ATOM      6  C   UNL     1      20.297   1.273 194.147  0.00  0.00    +0.000 C 
ATOM      7  C   UNL     1      20.757   1.048 195.234  0.00  0.00    +0.000 C 
BRANCH   6   8
ATOM      8  C   UNL     1      19.711   1.558 192.759  0.00  0.00    +0.000 C 
BRANCH   8   9
ATOM      9  C   UNL     1      19.219   1.798 191.583  0.00  0.00    +0.000 C 
ATOM     10  C   UNL     1      17.769   1.534 191.312  0.00  0.00    +0.000 C 
BRANCH   9  12
ATOM     11  C   UNL     1      20.695   2.954 189.755  0.00  0.00    +0.000 C 
ATOM     12  C   UNL     1      20.021   2.424 190.597  0.00  0.00    +0.000 C 
BRANCH  11  14
ATOM     13  O   UNL     1      22.712   4.129 189.305  0.00  0.00    +0.000 OA
ATOM     14  C   UNL     1      21.494   3.591 188.719  0.00  0.00    +0.000 C 
ATOM     15  C   UNL     1      22.901   3.044 188.398  0.00  0.00    +0.000 C 
ATOM     16  C   UNL     1      20.789   4.481 187.639  0.00  0.00    +0.000 C 
ATOM     17  C   UNL     1      23.495   3.466 187.171  0.00  0.00    +0.000 C 
ATOM     18  C   UNL     1      21.776   4.759 186.586  0.00  0.00    +0.000 C 
ATOM     19  C   UNL     1      23.059   4.352 186.172  0.00  0.00    +0.000 C 
ATOM     20  C   UNL     1      23.479   1.790 189.060  0.00  0.00    +0.000 C 
ATOM     21  C   UNL     1      19.629   3.627 187.075  0.00  0.00    +0.000 C 
ATOM     22  C   UNL     1      20.304   5.754 188.365  0.00  0.00    +0.000 C 
BRANCH  19  23
ATOM     23  O   UNL     1      23.924   5.186 185.531  0.00  0.00    +0.000 OA
ATOM     24  H   UNL     1      24.163   5.964 186.066  0.00  0.00    +0.000 HD
ENDBRANCH  19  23
ENDBRANCH  11  14
ENDBRANCH   9  12
ENDBRANCH   8   9
ENDBRANCH   6   8
ENDBRANCH   4   7
ENDBRANCH   3   4
ENDBRANCH   2   3
BRANCH   1  25
ATOM     25  C   UNL     1      26.768   1.290 197.381  0.00  0.00    +0.000 C 
BRANCH  25  26
ATOM     26  C   UNL     1      28.043   1.408 197.582  0.00  0.00    +0.000 C 
ATOM     27  C   UNL     1      28.556   1.702 198.960  0.00  0.00    +0.000 C 
BRANCH  26  29
ATOM     28  C   UNL     1      29.714   1.087 195.597  0.00  0.00    +0.000 C 
ATOM     29  C   UNL     1      28.948   1.233 196.510  0.00  0.00    +0.000 C 
BRANCH  28  30
ATOM     30  C   UNL     1      30.688   0.900 194.426  0.00  0.00    +0.000 C 
BRANCH  30  31
ATOM     31  C   UNL     1      31.509   0.747 193.435  0.00  0.00    +0.000 C 
ATOM     32  C   UNL     1      32.463  -0.408 193.428  0.00  0.00    +0.000 C 
BRANCH  31  34
ATOM     33  C   UNL     1      31.436   2.409 191.411  0.00  0.00    +0.000 C 
ATOM     34  C   UNL     1      31.469   1.643 192.339  0.00  0.00    +0.000 C 
BRANCH  33  36
ATOM     35  O   UNL     1      31.724   4.680 190.757  0.00  0.00    +0.000 OA
ATOM     36  C   UNL     1      31.400   3.339 190.292  0.00  0.00    +0.000 C 
ATOM     37  C   UNL     1      32.685   4.090 189.883  0.00  0.00    +0.000 C 
ATOM     38  C   UNL     1      30.242   3.230 189.238  0.00  0.00    +0.000 C 
ATOM     39  C   UNL     1      32.696   4.708 188.597  0.00  0.00    +0.000 C 
ATOM     40  C   UNL     1      30.622   4.064 188.095  0.00  0.00    +0.000 C 
ATOM     41  C   UNL     1      31.714   4.799 187.597  0.00  0.00    +0.000 C 
ATOM     42  C   UNL     1      34.046   3.863 190.545  0.00  0.00    +0.000 C 
ATOM     43  C   UNL     1      28.960   3.706 189.958  0.00  0.00    +0.000 C 
ATOM     44  C   UNL     1      30.181   1.733 188.838  0.00  0.00    +0.000 C 
BRANCH  41  45
ATOM     45  O   UNL     1      32.014   4.812 186.268  0.00  0.00    +0.000 OA
ATOM     46  H   UNL     1      32.439   3.986 185.975  0.00  0.00    +0.000 HD
ENDBRANCH  41  45
ENDBRANCH  33  36
ENDBRANCH  31  34
ENDBRANCH  30  31
ENDBRANCH  28  30
ENDBRANCH  26  29
ENDBRANCH  25  26
ENDBRANCH   1  25
TORSDOF 16
ENDMDL
MODEL 2
REMARK VINA RESULT:      -7.3     21.714     27.375
REMARK  Name = 448438_Violaxanthin.pdbqt.pdb
REMARK  16 active torsions:
REMARK  status: ('A' for Active; 'I' for Inactive)
REMARK    1  A    between atoms: C_1  and  C_5
REMARK    2  A    between atoms: C_2  and  C_27
REMARK    3  A    between atoms: C_3  and  C_5
REMARK    4  A    between atoms: C_3  and  C_7
REMARK    5  A    between atoms: C_6  and  C_10
REMARK    6  A    between atoms: C_8  and  C_10
REMARK    7  A    between atoms: C_8  and  C_12
REMARK    8  A    between atoms: C_11  and  C_14
REMARK    9  A    between atoms: C_19  and  O_23
REMARK   10  A    between atoms: C_25  and  C_27
REMARK   11  A    between atoms: C_25  and  C_29
REMARK   12  A    between atoms: C_28  and  C_32
REMARK   13  A    between atoms: C_30  and  C_32
REMARK   14  A    between atoms: C_30  and  C_34
REMARK   15  A    between atoms: C_33  and  C_36
REMARK   16  A    between atoms: C_41  and  O_45
REMARK                            x       y       z     vdW  Elec       q    Type
REMARK                         _______ _______ _______ _____ _____    ______ ____
ROOT
ATOM      1  C   UNL     1      21.439   2.121 164.327  0.00  0.00    +0.000 C 
ATOM      2  C   UNL     1      22.114   1.335 163.721  0.00  0.00    +0.000 C 
ENDROOT
BRANCH   2   3
ATOM      3  C   UNL     1      22.976   0.333 162.945  0.00  0.00    +0.000 C 
BRANCH   3   4
ATOM      4  C   UNL     1      23.704  -0.516 162.290  0.00  0.00    +0.000 C 
ATOM      5  C   UNL     1      23.319  -0.908 160.895  0.00  0.00    +0.000 C 
BRANCH   4   7
ATOM      6  C   UNL     1      25.765  -1.638 163.445  0.00  0.00    +0.000 C 
ATOM      7  C   UNL     1      24.818  -1.122 162.915  0.00  0.00    +0.000 C 
BRANCH   6   8
ATOM      8  C   UNL     1      26.972  -2.298 164.122  0.00  0.00    +0.000 C 
BRANCH   8   9
ATOM      9  C   UNL     1      27.993  -2.859 164.694  0.00  0.00    +0.000 C 
ATOM     10  C   UNL     1      27.992  -4.337 164.939  0.00  0.00    +0.000 C 
BRANCH   9  12
ATOM     11  C   UNL     1      30.133  -1.439 165.209  0.00  0.00    +0.000 C 
ATOM     12  C   UNL     1      29.153  -2.095 164.972  0.00  0.00    +0.000 C 
BRANCH  11  14
ATOM     13  O   UNL     1      32.500  -1.314 165.037  0.00  0.00    +0.000 OA
ATOM     14  C   UNL     1      31.304  -0.626 165.499  0.00  0.00    +0.000 C 
ATOM     15  C   UNL     1      32.181  -0.113 164.336  0.00  0.00    +0.000 C 
ATOM     16  C   UNL     1      31.411   0.108 166.878  0.00  0.00    +0.000 C 
ATOM     17  C   UNL     1      33.094   0.942 164.633  0.00  0.00    +0.000 C 
ATOM     18  C   UNL     1      32.533   1.054 166.787  0.00  0.00    +0.000 C 
ATOM     19  C   UNL     1      33.404   1.609 165.829  0.00  0.00    +0.000 C 
ATOM     20  C   UNL     1      31.830  -0.342 162.863  0.00  0.00    +0.000 C 
ATOM     21  C   UNL     1      30.078   0.874 167.058  0.00  0.00    +0.000 C 
ATOM     22  C   UNL     1      31.626  -0.986 167.945  0.00  0.00    +0.000 C 
BRANCH  19  23
ATOM     23  O   UNL     1      34.678   1.987 166.127  0.00  0.00    +0.000 OA
ATOM     24  H   UNL     1      34.750   2.416 166.999  0.00  0.00    +0.000 HD
ENDBRANCH  19  23
ENDBRANCH  11  14
ENDBRANCH   9  12
ENDBRANCH   8   9
ENDBRANCH   6   8
ENDBRANCH   4   7
ENDBRANCH   3   4
ENDBRANCH   2   3
BRANCH   1  25
ATOM     25  C   UNL     1      20.577   3.124 165.103  0.00  0.00    +0.000 C 
BRANCH  25  26
ATOM     26  C   UNL     1      19.848   3.971 165.759  0.00  0.00    +0.000 C 
ATOM     27  C   UNL     1      18.531   3.537 166.330  0.00  0.00    +0.000 C 
BRANCH  26  29
ATOM     28  C   UNL     1      20.696   6.418 166.122  0.00  0.00    +0.000 C 
ATOM     29  C   UNL     1      20.305   5.294 165.957  0.00  0.00    +0.000 C 
BRANCH  28  30
ATOM     30  C   UNL     1      21.199   7.853 166.327  0.00  0.00    +0.000 C 
BRANCH  30  31
ATOM     31  C   UNL     1      21.619   9.066 166.503  0.00  0.00    +0.000 C 
ATOM     32  C   UNL     1      21.062  10.178 165.668  0.00  0.00    +0.000 C 
BRANCH  31  34
ATOM     33  C   UNL     1      23.375   9.577 168.379  0.00  0.00    +0.000 C 
ATOM     34  C   UNL     1      22.569   9.345 167.517  0.00  0.00    +0.000 C 
BRANCH  33  36
ATOM     35  O   UNL     1      23.709  10.550 170.527  0.00  0.00    +0.000 OA
ATOM     36  C   UNL     1      24.352   9.851 169.423  0.00  0.00    +0.000 C 
ATOM     37  C   UNL     1      24.166   9.231 170.824  0.00  0.00    +0.000 C 
ATOM     38  C   UNL     1      25.785  10.354 169.023  0.00  0.00    +0.000 C 
ATOM     39  C   UNL     1      25.297   9.235 171.694  0.00  0.00    +0.000 C 
ATOM     40  C   UNL     1      26.624  10.253 170.219  0.00  0.00    +0.000 C 
ATOM     41  C   UNL     1      26.597   9.742 171.531  0.00  0.00    +0.000 C 
ATOM     42  C   UNL     1      23.034   8.264 171.179  0.00  0.00    +0.000 C 
ATOM     43  C   UNL     1      25.604  11.800 168.509  0.00  0.00    +0.000 C 
ATOM     44  C   UNL     1      26.274   9.384 167.917  0.00  0.00    +0.000 C 
BRANCH  41  45
ATOM     45  O   UNL     1      27.693   9.154 172.086  0.00  0.00    +0.000 OA
ATOM     46  H   UNL     1      27.860   9.462 172.995  0.00  0.00    +0.000 HD
ENDBRANCH  41  45
ENDBRANCH  33  36
ENDBRANCH  31  34
ENDBRANCH  30  31
ENDBRANCH  28  30
ENDBRANCH  26  29
ENDBRANCH  25  26
ENDBRANCH   1  25
TORSDOF 16
ENDMDL
MODEL 3
REMARK VINA RESULT:      -7.1     28.940     32.532
REMARK  Name = 448438_Violaxanthin.pdbqt.pdb
REMARK  16 active torsions:
REMARK  status: ('A' for Active; 'I' for Inactive)
REMARK    1  A    between atoms: C_1  and  C_5
REMARK    2  A    between atoms: C_2  and  C_27
REMARK    3  A    between atoms: C_3  and  C_5
REMARK    4  A    between atoms: C_3  and  C_7
REMARK    5  A    between atoms: C_6  and  C_10
REMARK    6  A    between atoms: C_8  and  C_10
REMARK    7  A    between atoms: C_8  and  C_12
REMARK    8  A    between atoms: C_11  and  C_14
REMARK    9  A    between atoms: C_19  and  O_23
REMARK   10  A    between atoms: C_25  and  C_27
REMARK   11  A    between atoms: C_25  and  C_29
REMARK   12  A    between atoms: C_28  and  C_32
REMARK   13  A    between atoms: C_30  and  C_32
REMARK   14  A    between atoms: C_30  and  C_34
REMARK   15  A    between atoms: C_33  and  C_36
REMARK   16  A    between atoms: C_41  and  O_45
REMARK                            x       y       z     vdW  Elec       q    Type
REMARK                         _______ _______ _______ _____ _____    ______ ____
ROOT
ATOM      1  C   UNL     1      34.172 -18.451 164.292  0.00  0.00    +0.000 C 
ATOM      2  C   UNL     1      33.518 -17.528 163.891  0.00  0.00    +0.000 C 
ENDROOT
BRANCH   2   3
ATOM      3  C   UNL     1      32.684 -16.349 163.378  0.00  0.00    +0.000 C 
BRANCH   3   4
ATOM      4  C   UNL     1      31.982 -15.350 162.943  0.00  0.00    +0.000 C 
ATOM      5  C   UNL     1      31.417 -15.384 161.555  0.00  0.00    +0.000 C 
BRANCH   4   7
ATOM      6  C   UNL     1      31.658 -13.229 164.439  0.00  0.00    +0.000 C 
ATOM      7  C   UNL     1      31.806 -14.203 163.752  0.00  0.00    +0.000 C 
BRANCH   6   8
ATOM      8  C   UNL     1      31.469 -11.987 165.318  0.00  0.00    +0.000 C 
BRANCH   8   9
ATOM      9  C   UNL     1      31.312 -10.935 166.061  0.00  0.00    +0.000 C 
ATOM     10  C   UNL     1      32.249 -10.680 167.201  0.00  0.00    +0.000 C 
BRANCH   9  12
ATOM     11  C   UNL     1      29.503  -9.147 165.435  0.00  0.00    +0.000 C 
ATOM     12  C   UNL     1      30.334  -9.969 165.718  0.00  0.00    +0.000 C 
BRANCH  11  14
ATOM     13  O   UNL     1      27.178  -8.772 165.110  0.00  0.00    +0.000 OA
ATOM     14  C   UNL     1      28.493  -8.149 165.117  0.00  0.00    +0.000 C 
ATOM     15  C   UNL     1      27.396  -7.820 166.151  0.00  0.00    +0.000 C 
ATOM     16  C   UNL     1      28.773  -7.102 163.986  0.00  0.00    +0.000 C 
ATOM     17  C   UNL     1      26.653  -6.620 165.945  0.00  0.00    +0.000 C 
ATOM     18  C   UNL     1      27.728  -6.072 164.071  0.00  0.00    +0.000 C 
ATOM     19  C   UNL     1      26.688  -5.655 164.925  0.00  0.00    +0.000 C 
ATOM     20  C   UNL     1      27.361  -8.433 167.554  0.00  0.00    +0.000 C 
ATOM     21  C   UNL     1      30.158  -6.488 164.308  0.00  0.00    +0.000 C 
ATOM     22  C   UNL     1      28.753  -7.877 162.652  0.00  0.00    +0.000 C 
BRANCH  19  23
ATOM     23  O   UNL     1      25.553  -5.061 164.464  0.00  0.00    +0.000 OA
ATOM     24  H   UNL     1      24.743  -5.516 164.759  0.00  0.00    +0.000 HD
ENDBRANCH  19  23
ENDBRANCH  11  14
ENDBRANCH   9  12
ENDBRANCH   8   9
ENDBRANCH   6   8
ENDBRANCH   4   7
ENDBRANCH   3   4
ENDBRANCH   2   3
BRANCH   1  25
ATOM     25  C   UNL     1      35.008 -19.630 164.805  0.00  0.00    +0.000 C 
BRANCH  25  26
ATOM     26  C   UNL     1      35.713 -20.627 165.239  0.00  0.00    +0.000 C 
ATOM     27  C   UNL     1      35.331 -22.028 164.868  0.00  0.00    +0.000 C 
BRANCH  26  29
ATOM     28  C   UNL     1      37.828 -20.192 166.715  0.00  0.00    +0.000 C 
ATOM     29  C   UNL     1      36.856 -20.391 166.038  0.00  0.00    +0.000 C 
BRANCH  28  30
ATOM     30  C   UNL     1      39.074 -19.943 167.575  0.00  0.00    +0.000 C 
BRANCH  30  31
ATOM     31  C   UNL     1      40.129 -19.734 168.298  0.00  0.00    +0.000 C 
ATOM     32  C   UNL     1      41.311 -19.028 167.707  0.00  0.00    +0.000 C 
BRANCH  31  34
ATOM     33  C   UNL     1      40.155 -20.463 170.814  0.00  0.00    +0.000 C 
ATOM     34  C   UNL     1      40.145 -20.131 169.658  0.00  0.00    +0.000 C 
BRANCH  33  36
ATOM     35  O   UNL     1      38.833 -20.679 172.783  0.00  0.00    +0.000 OA
ATOM     36  C   UNL     1      40.160 -20.863 172.213  0.00  0.00    +0.000 C 
ATOM     37  C   UNL     1      39.267 -22.033 172.676  0.00  0.00    +0.000 C 
ATOM     38  C   UNL     1      41.371 -20.454 173.126  0.00  0.00    +0.000 C 
ATOM     39  C   UNL     1      39.555 -22.610 173.948  0.00  0.00    +0.000 C 
ATOM     40  C   UNL     1      41.258 -21.231 174.362  0.00  0.00    +0.000 C 
ATOM     41  C   UNL     1      40.516 -22.289 174.922  0.00  0.00    +0.000 C 
ATOM     42  C   UNL     1      38.407 -22.871 171.725  0.00  0.00    +0.000 C 
ATOM     43  C   UNL     1      41.252 -18.927 173.336  0.00  0.00    +0.000 C 
ATOM     44  C   UNL     1      42.643 -20.851 172.334  0.00  0.00    +0.000 C 
BRANCH  41  45
ATOM     45  O   UNL     1      41.105 -23.226 175.715  0.00  0.00    +0.000 OA
ATOM     46  H   UNL     1      40.455 -23.817 176.138  0.00  0.00    +0.000 HD
ENDBRANCH  41  45
ENDBRANCH  33  36
ENDBRANCH  31  34
ENDBRANCH  30  31
ENDBRANCH  28  30
ENDBRANCH  26  29
ENDBRANCH  25  26
ENDBRANCH   1  25
TORSDOF 16
ENDMDL
MODEL 4
REMARK VINA RESULT:      -7.1     21.980     28.012
REMARK  Name = 448438_Violaxanthin.pdbqt.pdb
REMARK  16 active torsions:
REMARK  status: ('A' for Active; 'I' for Inactive)
REMARK    1  A    between atoms: C_1  and  C_5
REMARK    2  A    between atoms: C_2  and  C_27
REMARK    3  A    between atoms: C_3  and  C_5
REMARK    4  A    between atoms: C_3  and  C_7
REMARK    5  A    between atoms: C_6  and  C_10
REMARK    6  A    between atoms: C_8  and  C_10
REMARK    7  A    between atoms: C_8  and  C_12
REMARK    8  A    between atoms: C_11  and  C_14
REMARK    9  A    between atoms: C_19  and  O_23
REMARK   10  A    between atoms: C_25  and  C_27
REMARK   11  A    between atoms: C_25  and  C_29
REMARK   12  A    between atoms: C_28  and  C_32
REMARK   13  A    between atoms: C_30  and  C_32
REMARK   14  A    between atoms: C_30  and  C_34
REMARK   15  A    between atoms: C_33  and  C_36
REMARK   16  A    between atoms: C_41  and  O_45
REMARK                            x       y       z     vdW  Elec       q    Type
REMARK                         _______ _______ _______ _____ _____    ______ ____
ROOT
ATOM      1  C   UNL     1      21.449   2.092 164.330  0.00  0.00    +0.000 C 
ATOM      2  C   UNL     1      22.136   1.302 163.743  0.00  0.00    +0.000 C 
ENDROOT
BRANCH   2   3
ATOM      3  C   UNL     1      23.015   0.296 162.992  0.00  0.00    +0.000 C 
BRANCH   3   4
ATOM      4  C   UNL     1      23.757  -0.557 162.359  0.00  0.00    +0.000 C 
ATOM      5  C   UNL     1      23.393  -0.972 160.965  0.00  0.00    +0.000 C 
BRANCH   4   7
ATOM      6  C   UNL     1      25.813  -1.644 163.556  0.00  0.00    +0.000 C 
ATOM      7  C   UNL     1      24.869  -1.145 163.006  0.00  0.00    +0.000 C 
BRANCH   6   8
ATOM      8  C   UNL     1      27.019  -2.283 164.256  0.00  0.00    +0.000 C 
BRANCH   8   9
ATOM      9  C   UNL     1      28.041  -2.822 164.845  0.00  0.00    +0.000 C 
ATOM     10  C   UNL     1      28.859  -2.016 165.808  0.00  0.00    +0.000 C 
BRANCH   9  12
ATOM     11  C   UNL     1      28.527  -5.377 164.533  0.00  0.00    +0.000 C 
ATOM     12  C   UNL     1      28.307  -4.203 164.673  0.00  0.00    +0.000 C 
BRANCH  11  14
ATOM     13  O   UNL     1      29.342  -7.061 163.067  0.00  0.00    +0.000 OA
ATOM     14  C   UNL     1      28.779  -6.802 164.384  0.00  0.00    +0.000 C 
ATOM     15  C   UNL     1      30.224  -7.300 164.163  0.00  0.00    +0.000 C 
ATOM     16  C   UNL     1      27.720  -7.832 164.903  0.00  0.00    +0.000 C 
ATOM     17  C   UNL     1      30.466  -8.691 164.364  0.00  0.00    +0.000 C 
ATOM     18  C   UNL     1      28.347  -9.161 164.875  0.00  0.00    +0.000 C 
ATOM     19  C   UNL     1      29.611  -9.756 164.695  0.00  0.00    +0.000 C 
ATOM     20  C   UNL     1      31.439  -6.368 164.181  0.00  0.00    +0.000 C 
ATOM     21  C   UNL     1      27.403  -7.418 166.361  0.00  0.00    +0.000 C 
ATOM     22  C   UNL     1      26.498  -7.719 163.966  0.00  0.00    +0.000 C 
BRANCH  19  23
ATOM     23  O   UNL     1      29.770 -10.994 164.151  0.00  0.00    +0.000 OA
ATOM     24  H   UNL     1      30.683 -11.162 163.857  0.00  0.00    +0.000 HD
ENDBRANCH  19  23
ENDBRANCH  11  14
ENDBRANCH   9  12
ENDBRANCH   8   9
ENDBRANCH   6   8
ENDBRANCH   4   7
ENDBRANCH   3   4
ENDBRANCH   2   3
BRANCH   1  25
ATOM     25  C   UNL     1      20.569   3.099 165.081  0.00  0.00    +0.000 C 
BRANCH  25  26
ATOM     26  C   UNL     1      19.826   3.951 165.715  0.00  0.00    +0.000 C 
ATOM     27  C   UNL     1      18.499   3.519 166.262  0.00  0.00    +0.000 C 
BRANCH  26  29
ATOM     28  C   UNL     1      20.664   6.401 166.076  0.00  0.00    +0.000 C 
ATOM     29  C   UNL     1      20.278   5.276 165.912  0.00  0.00    +0.000 C 
BRANCH  28  30
ATOM     30  C   UNL     1      21.162   7.838 166.280  0.00  0.00    +0.000 C 
BRANCH  30  31
ATOM     31  C   UNL     1      21.587   9.050 166.453  0.00  0.00    +0.000 C 
ATOM     32  C   UNL     1      21.030  10.163 165.620  0.00  0.00    +0.000 C 
BRANCH  31  34
ATOM     33  C   UNL     1      23.358   9.560 168.316  0.00  0.00    +0.000 C 
ATOM     34  C   UNL     1      22.543   9.327 167.462  0.00  0.00    +0.000 C 
BRANCH  33  36
ATOM     35  O   UNL     1      23.742  10.624 170.411  0.00  0.00    +0.000 OA
ATOM     36  C   UNL     1      24.349   9.842 169.344  0.00  0.00    +0.000 C 
ATOM     37  C   UNL     1      24.139   9.303 170.774  0.00  0.00    +0.000 C 
ATOM     38  C   UNL     1      25.803  10.258 168.918  0.00  0.00    +0.000 C 
ATOM     39  C   UNL     1      25.272   9.300 171.642  0.00  0.00    +0.000 C 
ATOM     40  C   UNL     1      26.640  10.180 170.117  0.00  0.00    +0.000 C 
ATOM     41  C   UNL     1      26.593   9.738 171.453  0.00  0.00    +0.000 C 
ATOM     42  C   UNL     1      22.965   8.408 171.179  0.00  0.00    +0.000 C 
ATOM     43  C   UNL     1      25.686  11.683 168.330  0.00  0.00    +0.000 C 
ATOM     44  C   UNL     1      26.244   9.211 167.862  0.00  0.00    +0.000 C 
BRANCH  41  45
ATOM     45  O   UNL     1      27.663   9.129 172.037  0.00  0.00    +0.000 OA
ATOM     46  H   UNL     1      28.203   9.749 172.561  0.00  0.00    +0.000 HD
ENDBRANCH  41  45
ENDBRANCH  33  36
ENDBRANCH  31  34
ENDBRANCH  30  31
ENDBRANCH  28  30
ENDBRANCH  26  29
ENDBRANCH  25  26
ENDBRANCH   1  25
TORSDOF 16
ENDMDL
MODEL 5
REMARK VINA RESULT:      -7.0      6.173      7.844
REMARK  Name = 448438_Violaxanthin.pdbqt.pdb
REMARK  16 active torsions:
REMARK  status: ('A' for Active; 'I' for Inactive)
REMARK    1  A    between atoms: C_1  and  C_5
REMARK    2  A    between atoms: C_2  and  C_27
REMARK    3  A    between atoms: C_3  and  C_5
REMARK    4  A    between atoms: C_3  and  C_7
REMARK    5  A    between atoms: C_6  and  C_10
REMARK    6  A    between atoms: C_8  and  C_10
REMARK    7  A    between atoms: C_8  and  C_12
REMARK    8  A    between atoms: C_11  and  C_14
REMARK    9  A    between atoms: C_19  and  O_23
REMARK   10  A    between atoms: C_25  and  C_27
REMARK   11  A    between atoms: C_25  and  C_29
REMARK   12  A    between atoms: C_28  and  C_32
REMARK   13  A    between atoms: C_30  and  C_32
REMARK   14  A    between atoms: C_30  and  C_34
REMARK   15  A    between atoms: C_33  and  C_36
REMARK   16  A    between atoms: C_41  and  O_45
REMARK                            x       y       z     vdW  Elec       q    Type
REMARK                         _______ _______ _______ _____ _____    ______ ____
ROOT
ATOM      1  C   UNL     1      28.975   3.584 195.456  0.00  0.00    +0.000 C 
ATOM      2  C   UNL     1      28.821   3.162 194.344  0.00  0.00    +0.000 C 
ENDROOT
BRANCH   2   3
ATOM      3  C   UNL     1      28.626   2.620 192.923  0.00  0.00    +0.000 C 
BRANCH   3   4
ATOM      4  C   UNL     1      28.459   2.160 191.723  0.00  0.00    +0.000 C 
ATOM      5  C   UNL     1      29.359   1.078 191.207  0.00  0.00    +0.000 C 
BRANCH   4   7
ATOM      6  C   UNL     1      26.639   3.207 190.162  0.00  0.00    +0.000 C 
ATOM      7  C   UNL     1      27.475   2.726 190.879  0.00  0.00    +0.000 C 
BRANCH   6   8
ATOM      8  C   UNL     1      25.571   3.819 189.247  0.00  0.00    +0.000 C 
BRANCH   8   9
ATOM      9  C   UNL     1      24.665   4.334 188.475  0.00  0.00    +0.000 C 
ATOM     10  C   UNL     1      25.036   5.418 187.509  0.00  0.00    +0.000 C 
BRANCH   9  12
ATOM     11  C   UNL     1      22.251   3.318 188.452  0.00  0.00    +0.000 C 
ATOM     12  C   UNL     1      23.358   3.787 188.458  0.00  0.00    +0.000 C 
BRANCH  11  14
ATOM     13  O   UNL     1      21.009   1.303 188.236  0.00  0.00    +0.000 OA
ATOM     14  C   UNL     1      20.917   2.737 188.465  0.00  0.00    +0.000 C 
ATOM     15  C   UNL     1      20.556   1.684 189.534  0.00  0.00    +0.000 C 
ATOM     16  C   UNL     1      19.744   3.484 187.744  0.00  0.00    +0.000 C 
ATOM     17  C   UNL     1      19.170   1.405 189.723  0.00  0.00    +0.000 C 
ATOM     18  C   UNL     1      18.492   2.828 188.147  0.00  0.00    +0.000 C 
ATOM     19  C   UNL     1      18.018   1.881 189.076  0.00  0.00    +0.000 C 
ATOM     20  C   UNL     1      21.512   1.274 190.657  0.00  0.00    +0.000 C 
ATOM     21  C   UNL     1      19.780   4.940 188.269  0.00  0.00    +0.000 C 
ATOM     22  C   UNL     1      20.021   3.382 186.229  0.00  0.00    +0.000 C 
BRANCH  19  23
ATOM     23  O   UNL     1      16.955   1.069 188.820  0.00  0.00    +0.000 OA
ATOM     24  H   UNL     1      17.222   0.195 188.483  0.00  0.00    +0.000 HD
ENDBRANCH  19  23
ENDBRANCH  11  14
ENDBRANCH   9  12
ENDBRANCH   8   9
ENDBRANCH   6   8
ENDBRANCH   4   7
ENDBRANCH   3   4
ENDBRANCH   2   3
BRANCH   1  25
ATOM     25  C   UNL     1      29.172   4.125 196.878  0.00  0.00    +0.000 C 
BRANCH  25  26
ATOM     26  C   UNL     1      29.337   4.582 198.079  0.00  0.00    +0.000 C 
ATOM     27  C   UNL     1      29.159   3.669 199.256  0.00  0.00    +0.000 C 
BRANCH  26  29
ATOM     28  C   UNL     1      30.032   7.075 198.449  0.00  0.00    +0.000 C 
ATOM     29  C   UNL     1      29.711   5.931 198.278  0.00  0.00    +0.000 C 
BRANCH  28  30
ATOM     30  C   UNL     1      30.447   8.535 198.671  0.00  0.00    +0.000 C 
BRANCH  30  31
ATOM     31  C   UNL     1      30.799   9.770 198.853  0.00  0.00    +0.000 C 
ATOM     32  C   UNL     1      31.025  10.284 200.242  0.00  0.00    +0.000 C 
BRANCH  31  34
ATOM     33  C   UNL     1      31.192  11.336 196.790  0.00  0.00    +0.000 C 
ATOM     34  C   UNL     1      31.014  10.616 197.737  0.00  0.00    +0.000 C 
BRANCH  33  36
ATOM     35  O   UNL     1      32.675  12.902 195.782  0.00  0.00    +0.000 OA
ATOM     36  C   UNL     1      31.401  12.211 195.646  0.00  0.00    +0.000 C 
ATOM     37  C   UNL     1      32.602  11.966 194.708  0.00  0.00    +0.000 C 
ATOM     38  C   UNL     1      30.202  13.065 195.100  0.00  0.00    +0.000 C 
ATOM     39  C   UNL     1      32.575  12.607 193.434  0.00  0.00    +0.000 C 
ATOM     40  C   UNL     1      30.610  13.596 193.798  0.00  0.00    +0.000 C 
ATOM     41  C   UNL     1      31.644  13.482 192.849  0.00  0.00    +0.000 C 
ATOM     42  C   UNL     1      33.572  10.792 194.862  0.00  0.00    +0.000 C 
ATOM     43  C   UNL     1      29.935  14.156 196.163  0.00  0.00    +0.000 C 
ATOM     44  C   UNL     1      29.018  12.075 194.951  0.00  0.00    +0.000 C 
BRANCH  41  45
ATOM     45  O   UNL     1      31.384  13.496 191.512  0.00  0.00    +0.000 OA
ATOM     46  H   UNL     1      31.863  14.207 191.048  0.00  0.00    +0.000 HD
ENDBRANCH  41  45
ENDBRANCH  33  36
ENDBRANCH  31  34
ENDBRANCH  30  31
ENDBRANCH  28  30
ENDBRANCH  26  29
ENDBRANCH  25  26
ENDBRANCH   1  25
TORSDOF 16
ENDMDL
MODEL 6
REMARK VINA RESULT:      -6.7      3.333      4.900
REMARK  Name = 448438_Violaxanthin.pdbqt.pdb
REMARK  16 active torsions:
REMARK  status: ('A' for Active; 'I' for Inactive)
REMARK    1  A    between atoms: C_1  and  C_5
REMARK    2  A    between atoms: C_2  and  C_27
REMARK    3  A    between atoms: C_3  and  C_5
REMARK    4  A    between atoms: C_3  and  C_7
REMARK    5  A    between atoms: C_6  and  C_10
REMARK    6  A    between atoms: C_8  and  C_10
REMARK    7  A    between atoms: C_8  and  C_12
REMARK    8  A    between atoms: C_11  and  C_14
REMARK    9  A    between atoms: C_19  and  O_23
REMARK   10  A    between atoms: C_25  and  C_27
REMARK   11  A    between atoms: C_25  and  C_29
REMARK   12  A    between atoms: C_28  and  C_32
REMARK   13  A    between atoms: C_30  and  C_32
REMARK   14  A    between atoms: C_30  and  C_34
REMARK   15  A    between atoms: C_33  and  C_36
REMARK   16  A    between atoms: C_41  and  O_45
REMARK                            x       y       z     vdW  Elec       q    Type
REMARK                         _______ _______ _______ _____ _____    ______ ____
ROOT
ATOM      1  C   UNL     1      28.542   0.779 193.097  0.00  0.00    +0.000 C 
ATOM      2  C   UNL     1      27.471   1.051 193.566  0.00  0.00    +0.000 C 
ENDROOT
BRANCH   2   3
ATOM      3  C   UNL     1      26.104   1.401 194.164  0.00  0.00    +0.000 C 
BRANCH   3   4
ATOM      4  C   UNL     1      24.949   1.700 194.670  0.00  0.00    +0.000 C 
ATOM      5  C   UNL     1      24.754   1.663 196.156  0.00  0.00    +0.000 C 
BRANCH   4   7
ATOM      6  C   UNL     1      22.932   2.242 193.096  0.00  0.00    +0.000 C 
ATOM      7  C   UNL     1      23.858   1.993 193.819  0.00  0.00    +0.000 C 
BRANCH   6   8
ATOM      8  C   UNL     1      21.748   2.562 192.175  0.00  0.00    +0.000 C 
BRANCH   8   9
ATOM      9  C   UNL     1      20.745   2.831 191.398  0.00  0.00    +0.000 C 
ATOM     10  C   UNL     1      19.348   2.779 191.936  0.00  0.00    +0.000 C 
BRANCH   9  12
ATOM     11  C   UNL     1      21.171   3.678 188.956  0.00  0.00    +0.000 C 
ATOM     12  C   UNL     1      20.979   3.292 190.078  0.00  0.00    +0.000 C 
BRANCH  11  14
ATOM     13  O   UNL     1      21.075   5.548 187.492  0.00  0.00    +0.000 OA
ATOM     14  C   UNL     1      21.386   4.129 187.590  0.00  0.00    +0.000 C 
ATOM     15  C   UNL     1      22.449   5.211 187.304  0.00  0.00    +0.000 C 
ATOM     16  C   UNL     1      20.916   3.230 186.397  0.00  0.00    +0.000 C 
ATOM     17  C   UNL     1      22.861   5.371 185.948  0.00  0.00    +0.000 C 
ATOM     18  C   UNL     1      21.497   3.789 185.168  0.00  0.00    +0.000 C 
ATOM     19  C   UNL     1      22.447   4.746 184.760  0.00  0.00    +0.000 C 
ATOM     20  C   UNL     1      23.369   5.783 188.387  0.00  0.00    +0.000 C 
ATOM     21  C   UNL     1      21.497   1.821 186.671  0.00  0.00    +0.000 C 
ATOM     22  C   UNL     1      19.373   3.257 186.405  0.00  0.00    +0.000 C 
BRANCH  19  23
ATOM     23  O   UNL     1      22.339   5.436 183.591  0.00  0.00    +0.000 OA
ATOM     24  H   UNL     1      22.874   5.050 182.874  0.00  0.00    +0.000 HD
ENDBRANCH  19  23
ENDBRANCH  11  14
ENDBRANCH   9  12
ENDBRANCH   8   9
ENDBRANCH   6   8
ENDBRANCH   4   7
ENDBRANCH   3   4
ENDBRANCH   2   3
BRANCH   1  25
ATOM     25  C   UNL     1      29.910   0.429 192.499  0.00  0.00    +0.000 C 
BRANCH  25  26
ATOM     26  C   UNL     1      31.066   0.134 191.993  0.00  0.00    +0.000 C 
ATOM     27  C   UNL     1      31.166  -0.904 190.915  0.00  0.00    +0.000 C 
BRANCH  26  29
ATOM     28  C   UNL     1      33.214   1.377 192.816  0.00  0.00    +0.000 C 
ATOM     29  C   UNL     1      32.226   0.808 192.438  0.00  0.00    +0.000 C 
BRANCH  28  30
ATOM     30  C   UNL     1      34.480   2.098 193.299  0.00  0.00    +0.000 C 
BRANCH  30  31
ATOM     31  C   UNL     1      35.550   2.702 193.709  0.00  0.00    +0.000 C 
ATOM     32  C   UNL     1      36.366   2.108 194.816  0.00  0.00    +0.000 C 
BRANCH  31  34
ATOM     33  C   UNL     1      36.334   4.916 192.548  0.00  0.00    +0.000 C 
ATOM     34  C   UNL     1      35.972   3.899 193.079  0.00  0.00    +0.000 C 
BRANCH  33  36
ATOM     35  O   UNL     1      37.746   6.822 192.762  0.00  0.00    +0.000 OA
ATOM     36  C   UNL     1      36.777   6.147 191.910  0.00  0.00    +0.000 C 
ATOM     37  C   UNL     1      38.263   6.318 191.532  0.00  0.00    +0.000 C 
ATOM     38  C   UNL     1      35.723   7.065 191.194  0.00  0.00    +0.000 C 
ATOM     39  C   UNL     1      38.586   7.362 190.614  0.00  0.00    +0.000 C 
ATOM     40  C   UNL     1      36.473   8.042 190.401  0.00  0.00    +0.000 C 
ATOM     41  C   UNL     1      37.786   8.329 189.982  0.00  0.00    +0.000 C 
ATOM     42  C   UNL     1      39.317   5.225 191.721  0.00  0.00    +0.000 C 
ATOM     43  C   UNL     1      34.871   7.697 192.318  0.00  0.00    +0.000 C 
ATOM     44  C   UNL     1      34.900   6.121 190.280  0.00  0.00    +0.000 C 
BRANCH  41  45
ATOM     45  O   UNL     1      38.044   8.794 188.728  0.00  0.00    +0.000 OA
ATOM     46  H   UNL     1      38.056   9.768 188.688  0.00  0.00    +0.000 HD
ENDBRANCH  41  45
ENDBRANCH  33  36
ENDBRANCH  31  34
ENDBRANCH  30  31
ENDBRANCH  28  30
ENDBRANCH  26  29
ENDBRANCH  25  26
ENDBRANCH   1  25
TORSDOF 16
ENDMDL
MODEL 7
REMARK VINA RESULT:      -6.5     28.587     31.967
REMARK  Name = 448438_Violaxanthin.pdbqt.pdb
REMARK  16 active torsions:
REMARK  status: ('A' for Active; 'I' for Inactive)
REMARK    1  A    between atoms: C_1  and  C_5
REMARK    2  A    between atoms: C_2  and  C_27
REMARK    3  A    between atoms: C_3  and  C_5
REMARK    4  A    between atoms: C_3  and  C_7
REMARK    5  A    between atoms: C_6  and  C_10
REMARK    6  A    between atoms: C_8  and  C_10
REMARK    7  A    between atoms: C_8  and  C_12
REMARK    8  A    between atoms: C_11  and  C_14
REMARK    9  A    between atoms: C_19  and  O_23
REMARK   10  A    between atoms: C_25  and  C_27
REMARK   11  A    between atoms: C_25  and  C_29
REMARK   12  A    between atoms: C_28  and  C_32
REMARK   13  A    between atoms: C_30  and  C_32
REMARK   14  A    between atoms: C_30  and  C_34
REMARK   15  A    between atoms: C_33  and  C_36
REMARK   16  A    between atoms: C_41  and  O_45
REMARK                            x       y       z     vdW  Elec       q    Type
REMARK                         _______ _______ _______ _____ _____    ______ ____
ROOT
ATOM      1  C   UNL     1      34.637 -29.056 187.812  0.00  0.00    +0.000 C 
ATOM      2  C   UNL     1      33.916 -29.516 186.970  0.00  0.00    +0.000 C 
ENDROOT
BRANCH   2   3
ATOM      3  C   UNL     1      32.997 -30.102 185.893  0.00  0.00    +0.000 C 
BRANCH   3   4
ATOM      4  C   UNL     1      32.219 -30.595 184.981  0.00  0.00    +0.000 C 
ATOM      5  C   UNL     1      30.782 -30.882 185.302  0.00  0.00    +0.000 C 
BRANCH   4   7
ATOM      6  C   UNL     1      33.184 -31.207 182.628  0.00  0.00    +0.000 C 
ATOM      7  C   UNL     1      32.741 -30.927 183.709  0.00  0.00    +0.000 C 
BRANCH   6   8
ATOM      8  C   UNL     1      33.749 -31.565 181.248  0.00  0.00    +0.000 C 
BRANCH   8   9
ATOM      9  C   UNL     1      34.223 -31.868 180.079  0.00  0.00    +0.000 C 
ATOM     10  C   UNL     1      34.406 -33.304 179.697  0.00  0.00    +0.000 C 
BRANCH   9  12
ATOM     11  C   UNL     1      34.644 -29.984 178.308  0.00  0.00    +0.000 C 
ATOM     12  C   UNL     1      34.451 -30.845 179.125  0.00  0.00    +0.000 C 
BRANCH  11  14
ATOM     13  O   UNL     1      34.960 -29.578 175.988  0.00  0.00    +0.000 OA
ATOM     14  C   UNL     1      34.878 -28.959 177.302  0.00  0.00    +0.000 C 
ATOM     15  C   UNL     1      33.831 -28.730 176.191  0.00  0.00    +0.000 C 
ATOM     16  C   UNL     1      35.901 -27.810 177.596  0.00  0.00    +0.000 C 
ATOM     17  C   UNL     1      33.931 -27.515 175.451  0.00  0.00    +0.000 C 
ATOM     18  C   UNL     1      35.732 -26.792 176.549  0.00  0.00    +0.000 C 
ATOM     19  C   UNL     1      34.855 -26.457 175.498  0.00  0.00    +0.000 C 
ATOM     20  C   UNL     1      32.494 -29.473 176.139  0.00  0.00    +0.000 C 
ATOM     21  C   UNL     1      35.504 -27.230 178.976  0.00  0.00    +0.000 C 
ATOM     22  C   UNL     1      37.303 -28.455 177.593  0.00  0.00    +0.000 C 
BRANCH  19  23
ATOM     23  O   UNL     1      35.271 -25.821 174.369  0.00  0.00    +0.000 OA
ATOM     24  H   UNL     1      35.013 -24.882 174.348  0.00  0.00    +0.000 HD
ENDBRANCH  19  23
ENDBRANCH  11  14
ENDBRANCH   9  12
ENDBRANCH   8   9
ENDBRANCH   6   8
ENDBRANCH   4   7
ENDBRANCH   3   4
ENDBRANCH   2   3
BRANCH   1  25
ATOM     25  C   UNL     1      35.557 -28.469 188.889  0.00  0.00    +0.000 C 
BRANCH  25  26
ATOM     26  C   UNL     1      36.334 -27.973 189.800  0.00  0.00    +0.000 C 
ATOM     27  C   UNL     1      37.330 -28.855 190.492  0.00  0.00    +0.000 C 
BRANCH  26  29
ATOM     28  C   UNL     1      36.200 -25.429 190.389  0.00  0.00    +0.000 C 
ATOM     29  C   UNL     1      36.262 -26.598 190.121  0.00  0.00    +0.000 C 
BRANCH  28  30
ATOM     30  C   UNL     1      36.123 -23.934 190.726  0.00  0.00    +0.000 C 
BRANCH  30  31
ATOM     31  C   UNL     1      36.055 -22.671 191.007  0.00  0.00    +0.000 C 
ATOM     32  C   UNL     1      34.816 -22.112 191.639  0.00  0.00    +0.000 C 
BRANCH  31  34
ATOM     33  C   UNL     1      38.112 -21.113 190.556  0.00  0.00    +0.000 C 
ATOM     34  C   UNL     1      37.168 -21.830 190.761  0.00  0.00    +0.000 C 
BRANCH  33  36
ATOM     35  O   UNL     1      40.270 -20.472 191.334  0.00  0.00    +0.000 OA
ATOM     36  C   UNL     1      39.255 -20.244 190.315  0.00  0.00    +0.000 C 
ATOM     37  C   UNL     1      40.635 -20.865 190.013  0.00  0.00    +0.000 C 
ATOM     38  C   UNL     1      39.011 -18.749 189.899  0.00  0.00    +0.000 C 
ATOM     39  C   UNL     1      41.626 -20.007 189.449  0.00  0.00    +0.000 C 
ATOM     40  C   UNL     1      40.295 -18.218 189.436  0.00  0.00    +0.000 C 
ATOM     41  C   UNL     1      41.603 -18.639 189.128  0.00  0.00    +0.000 C 
ATOM     42  C   UNL     1      40.875 -22.370 189.874  0.00  0.00    +0.000 C 
ATOM     43  C   UNL     1      38.458 -18.039 191.155  0.00  0.00    +0.000 C 
ATOM     44  C   UNL     1      37.981 -18.802 188.741  0.00  0.00    +0.000 C 
BRANCH  41  45
ATOM     45  O   UNL     1      42.286 -18.118 188.072  0.00  0.00    +0.000 OA
ATOM     46  H   UNL     1      41.837 -18.281 187.222  0.00  0.00    +0.000 HD
ENDBRANCH  41  45
ENDBRANCH  33  36
ENDBRANCH  31  34
ENDBRANCH  30  31
ENDBRANCH  28  30
ENDBRANCH  26  29
ENDBRANCH  25  26
ENDBRANCH   1  25
TORSDOF 16
ENDMDL
MODEL 8
REMARK VINA RESULT:      -6.5     29.464     33.037
REMARK  Name = 448438_Violaxanthin.pdbqt.pdb
REMARK  16 active torsions:
REMARK  status: ('A' for Active; 'I' for Inactive)
REMARK    1  A    between atoms: C_1  and  C_5
REMARK    2  A    between atoms: C_2  and  C_27
REMARK    3  A    between atoms: C_3  and  C_5
REMARK    4  A    between atoms: C_3  and  C_7
REMARK    5  A    between atoms: C_6  and  C_10
REMARK    6  A    between atoms: C_8  and  C_10
REMARK    7  A    between atoms: C_8  and  C_12
REMARK    8  A    between atoms: C_11  and  C_14
REMARK    9  A    between atoms: C_19  and  O_23
REMARK   10  A    between atoms: C_25  and  C_27
REMARK   11  A    between atoms: C_25  and  C_29
REMARK   12  A    between atoms: C_28  and  C_32
REMARK   13  A    between atoms: C_30  and  C_32
REMARK   14  A    between atoms: C_30  and  C_34
REMARK   15  A    between atoms: C_33  and  C_36
REMARK   16  A    between atoms: C_41  and  O_45
REMARK                            x       y       z     vdW  Elec       q    Type
REMARK                         _______ _______ _______ _____ _____    ______ ____
ROOT
ATOM      1  C   UNL     1      34.191 -18.110 164.049  0.00  0.00    +0.000 C 
ATOM      2  C   UNL     1      33.834 -17.215 163.336  0.00  0.00    +0.000 C 
ENDROOT
BRANCH   2   3
ATOM      3  C   UNL     1      33.379 -16.071 162.422  0.00  0.00    +0.000 C 
BRANCH   3   4
ATOM      4  C   UNL     1      32.995 -15.102 161.652  0.00  0.00    +0.000 C 
ATOM      5  C   UNL     1      33.754 -14.805 160.393  0.00  0.00    +0.000 C 
BRANCH   4   7
ATOM      6  C   UNL     1      30.981 -13.590 162.356  0.00  0.00    +0.000 C 
ATOM      7  C   UNL     1      31.906 -14.284 162.032  0.00  0.00    +0.000 C 
BRANCH   6   8
ATOM      8  C   UNL     1      29.799 -12.704 162.771  0.00  0.00    +0.000 C 
BRANCH   8   9
ATOM      9  C   UNL     1      28.801 -11.953 163.119  0.00  0.00    +0.000 C 
ATOM     10  C   UNL     1      27.422 -12.531 163.196  0.00  0.00    +0.000 C 
BRANCH   9  12
ATOM     11  C   UNL     1      29.240  -9.491 163.898  0.00  0.00    +0.000 C 
ATOM     12  C   UNL     1      29.036 -10.621 163.545  0.00  0.00    +0.000 C 
BRANCH  11  14
ATOM     13  O   UNL     1      30.646  -8.086 165.202  0.00  0.00    +0.000 OA
ATOM     14  C   UNL     1      29.500  -8.118 164.306  0.00  0.00    +0.000 C 
ATOM     15  C   UNL     1      30.845  -7.457 163.937  0.00  0.00    +0.000 C 
ATOM     16  C   UNL     1      28.299  -7.183 164.678  0.00  0.00    +0.000 C 
ATOM     17  C   UNL     1      30.918  -6.037 164.049  0.00  0.00    +0.000 C 
ATOM     18  C   UNL     1      28.823  -5.813 164.777  0.00  0.00    +0.000 C 
ATOM     19  C   UNL     1      29.989  -5.078 164.488  0.00  0.00    +0.000 C 
ATOM     20  C   UNL     1      31.904  -8.146 163.073  0.00  0.00    +0.000 C 
ATOM     21  C   UNL     1      27.297  -7.290 163.503  0.00  0.00    +0.000 C 
ATOM     22  C   UNL     1      27.725  -7.710 166.010  0.00  0.00    +0.000 C 
BRANCH  19  23
ATOM     23  O   UNL     1      30.373  -3.993 165.215  0.00  0.00    +0.000 OA
ATOM     24  H   UNL     1      29.673  -3.319 165.283  0.00  0.00    +0.000 HD
ENDBRANCH  19  23
ENDBRANCH  11  14
ENDBRANCH   9  12
ENDBRANCH   8   9
ENDBRANCH   6   8
ENDBRANCH   4   7
ENDBRANCH   3   4
ENDBRANCH   2   3
BRANCH   1  25
ATOM     25  C   UNL     1      34.647 -19.255 164.963  0.00  0.00    +0.000 C 
BRANCH  25  26
ATOM     26  C   UNL     1      35.033 -20.222 165.735  0.00  0.00    +0.000 C 
ATOM     27  C   UNL     1      34.127 -21.393 165.972  0.00  0.00    +0.000 C 
BRANCH  26  29
ATOM     28  C   UNL     1      37.404 -20.147 166.836  0.00  0.00    +0.000 C 
ATOM     29  C   UNL     1      36.314 -20.184 166.331  0.00  0.00    +0.000 C 
BRANCH  28  30
ATOM     30  C   UNL     1      38.796 -20.096 167.478  0.00  0.00    +0.000 C 
BRANCH  30  31
ATOM     31  C   UNL     1      39.975 -20.054 168.016  0.00  0.00    +0.000 C 
ATOM     32  C   UNL     1      41.164 -19.686 167.182  0.00  0.00    +0.000 C 
BRANCH  31  34
ATOM     33  C   UNL     1      40.267 -20.527 170.576  0.00  0.00    +0.000 C 
ATOM     34  C   UNL     1      40.129 -20.309 169.401  0.00  0.00    +0.000 C 
BRANCH  33  36
ATOM     35  O   UNL     1      39.452 -20.031 172.758  0.00  0.00    +0.000 OA
ATOM     36  C   UNL     1      40.438 -20.786 171.998  0.00  0.00    +0.000 C 
ATOM     37  C   UNL     1      39.295 -21.448 172.796  0.00  0.00    +0.000 C 
ATOM     38  C   UNL     1      41.887 -20.840 172.601  0.00  0.00    +0.000 C 
ATOM     39  C   UNL     1      39.624 -21.993 174.073  0.00  0.00    +0.000 C 
ATOM     40  C   UNL     1      41.771 -21.406 173.947  0.00  0.00    +0.000 C 
ATOM     41  C   UNL     1      40.829 -22.021 174.794  0.00  0.00    +0.000 C 
ATOM     42  C   UNL     1      37.988 -21.929 172.163  0.00  0.00    +0.000 C 
ATOM     43  C   UNL     1      42.416 -19.388 172.579  0.00  0.00    +0.000 C 
ATOM     44  C   UNL     1      42.692 -21.783 171.669  0.00  0.00    +0.000 C 
BRANCH  41  45
ATOM     45  O   UNL     1      41.177 -23.054 175.610  0.00  0.00    +0.000 OA
ATOM     46  H   UNL     1      41.276 -23.893 175.125  0.00  0.00    +0.000 HD
ENDBRANCH  41  45
ENDBRANCH  33  36
ENDBRANCH  31  34
ENDBRANCH  30  31
ENDBRANCH  28  30
ENDBRANCH  26  29
ENDBRANCH  25  26
ENDBRANCH   1  25
TORSDOF 16
ENDMDL
MODEL 9
REMARK VINA RESULT:      -6.4     26.531     31.817
REMARK  Name = 448438_Violaxanthin.pdbqt.pdb
REMARK  16 active torsions:
REMARK  status: ('A' for Active; 'I' for Inactive)
REMARK    1  A    between atoms: C_1  and  C_5
REMARK    2  A    between atoms: C_2  and  C_27
REMARK    3  A    between atoms: C_3  and  C_5
REMARK    4  A    between atoms: C_3  and  C_7
REMARK    5  A    between atoms: C_6  and  C_10
REMARK    6  A    between atoms: C_8  and  C_10
REMARK    7  A    between atoms: C_8  and  C_12
REMARK    8  A    between atoms: C_11  and  C_14
REMARK    9  A    between atoms: C_19  and  O_23
REMARK   10  A    between atoms: C_25  and  C_27
REMARK   11  A    between atoms: C_25  and  C_29
REMARK   12  A    between atoms: C_28  and  C_32
REMARK   13  A    between atoms: C_30  and  C_32
REMARK   14  A    between atoms: C_30  and  C_34
REMARK   15  A    between atoms: C_33  and  C_36
REMARK   16  A    between atoms: C_41  and  O_45
REMARK                            x       y       z     vdW  Elec       q    Type
REMARK                         _______ _______ _______ _____ _____    ______ ____
ROOT
ATOM      1  C   UNL     1      57.289 -11.283 183.764  0.00  0.00    +0.000 C 
ATOM      2  C   UNL     1      56.967 -10.395 183.024  0.00  0.00    +0.000 C 
ENDROOT
BRANCH   2   3
ATOM      3  C   UNL     1      56.554  -9.259 182.081  0.00  0.00    +0.000 C 
BRANCH   3   4
ATOM      4  C   UNL     1      56.205  -8.300 181.283  0.00  0.00    +0.000 C 
ATOM      5  C   UNL     1      56.589  -8.358 179.835  0.00  0.00    +0.000 C 
BRANCH   4   7
ATOM      6  C   UNL     1      54.943  -6.210 182.222  0.00  0.00    +0.000 C 
ATOM      7  C   UNL     1      55.523  -7.170 181.791  0.00  0.00    +0.000 C 
BRANCH   6   8
ATOM      8  C   UNL     1      54.201  -4.986 182.773  0.00  0.00    +0.000 C 
BRANCH   8   9
ATOM      9  C   UNL     1      53.577  -3.948 183.238  0.00  0.00    +0.000 C 
ATOM     10  C   UNL     1      53.910  -3.425 184.601  0.00  0.00    +0.000 C 
BRANCH   9  12
ATOM     11  C   UNL     1      51.911  -2.636 181.701  0.00  0.00    +0.000 C 
ATOM     12  C   UNL     1      52.672  -3.240 182.409  0.00  0.00    +0.000 C 
BRANCH  11  14
ATOM     13  O   UNL     1      50.835  -2.617 179.581  0.00  0.00    +0.000 OA
ATOM     14  C   UNL     1      51.009  -1.895 180.832  0.00  0.00    +0.000 C 
ATOM     15  C   UNL     1      49.671  -2.533 180.402  0.00  0.00    +0.000 C 
ATOM     16  C   UNL     1      51.148  -0.339 180.724  0.00  0.00    +0.000 C 
ATOM     17  C   UNL     1      48.687  -1.660 179.850  0.00  0.00    +0.000 C 
ATOM     18  C   UNL     1      49.962   0.161 180.015  0.00  0.00    +0.000 C 
ATOM     19  C   UNL     1      48.703  -0.285 179.566  0.00  0.00    +0.000 C 
ATOM     20  C   UNL     1      49.191  -3.892 180.918  0.00  0.00    +0.000 C 
ATOM     21  C   UNL     1      51.164   0.189 182.179  0.00  0.00    +0.000 C 
ATOM     22  C   UNL     1      52.466  -0.064 179.969  0.00  0.00    +0.000 C 
BRANCH  19  23
ATOM     23  O   UNL     1      48.096   0.222 178.457  0.00  0.00    +0.000 OA
ATOM     24  H   UNL     1      47.127   0.262 178.543  0.00  0.00    +0.000 HD
ENDBRANCH  19  23
ENDBRANCH  11  14
ENDBRANCH   9  12
ENDBRANCH   8   9
ENDBRANCH   6   8
ENDBRANCH   4   7
ENDBRANCH   3   4
ENDBRANCH   2   3
BRANCH   1  25
ATOM     25  C   UNL     1      57.701 -12.420 184.708  0.00  0.00    +0.000 C 
BRANCH  25  26
ATOM     26  C   UNL     1      58.049 -13.379 185.506  0.00  0.00    +0.000 C 
ATOM     27  C   UNL     1      59.458 -13.453 186.014  0.00  0.00    +0.000 C 
BRANCH  26  29
ATOM     28  C   UNL     1      56.287 -15.155 186.269  0.00  0.00    +0.000 C 
ATOM     29  C   UNL     1      57.096 -14.339 185.916  0.00  0.00    +0.000 C 
BRANCH  28  30
ATOM     30  C   UNL     1      55.257 -16.196 186.726  0.00  0.00    +0.000 C 
BRANCH  30  31
ATOM     31  C   UNL     1      54.384 -17.075 187.107  0.00  0.00    +0.000 C 
ATOM     32  C   UNL     1      54.645 -18.533 186.884  0.00  0.00    +0.000 C 
BRANCH  31  34
ATOM     33  C   UNL     1      52.211 -16.302 188.351  0.00  0.00    +0.000 C 
ATOM     34  C   UNL     1      53.207 -16.658 187.778  0.00  0.00    +0.000 C 
BRANCH  33  36
ATOM     35  O   UNL     1      50.228 -17.026 189.453  0.00  0.00    +0.000 OA
ATOM     36  C   UNL     1      51.010 -15.866 189.048  0.00  0.00    +0.000 C 
ATOM     37  C   UNL     1      50.794 -16.269 190.522  0.00  0.00    +0.000 C 
ATOM     38  C   UNL     1      50.199 -14.642 188.491  0.00  0.00    +0.000 C 
ATOM     39  C   UNL     1      49.805 -15.548 191.255  0.00  0.00    +0.000 C 
ATOM     40  C   UNL     1      49.247 -14.248 189.532  0.00  0.00    +0.000 C 
ATOM     41  C   UNL     1      48.927 -14.519 190.876  0.00  0.00    +0.000 C 
ATOM     42  C   UNL     1      51.818 -17.055 191.344  0.00  0.00    +0.000 C 
ATOM     43  C   UNL     1      49.530 -15.129 187.185  0.00  0.00    +0.000 C 
ATOM     44  C   UNL     1      51.246 -13.525 188.244  0.00  0.00    +0.000 C 
BRANCH  41  45
ATOM     45  O   UNL     1      48.541 -13.528 191.727  0.00  0.00    +0.000 OA
ATOM     46  H   UNL     1      47.948 -13.851 192.429  0.00  0.00    +0.000 HD
ENDBRANCH  41  45
ENDBRANCH  33  36
ENDBRANCH  31  34
ENDBRANCH  30  31
ENDBRANCH  28  30
ENDBRANCH  26  29
ENDBRANCH  25  26
ENDBRANCH   1  25
TORSDOF 16
ENDMDL
