MODEL 1
REMARK VINA RESULT:     -10.6      0.000      0.000
REMARK  Name = 490561_Nocardiopsis.pdbqt.pdb
REMARK  3 active torsions:
REMARK  status: ('A' for Active; 'I' for Inactive)
REMARK    1  A    between atoms: C_7  and  O_32
REMARK    2  A    between atoms: C_7  and  C_35
REMARK    3  A    between atoms: C_35  and  O_36
REMARK                            x       y       z     vdW  Elec       q    Type
REMARK                         _______ _______ _______ _____ _____    ______ ____
ROOT
ATOM      1  O   UNL     1      23.830   4.394 191.087  0.00  0.00    +0.000 OA
ATOM      2  O   UNL     1      17.616   2.431 187.310  0.00  0.00    +0.000 OA
ATOM      3  N   UNL     1      22.478   2.669 191.973  0.00  0.00    +0.000 N 
ATOM      4  N   UNL     1      22.745   3.666 189.154  0.00  0.00    +0.000 N 
ATOM      5  N   UNL     1      17.186   1.567 189.422  0.00  0.00    +0.000 N 
ATOM      6  C   UNL     1      23.851   3.215 191.966  0.00  0.00    +0.000 C 
ATOM      7  C   UNL     1      24.909   2.244 191.286  0.00  0.00    +0.000 C 
ATOM      8  C   UNL     1      23.958   3.861 189.792  0.00  0.00    +0.000 C 
ATOM      9  C   UNL     1      24.803   2.732 189.913  0.00  0.00    +0.000 C 
ATOM     10  C   UNL     1      21.493   2.702 191.018  0.00  0.00    +0.000 A 
ATOM     11  C   UNL     1      21.602   3.177 189.711  0.00  0.00    +0.000 A 
ATOM     12  C   UNL     1      20.248   2.135 191.303  0.00  0.00    +0.000 A 
ATOM     13  C   UNL     1      20.467   3.007 188.910  0.00  0.00    +0.000 A 
ATOM     14  C   UNL     1      24.276   3.758 193.370  0.00  0.00    +0.000 C 
ATOM     15  C   UNL     1      21.813   1.918 192.974  0.00  0.00    +0.000 A 
ATOM     16  C   UNL     1      22.339   3.791 187.813  0.00  0.00    +0.000 A 
ATOM     17  C   UNL     1      20.452   1.616 192.594  0.00  0.00    +0.000 A 
ATOM     18  C   UNL     1      19.092   1.974 190.528  0.00  0.00    +0.000 A 
ATOM     19  C   UNL     1      19.200   2.455 189.189  0.00  0.00    +0.000 A 
ATOM     20  C   UNL     1      20.951   3.421 187.649  0.00  0.00    +0.000 A 
ATOM     21  C   UNL     1      17.733   1.386 190.643  0.00  0.00    +0.000 C 
ATOM     22  C   UNL     1      22.312   1.464 194.207  0.00  0.00    +0.000 A 
ATOM     23  C   UNL     1      17.979   2.203 188.455  0.00  0.00    +0.000 C 
ATOM     24  C   UNL     1      23.103   4.224 186.718  0.00  0.00    +0.000 A 
ATOM     25  C   UNL     1      19.651   0.880 193.491  0.00  0.00    +0.000 A 
ATOM     26  C   UNL     1      20.397   3.500 186.356  0.00  0.00    +0.000 A 
ATOM     27  C   UNL     1      21.479   0.741 195.061  0.00  0.00    +0.000 A 
ATOM     28  C   UNL     1      20.168   0.457 194.715  0.00  0.00    +0.000 A 
ATOM     29  C   UNL     1      22.500   4.289 185.462  0.00  0.00    +0.000 A 
ATOM     30  C   UNL     1      21.171   3.935 185.281  0.00  0.00    +0.000 A 
ATOM     31  H   UNL     1      16.251   1.264 189.195  0.00  0.00    +0.000 HD
ENDROOT
BRANCH   7  32
ATOM     32  O   UNL     1      24.558   0.853 191.313  0.00  0.00    +0.000 OA
ATOM     33  H   UNL     1      23.826   0.750 191.960  0.00  0.00    +0.000 HD
ENDBRANCH   7  32
BRANCH   7  35
ATOM     34  O   UNL     1      26.947   3.477 191.591  0.00  0.00    +0.000 OA
ATOM     35  C   UNL     1      26.314   2.451 191.849  0.00  0.00    +0.000 C 
BRANCH  35  36
ATOM     36  O   UNL     1      26.689   1.419 192.664  0.00  0.00    +0.000 OA
ATOM     37  C   UNL     1      27.433   1.732 193.811  0.00  0.00    +0.000 C 
ENDBRANCH  35  36
ENDBRANCH   7  35
TORSDOF 3
ENDMDL
MODEL 2
REMARK VINA RESULT:     -10.5      1.477      5.167
REMARK  Name = 490561_Nocardiopsis.pdbqt.pdb
REMARK  3 active torsions:
REMARK  status: ('A' for Active; 'I' for Inactive)
REMARK    1  A    between atoms: C_7  and  O_32
REMARK    2  A    between atoms: C_7  and  C_35
REMARK    3  A    between atoms: C_35  and  O_36
REMARK                            x       y       z     vdW  Elec       q    Type
REMARK                         _______ _______ _______ _____ _____    ______ ____
ROOT
ATOM      1  O   UNL     1      24.346   0.598 190.101  0.00  0.00    +0.000 OA
ATOM      2  O   UNL     1      16.831   1.052 190.323  0.00  0.00    +0.000 OA
ATOM      3  N   UNL     1      23.292   2.336 188.894  0.00  0.00    +0.000 N 
ATOM      4  N   UNL     1      22.332   0.767 191.266  0.00  0.00    +0.000 N 
ATOM      5  N   UNL     1      17.333   2.319 188.442  0.00  0.00    +0.000 N 
ATOM      6  C   UNL     1      24.561   1.940 189.537  0.00  0.00    +0.000 C 
ATOM      7  C   UNL     1      24.933   2.833 190.798  0.00  0.00    +0.000 C 
ATOM      8  C   UNL     1      23.713   0.838 191.333  0.00  0.00    +0.000 C 
ATOM      9  C   UNL     1      24.265   2.044 191.830  0.00  0.00    +0.000 C 
ATOM     10  C   UNL     1      21.994   1.995 189.181  0.00  0.00    +0.000 A 
ATOM     11  C   UNL     1      21.539   1.253 190.271  0.00  0.00    +0.000 A 
ATOM     12  C   UNL     1      20.966   2.487 188.373  0.00  0.00    +0.000 A 
ATOM     13  C   UNL     1      20.149   1.129 190.379  0.00  0.00    +0.000 A 
ATOM     14  C   UNL     1      25.719   1.768 188.500  0.00  0.00    +0.000 C 
ATOM     15  C   UNL     1      23.071   3.222 187.810  0.00  0.00    +0.000 A 
ATOM     16  C   UNL     1      21.354   0.307 192.166  0.00  0.00    +0.000 A 
ATOM     17  C   UNL     1      21.670   3.298 187.464  0.00  0.00    +0.000 A 
ATOM     18  C   UNL     1      19.572   2.357 188.446  0.00  0.00    +0.000 A 
ATOM     19  C   UNL     1      19.102   1.603 189.562  0.00  0.00    +0.000 A 
ATOM     20  C   UNL     1      20.022   0.493 191.634  0.00  0.00    +0.000 A 
ATOM     21  C   UNL     1      18.360   2.820 187.724  0.00  0.00    +0.000 C 
ATOM     22  C   UNL     1      24.009   3.986 187.096  0.00  0.00    +0.000 A 
ATOM     23  C   UNL     1      17.656   1.564 189.580  0.00  0.00    +0.000 C 
ATOM     24  C   UNL     1      21.549  -0.282 193.425  0.00  0.00    +0.000 A 
ATOM     25  C   UNL     1      21.285   4.133 186.396  0.00  0.00    +0.000 A 
ATOM     26  C   UNL     1      18.933   0.074 192.423  0.00  0.00    +0.000 A 
ATOM     27  C   UNL     1      23.579   4.797 186.046  0.00  0.00    +0.000 A 
ATOM     28  C   UNL     1      22.241   4.867 185.695  0.00  0.00    +0.000 A 
ATOM     29  C   UNL     1      20.434  -0.684 194.159  0.00  0.00    +0.000 A 
ATOM     30  C   UNL     1      19.148  -0.511 193.670  0.00  0.00    +0.000 A 
ATOM     31  H   UNL     1      16.367   2.471 188.190  0.00  0.00    +0.000 HD
ENDROOT
BRANCH   7  32
ATOM     32  O   UNL     1      24.372   4.154 190.788  0.00  0.00    +0.000 OA
ATOM     33  H   UNL     1      23.405   4.059 190.640  0.00  0.00    +0.000 HD
ENDBRANCH   7  32
BRANCH   7  35
ATOM     34  O   UNL     1      27.116   3.786 190.504  0.00  0.00    +0.000 OA
ATOM     35  C   UNL     1      26.442   2.895 191.026  0.00  0.00    +0.000 C 
BRANCH  35  36
ATOM     36  O   UNL     1      26.866   1.915 191.879  0.00  0.00    +0.000 OA
ATOM     37  C   UNL     1      27.864   1.042 191.424  0.00  0.00    +0.000 C 
ENDBRANCH  35  36
ENDBRANCH   7  35
TORSDOF 3
ENDMDL
MODEL 3
REMARK VINA RESULT:     -10.5      3.077      5.563
REMARK  Name = 490561_Nocardiopsis.pdbqt.pdb
REMARK  3 active torsions:
REMARK  status: ('A' for Active; 'I' for Inactive)
REMARK    1  A    between atoms: C_7  and  O_32
REMARK    2  A    between atoms: C_7  and  C_35
REMARK    3  A    between atoms: C_35  and  O_36
REMARK                            x       y       z     vdW  Elec       q    Type
REMARK                         _______ _______ _______ _____ _____    ______ ____
ROOT
ATOM      1  O   UNL     1      19.578  -0.809 192.303  0.00  0.00    +0.000 OA
ATOM      2  O   UNL     1      23.380   2.336 186.612  0.00  0.00    +0.000 OA
ATOM      3  N   UNL     1      21.849  -0.246 192.647  0.00  0.00    +0.000 N 
ATOM      4  N   UNL     1      19.857   0.852 190.689  0.00  0.00    +0.000 N 
ATOM      5  N   UNL     1      25.099   1.572 187.974  0.00  0.00    +0.000 N 
ATOM      6  C   UNL     1      20.567  -0.484 193.343  0.00  0.00    +0.000 C 
ATOM      7  C   UNL     1      19.980   0.818 194.040  0.00  0.00    +0.000 C 
ATOM      8  C   UNL     1      19.165   0.444 191.816  0.00  0.00    +0.000 C 
ATOM      9  C   UNL     1      19.181   1.322 192.926  0.00  0.00    +0.000 C 
ATOM     10  C   UNL     1      22.112   0.222 191.384  0.00  0.00    +0.000 A 
ATOM     11  C   UNL     1      21.193   0.720 190.461  0.00  0.00    +0.000 A 
ATOM     12  C   UNL     1      23.439   0.311 190.954  0.00  0.00    +0.000 A 
ATOM     13  C   UNL     1      21.741   1.224 189.276  0.00  0.00    +0.000 A 
ATOM     14  C   UNL     1      20.622  -1.746 194.266  0.00  0.00    +0.000 C 
ATOM     15  C   UNL     1      23.174  -0.409 193.122  0.00  0.00    +0.000 A 
ATOM     16  C   UNL     1      19.475   1.572 189.541  0.00  0.00    +0.000 A 
ATOM     17  C   UNL     1      24.146  -0.104 192.097  0.00  0.00    +0.000 A 
ATOM     18  C   UNL     1      24.009   0.789 189.767  0.00  0.00    +0.000 A 
ATOM     19  C   UNL     1      23.073   1.303 188.821  0.00  0.00    +0.000 A 
ATOM     20  C   UNL     1      20.601   1.784 188.658  0.00  0.00    +0.000 A 
ATOM     21  C   UNL     1      25.352   0.990 189.165  0.00  0.00    +0.000 C 
ATOM     22  C   UNL     1      23.606  -0.799 194.401  0.00  0.00    +0.000 A 
ATOM     23  C   UNL     1      23.755   1.815 187.652  0.00  0.00    +0.000 C 
ATOM     24  C   UNL     1      18.198   2.046 189.207  0.00  0.00    +0.000 A 
ATOM     25  C   UNL     1      25.515  -0.227 192.411  0.00  0.00    +0.000 A 
ATOM     26  C   UNL     1      20.372   2.490 187.460  0.00  0.00    +0.000 A 
ATOM     27  C   UNL     1      24.971  -0.907 194.662  0.00  0.00    +0.000 A 
ATOM     28  C   UNL     1      25.913  -0.632 193.684  0.00  0.00    +0.000 A 
ATOM     29  C   UNL     1      18.030   2.732 188.004  0.00  0.00    +0.000 A 
ATOM     30  C   UNL     1      19.095   2.951 187.143  0.00  0.00    +0.000 A 
ATOM     31  H   UNL     1      25.831   1.832 187.329  0.00  0.00    +0.000 HD
ENDROOT
BRANCH   7  32
ATOM     32  O   UNL     1      20.959   1.806 194.394  0.00  0.00    +0.000 OA
ATOM     33  H   UNL     1      21.836   1.459 194.120  0.00  0.00    +0.000 HD
ENDBRANCH   7  32
BRANCH   7  35
ATOM     34  O   UNL     1      18.047  -0.134 195.097  0.00  0.00    +0.000 OA
ATOM     35  C   UNL     1      19.109   0.473 195.246  0.00  0.00    +0.000 C 
BRANCH  35  36
ATOM     36  O   UNL     1      19.691   0.868 196.419  0.00  0.00    +0.000 OA
ATOM     37  C   UNL     1      19.259   0.249 197.601  0.00  0.00    +0.000 C 
ENDBRANCH  35  36
ENDBRANCH   7  35
TORSDOF 3
ENDMDL
MODEL 4
REMARK VINA RESULT:     -10.2      2.686      5.566
REMARK  Name = 490561_Nocardiopsis.pdbqt.pdb
REMARK  3 active torsions:
REMARK  status: ('A' for Active; 'I' for Inactive)
REMARK    1  A    between atoms: C_7  and  O_32
REMARK    2  A    between atoms: C_7  and  C_35
REMARK    3  A    between atoms: C_35  and  O_36
REMARK                            x       y       z     vdW  Elec       q    Type
REMARK                         _______ _______ _______ _____ _____    ______ ____
ROOT
ATOM      1  O   UNL     1      20.589   0.302 191.234  0.00  0.00    +0.000 OA
ATOM      2  O   UNL     1      25.326   4.958 187.683  0.00  0.00    +0.000 OA
ATOM      3  N   UNL     1      22.824   0.423 191.996  0.00  0.00    +0.000 N 
ATOM      4  N   UNL     1      21.192   2.416 190.455  0.00  0.00    +0.000 N 
ATOM      5  N   UNL     1      26.791   3.534 188.788  0.00  0.00    +0.000 N 
ATOM      6  C   UNL     1      21.447   0.081 192.408  0.00  0.00    +0.000 C 
ATOM      7  C   UNL     1      20.857   1.066 193.507  0.00  0.00    +0.000 C 
ATOM      8  C   UNL     1      20.329   1.683 191.250  0.00  0.00    +0.000 C 
ATOM      9  C   UNL     1      20.252   2.052 192.615  0.00  0.00    +0.000 C 
ATOM     10  C   UNL     1      23.287   1.312 191.059  0.00  0.00    +0.000 A 
ATOM     11  C   UNL     1      22.535   2.232 190.327  0.00  0.00    +0.000 A 
ATOM     12  C   UNL     1      24.663   1.410 190.834  0.00  0.00    +0.000 A 
ATOM     13  C   UNL     1      23.271   3.091 189.503  0.00  0.00    +0.000 A 
ATOM     14  C   UNL     1      21.293  -1.438 192.749  0.00  0.00    +0.000 C 
ATOM     15  C   UNL     1      24.059  -0.062 192.494  0.00  0.00    +0.000 A 
ATOM     16  C   UNL     1      21.019   3.564 189.661  0.00  0.00    +0.000 A 
ATOM     17  C   UNL     1      25.179   0.504 191.778  0.00  0.00    +0.000 A 
ATOM     18  C   UNL     1      25.418   2.244 190.000  0.00  0.00    +0.000 A 
ATOM     19  C   UNL     1      24.655   3.189 189.251  0.00  0.00    +0.000 A 
ATOM     20  C   UNL     1      22.265   3.974 189.052  0.00  0.00    +0.000 A 
ATOM     21  C   UNL     1      26.841   2.509 189.664  0.00  0.00    +0.000 C 
ATOM     22  C   UNL     1      24.286  -0.966 193.546  0.00  0.00    +0.000 A 
ATOM     23  C   UNL     1      25.522   4.034 188.459  0.00  0.00    +0.000 C 
ATOM     24  C   UNL     1      19.832   4.274 189.420  0.00  0.00    +0.000 A 
ATOM     25  C   UNL     1      26.481   0.114 192.150  0.00  0.00    +0.000 A 
ATOM     26  C   UNL     1      22.248   5.112 188.221  0.00  0.00    +0.000 A 
ATOM     27  C   UNL     1      25.594  -1.323 193.875  0.00  0.00    +0.000 A 
ATOM     28  C   UNL     1      26.676  -0.798 193.187  0.00  0.00    +0.000 A 
ATOM     29  C   UNL     1      19.874   5.388 188.582  0.00  0.00    +0.000 A 
ATOM     30  C   UNL     1      21.059   5.802 187.991  0.00  0.00    +0.000 A 
ATOM     31  H   UNL     1      27.619   3.939 188.377  0.00  0.00    +0.000 HD
ENDROOT
BRANCH   7  32
ATOM     32  O   UNL     1      21.842   1.719 194.322  0.00  0.00    +0.000 OA
ATOM     33  H   UNL     1      21.849   1.263 195.192  0.00  0.00    +0.000 HD
ENDBRANCH   7  32
BRANCH   7  35
ATOM     34  O   UNL     1      18.662   0.211 193.966  0.00  0.00    +0.000 OA
ATOM     35  C   UNL     1      19.810   0.380 194.382  0.00  0.00    +0.000 C 
BRANCH  35  36
ATOM     36  O   UNL     1      20.336  -0.028 195.575  0.00  0.00    +0.000 OA
ATOM     37  C   UNL     1      19.448  -0.250 196.637  0.00  0.00    +0.000 C 
ENDBRANCH  35  36
ENDBRANCH   7  35
TORSDOF 3
ENDMDL
MODEL 5
REMARK VINA RESULT:     -10.0      2.382      5.252
REMARK  Name = 490561_Nocardiopsis.pdbqt.pdb
REMARK  3 active torsions:
REMARK  status: ('A' for Active; 'I' for Inactive)
REMARK    1  A    between atoms: C_7  and  O_32
REMARK    2  A    between atoms: C_7  and  C_35
REMARK    3  A    between atoms: C_35  and  O_36
REMARK                            x       y       z     vdW  Elec       q    Type
REMARK                         _______ _______ _______ _____ _____    ______ ____
ROOT
ATOM      1  O   UNL     1      21.308   0.027 191.610  0.00  0.00    +0.000 OA
ATOM      2  O   UNL     1      23.367   4.560 185.959  0.00  0.00    +0.000 OA
ATOM      3  N   UNL     1      23.111   1.514 191.966  0.00  0.00    +0.000 N 
ATOM      4  N   UNL     1      20.838   1.659 190.011  0.00  0.00    +0.000 N 
ATOM      5  N   UNL     1      25.249   4.604 187.319  0.00  0.00    +0.000 N 
ATOM      6  C   UNL     1      22.059   0.738 192.655  0.00  0.00    +0.000 C 
ATOM      7  C   UNL     1      20.967   1.652 193.362  0.00  0.00    +0.000 C 
ATOM      8  C   UNL     1      20.392   0.981 191.132  0.00  0.00    +0.000 C 
ATOM      9  C   UNL     1      20.028   1.770 192.251  0.00  0.00    +0.000 C 
ATOM     10  C   UNL     1      23.145   2.062 190.708  0.00  0.00    +0.000 A 
ATOM     11  C   UNL     1      22.099   2.121 189.786  0.00  0.00    +0.000 A 
ATOM     12  C   UNL     1      24.301   2.721 190.283  0.00  0.00    +0.000 A 
ATOM     13  C   UNL     1      22.374   2.823 188.608  0.00  0.00    +0.000 A 
ATOM     14  C   UNL     1      22.656  -0.384 193.567  0.00  0.00    +0.000 C 
ATOM     15  C   UNL     1      24.376   1.937 192.444  0.00  0.00    +0.000 A 
ATOM     16  C   UNL     1      20.182   2.154 188.869  0.00  0.00    +0.000 A 
ATOM     17  C   UNL     1      25.120   2.642 191.425  0.00  0.00    +0.000 A 
ATOM     18  C   UNL     1      24.607   3.410 189.102  0.00  0.00    +0.000 A 
ATOM     19  C   UNL     1      23.540   3.476 188.157  0.00  0.00    +0.000 A 
ATOM     20  C   UNL     1      21.103   2.840 187.991  0.00  0.00    +0.000 A 
ATOM     21  C   UNL     1      25.730   4.178 188.506  0.00  0.00    +0.000 C 
ATOM     22  C   UNL     1      24.936   1.761 193.721  0.00  0.00    +0.000 A 
ATOM     23  C   UNL     1      23.932   4.244 186.995  0.00  0.00    +0.000 C 
ATOM     24  C   UNL     1      18.825   2.031 188.534  0.00  0.00    +0.000 A 
ATOM     25  C   UNL     1      26.407   3.122 191.741  0.00  0.00    +0.000 A 
ATOM     26  C   UNL     1      20.591   3.388 186.798  0.00  0.00    +0.000 A 
ATOM     27  C   UNL     1      26.213   2.253 193.985  0.00  0.00    +0.000 A 
ATOM     28  C   UNL     1      26.943   2.917 193.012  0.00  0.00    +0.000 A 
ATOM     29  C   UNL     1      18.375   2.587 187.337  0.00  0.00    +0.000 A 
ATOM     30  C   UNL     1      19.240   3.254 186.482  0.00  0.00    +0.000 A 
ATOM     31  H   UNL     1      25.796   5.161 186.679  0.00  0.00    +0.000 HD
ENDROOT
BRANCH   7  32
ATOM     32  O   UNL     1      21.422   2.963 193.728  0.00  0.00    +0.000 OA
ATOM     33  H   UNL     1      21.309   3.541 192.942  0.00  0.00    +0.000 HD
ENDBRANCH   7  32
BRANCH   7  35
ATOM     34  O   UNL     1      20.740   1.177 195.704  0.00  0.00    +0.000 OA
ATOM     35  C   UNL     1      20.333   0.952 194.563  0.00  0.00    +0.000 C 
BRANCH  35  36
ATOM     36  O   UNL     1      19.290   0.151 194.189  0.00  0.00    +0.000 OA
ATOM     37  C   UNL     1      18.378  -0.237 195.181  0.00  0.00    +0.000 C 
ENDBRANCH  35  36
ENDBRANCH   7  35
TORSDOF 3
ENDMDL
MODEL 6
REMARK VINA RESULT:      -9.7      2.068      4.999
REMARK  Name = 490561_Nocardiopsis.pdbqt.pdb
REMARK  3 active torsions:
REMARK  status: ('A' for Active; 'I' for Inactive)
REMARK    1  A    between atoms: C_7  and  O_32
REMARK    2  A    between atoms: C_7  and  C_35
REMARK    3  A    between atoms: C_35  and  O_36
REMARK                            x       y       z     vdW  Elec       q    Type
REMARK                         _______ _______ _______ _____ _____    ______ ____
ROOT
ATOM      1  O   UNL     1      22.452  -0.384 191.598  0.00  0.00    +0.000 OA
ATOM      2  O   UNL     1      20.617   3.992 185.749  0.00  0.00    +0.000 OA
ATOM      3  N   UNL     1      23.916   1.378 191.013  0.00  0.00    +0.000 N 
ATOM      4  N   UNL     1      20.982   1.041 190.481  0.00  0.00    +0.000 N 
ATOM      5  N   UNL     1      22.890   4.415 185.969  0.00  0.00    +0.000 N 
ATOM      6  C   UNL     1      23.498   0.504 192.129  0.00  0.00    +0.000 C 
ATOM      7  C   UNL     1      22.774   1.291 193.305  0.00  0.00    +0.000 C 
ATOM      8  C   UNL     1      21.278   0.386 191.664  0.00  0.00    +0.000 C 
ATOM      9  C   UNL     1      21.399   1.189 192.824  0.00  0.00    +0.000 C 
ATOM     10  C   UNL     1      23.224   1.833 189.920  0.00  0.00    +0.000 A 
ATOM     11  C   UNL     1      21.864   1.669 189.655  0.00  0.00    +0.000 A 
ATOM     12  C   UNL     1      23.884   2.627 188.977  0.00  0.00    +0.000 A 
ATOM     13  C   UNL     1      21.389   2.319 188.511  0.00  0.00    +0.000 A 
ATOM     14  C   UNL     1      24.647  -0.448 192.596  0.00  0.00    +0.000 C 
ATOM     15  C   UNL     1      25.161   2.019 190.790  0.00  0.00    +0.000 A 
ATOM     16  C   UNL     1      19.770   1.349 189.836  0.00  0.00    +0.000 A 
ATOM     17  C   UNL     1      25.164   2.752 189.545  0.00  0.00    +0.000 A 
ATOM     18  C   UNL     1      23.436   3.267 187.814  0.00  0.00    +0.000 A 
ATOM     19  C   UNL     1      22.045   3.105 187.541  0.00  0.00    +0.000 A 
ATOM     20  C   UNL     1      19.998   2.102 188.623  0.00  0.00    +0.000 A 
ATOM     21  C   UNL     1      23.964   4.150 186.742  0.00  0.00    +0.000 C 
ATOM     22  C   UNL     1      26.306   2.019 191.605  0.00  0.00    +0.000 A 
ATOM     23  C   UNL     1      21.669   3.839 186.352  0.00  0.00    +0.000 C 
ATOM     24  C   UNL     1      18.470   1.001 190.233  0.00  0.00    +0.000 A 
ATOM     25  C   UNL     1      26.337   3.440 189.173  0.00  0.00    +0.000 A 
ATOM     26  C   UNL     1      18.874   2.481 187.862  0.00  0.00    +0.000 A 
ATOM     27  C   UNL     1      27.442   2.714 191.193  0.00  0.00    +0.000 A 
ATOM     28  C   UNL     1      27.463   3.409 189.995  0.00  0.00    +0.000 A 
ATOM     29  C   UNL     1      17.395   1.397 189.437  0.00  0.00    +0.000 A 
ATOM     30  C   UNL     1      17.590   2.123 188.272  0.00  0.00    +0.000 A 
ATOM     31  H   UNL     1      22.941   5.000 185.149  0.00  0.00    +0.000 HD
ENDROOT
BRANCH   7  32
ATOM     32  O   UNL     1      23.127   2.679 193.409  0.00  0.00    +0.000 OA
ATOM     33  H   UNL     1      23.800   2.861 192.717  0.00  0.00    +0.000 HD
ENDBRANCH   7  32
BRANCH   7  35
ATOM     34  O   UNL     1      22.288  -0.408 194.929  0.00  0.00    +0.000 OA
ATOM     35  C   UNL     1      22.953   0.592 194.651  0.00  0.00    +0.000 C 
BRANCH  35  36
ATOM     36  O   UNL     1      23.933   1.181 195.400  0.00  0.00    +0.000 OA
ATOM     37  C   UNL     1      24.634   0.373 196.307  0.00  0.00    +0.000 C 
ENDBRANCH  35  36
ENDBRANCH   7  35
TORSDOF 3
ENDMDL
MODEL 7
REMARK VINA RESULT:      -9.3      2.442      3.438
REMARK  Name = 490561_Nocardiopsis.pdbqt.pdb
REMARK  3 active torsions:
REMARK  status: ('A' for Active; 'I' for Inactive)
REMARK    1  A    between atoms: C_7  and  O_32
REMARK    2  A    between atoms: C_7  and  C_35
REMARK    3  A    between atoms: C_35  and  O_36
REMARK                            x       y       z     vdW  Elec       q    Type
REMARK                         _______ _______ _______ _____ _____    ______ ____
ROOT
ATOM      1  O   UNL     1      24.488   1.695 193.717  0.00  0.00    +0.000 OA
ATOM      2  O   UNL     1      19.034   1.858 188.525  0.00  0.00    +0.000 OA
ATOM      3  N   UNL     1      22.332   0.947 194.333  0.00  0.00    +0.000 N 
ATOM      4  N   UNL     1      23.623   1.120 191.629  0.00  0.00    +0.000 N 
ATOM      5  N   UNL     1      17.815   1.725 190.497  0.00  0.00    +0.000 N 
ATOM      6  C   UNL     1      23.767   0.835 194.667  0.00  0.00    +0.000 C 
ATOM      7  C   UNL     1      24.361  -0.615 194.402  0.00  0.00    +0.000 C 
ATOM      8  C   UNL     1      24.620   0.903 192.563  0.00  0.00    +0.000 C 
ATOM      9  C   UNL     1      24.788  -0.428 193.019  0.00  0.00    +0.000 C 
ATOM     10  C   UNL     1      21.704   1.201 193.139  0.00  0.00    +0.000 A 
ATOM     11  C   UNL     1      22.297   1.299 191.880  0.00  0.00    +0.000 A 
ATOM     12  C   UNL     1      20.310   1.298 193.109  0.00  0.00    +0.000 A 
ATOM     13  C   UNL     1      21.412   1.471 190.809  0.00  0.00    +0.000 A 
ATOM     14  C   UNL     1      24.091   1.421 196.080  0.00  0.00    +0.000 C 
ATOM     15  C   UNL     1      21.198   0.784 195.168  0.00  0.00    +0.000 A 
ATOM     16  C   UNL     1      23.616   1.125 190.222  0.00  0.00    +0.000 A 
ATOM     17  C   UNL     1      19.969   1.025 194.446  0.00  0.00    +0.000 A 
ATOM     18  C   UNL     1      19.407   1.493 192.056  0.00  0.00    +0.000 A 
ATOM     19  C   UNL     1      20.008   1.590 190.766  0.00  0.00    +0.000 A 
ATOM     20  C   UNL     1      22.286   1.363 189.705  0.00  0.00    +0.000 A 
ATOM     21  C   UNL     1      17.941   1.585 191.834  0.00  0.00    +0.000 C 
ATOM     22  C   UNL     1      21.153   0.427 196.526  0.00  0.00    +0.000 A 
ATOM     23  C   UNL     1      18.997   1.740 189.742  0.00  0.00    +0.000 C 
ATOM     24  C   UNL     1      24.704   0.947 189.354  0.00  0.00    +0.000 A 
ATOM     25  C   UNL     1      18.748   0.910 195.141  0.00  0.00    +0.000 A 
ATOM     26  C   UNL     1      22.121   1.401 188.306  0.00  0.00    +0.000 A 
ATOM     27  C   UNL     1      19.920   0.329 197.170  0.00  0.00    +0.000 A 
ATOM     28  C   UNL     1      18.735   0.571 196.494  0.00  0.00    +0.000 A 
ATOM     29  C   UNL     1      24.482   1.002 187.978  0.00  0.00    +0.000 A 
ATOM     30  C   UNL     1      23.215   1.225 187.460  0.00  0.00    +0.000 A 
ATOM     31  H   UNL     1      16.919   1.814 190.042  0.00  0.00    +0.000 HD
ENDROOT
BRANCH   7  32
ATOM     32  O   UNL     1      23.400  -1.680 194.452  0.00  0.00    +0.000 OA
ATOM     33  H   UNL     1      22.840  -1.531 195.246  0.00  0.00    +0.000 HD
ENDBRANCH   7  32
BRANCH   7  35
ATOM     34  O   UNL     1      26.629  -0.361 195.148  0.00  0.00    +0.000 OA
ATOM     35  C   UNL     1      25.544  -0.920 195.320  0.00  0.00    +0.000 C 
BRANCH  35  36
ATOM     36  O   UNL     1      25.202  -1.799 196.310  0.00  0.00    +0.000 OA
ATOM     37  C   UNL     1      25.902  -3.011 196.376  0.00  0.00    +0.000 C 
ENDBRANCH  35  36
ENDBRANCH   7  35
TORSDOF 3
ENDMDL
MODEL 8
REMARK VINA RESULT:      -9.0      2.171      5.566
REMARK  Name = 490561_Nocardiopsis.pdbqt.pdb
REMARK  3 active torsions:
REMARK  status: ('A' for Active; 'I' for Inactive)
REMARK    1  A    between atoms: C_7  and  O_32
REMARK    2  A    between atoms: C_7  and  C_35
REMARK    3  A    between atoms: C_35  and  O_36
REMARK                            x       y       z     vdW  Elec       q    Type
REMARK                         _______ _______ _______ _____ _____    ______ ____
ROOT
ATOM      1  O   UNL     1      25.885   0.414 190.765  0.00  0.00    +0.000 OA
ATOM      2  O   UNL     1      18.670   1.288 192.744  0.00  0.00    +0.000 OA
ATOM      3  N   UNL     1      24.791   2.421 190.160  0.00  0.00    +0.000 N 
ATOM      4  N   UNL     1      24.186   0.475 192.363  0.00  0.00    +0.000 N 
ATOM      5  N   UNL     1      18.900   2.871 191.060  0.00  0.00    +0.000 N 
ATOM      6  C   UNL     1      26.118   1.825 190.419  0.00  0.00    +0.000 C 
ATOM      7  C   UNL     1      26.835   2.423 191.705  0.00  0.00    +0.000 C 
ATOM      8  C   UNL     1      25.550   0.443 192.130  0.00  0.00    +0.000 C 
ATOM      9  C   UNL     1      26.317   1.488 192.700  0.00  0.00    +0.000 C 
ATOM     10  C   UNL     1      23.553   2.112 190.663  0.00  0.00    +0.000 A 
ATOM     11  C   UNL     1      23.259   1.198 191.676  0.00  0.00    +0.000 A 
ATOM     12  C   UNL     1      22.436   2.819 190.209  0.00  0.00    +0.000 A 
ATOM     13  C   UNL     1      21.917   1.143 192.067  0.00  0.00    +0.000 A 
ATOM     14  C   UNL     1      27.010   1.790 189.135  0.00  0.00    +0.000 C 
ATOM     15  C   UNL     1      24.444   3.518 189.331  0.00  0.00    +0.000 A 
ATOM     16  C   UNL     1      23.373  -0.093 193.361  0.00  0.00    +0.000 A 
ATOM     17  C   UNL     1      23.018   3.749 189.328  0.00  0.00    +0.000 A 
ATOM     18  C   UNL     1      21.083   2.766 190.568  0.00  0.00    +0.000 A 
ATOM     19  C   UNL     1      20.778   1.835 191.606  0.00  0.00    +0.000 A 
ATOM     20  C   UNL     1      21.987   0.279 193.183  0.00  0.00    +0.000 A 
ATOM     21  C   UNL     1      19.803   3.439 190.233  0.00  0.00    +0.000 C 
ATOM     22  C   UNL     1      25.289   4.348 188.575  0.00  0.00    +0.000 A 
ATOM     23  C   UNL     1      19.372   1.885 191.940  0.00  0.00    +0.000 C 
ATOM     24  C   UNL     1      23.763  -0.932 194.415  0.00  0.00    +0.000 A 
ATOM     25  C   UNL     1      22.509   4.803 188.542  0.00  0.00    +0.000 A 
ATOM     26  C   UNL     1      21.048  -0.219 194.107  0.00  0.00    +0.000 A 
ATOM     27  C   UNL     1      24.738   5.377 187.812  0.00  0.00    +0.000 A 
ATOM     28  C   UNL     1      23.370   5.600 187.789  0.00  0.00    +0.000 A 
ATOM     29  C   UNL     1      22.789  -1.402 195.296  0.00  0.00    +0.000 A 
ATOM     30  C   UNL     1      21.454  -1.054 195.147  0.00  0.00    +0.000 A 
ATOM     31  H   UNL     1      17.925   3.131 191.062  0.00  0.00    +0.000 HD
ENDROOT
BRANCH   7  32
ATOM     32  O   UNL     1      26.426   3.753 192.060  0.00  0.00    +0.000 OA
ATOM     33  H   UNL     1      25.742   3.670 192.759  0.00  0.00    +0.000 HD
ENDBRANCH   7  32
BRANCH   7  35
ATOM     34  O   UNL     1      29.010   3.326 191.236  0.00  0.00    +0.000 OA
ATOM     35  C   UNL     1      28.356   2.344 191.596  0.00  0.00    +0.000 C 
BRANCH  35  36
ATOM     36  O   UNL     1      28.829   1.122 191.988  0.00  0.00    +0.000 OA
ATOM     37  C   UNL     1      30.063   1.083 192.651  0.00  0.00    +0.000 C 
ENDBRANCH  35  36
ENDBRANCH   7  35
TORSDOF 3
ENDMDL
MODEL 9
REMARK VINA RESULT:      -8.3      2.372      5.716
REMARK  Name = 490561_Nocardiopsis.pdbqt.pdb
REMARK  3 active torsions:
REMARK  status: ('A' for Active; 'I' for Inactive)
REMARK    1  A    between atoms: C_7  and  O_32
REMARK    2  A    between atoms: C_7  and  C_35
REMARK    3  A    between atoms: C_35  and  O_36
REMARK                            x       y       z     vdW  Elec       q    Type
REMARK                         _______ _______ _______ _____ _____    ______ ____
ROOT
ATOM      1  O   UNL     1      24.499  -1.117 192.829  0.00  0.00    +0.000 OA
ATOM      2  O   UNL     1      18.004   2.443 191.461  0.00  0.00    +0.000 OA
ATOM      3  N   UNL     1      24.577   0.978 191.735  0.00  0.00    +0.000 N 
ATOM      4  N   UNL     1      22.476  -0.191 193.532  0.00  0.00    +0.000 N 
ATOM      5  N   UNL     1      19.450   3.500 189.983  0.00  0.00    +0.000 N 
ATOM      6  C   UNL     1      25.364   0.042 192.565  0.00  0.00    +0.000 C 
ATOM      7  C   UNL     1      25.696   0.613 194.011  0.00  0.00    +0.000 C 
ATOM      8  C   UNL     1      23.700  -0.713 193.913  0.00  0.00    +0.000 C 
ATOM      9  C   UNL     1      24.521   0.113 194.719  0.00  0.00    +0.000 C 
ATOM     10  C   UNL     1      23.224   1.196 191.666  0.00  0.00    +0.000 A 
ATOM     11  C   UNL     1      22.238   0.646 192.485  0.00  0.00    +0.000 A 
ATOM     12  C   UNL     1      22.731   2.127 190.747  0.00  0.00    +0.000 A 
ATOM     13  C   UNL     1      20.938   1.112 192.260  0.00  0.00    +0.000 A 
ATOM     14  C   UNL     1      26.598  -0.533 191.795  0.00  0.00    +0.000 C 
ATOM     15  C   UNL     1      25.023   1.943 190.798  0.00  0.00    +0.000 A 
ATOM     16  C   UNL     1      21.191  -0.254 194.101  0.00  0.00    +0.000 A 
ATOM     17  C   UNL     1      23.914   2.623 190.169  0.00  0.00    +0.000 A 
ATOM     18  C   UNL     1      21.435   2.591 190.488  0.00  0.00    +0.000 A 
ATOM     19  C   UNL     1      20.423   2.034 191.326  0.00  0.00    +0.000 A 
ATOM     20  C   UNL     1      20.237   0.509 193.328  0.00  0.00    +0.000 A 
ATOM     21  C   UNL     1      20.745   3.568 189.607  0.00  0.00    +0.000 C 
ATOM     22  C   UNL     1      26.340   2.285 190.450  0.00  0.00    +0.000 A 
ATOM     23  C   UNL     1      19.131   2.608 191.017  0.00  0.00    +0.000 C 
ATOM     24  C   UNL     1      20.791  -0.951 195.252  0.00  0.00    +0.000 A 
ATOM     25  C   UNL     1      24.191   3.610 189.202  0.00  0.00    +0.000 A 
ATOM     26  C   UNL     1      18.901   0.538 193.774  0.00  0.00    +0.000 A 
ATOM     27  C   UNL     1      26.564   3.267 189.486  0.00  0.00    +0.000 A 
ATOM     28  C   UNL     1      25.509   3.917 188.865  0.00  0.00    +0.000 A 
ATOM     29  C   UNL     1      19.454  -0.893 195.642  0.00  0.00    +0.000 A 
ATOM     30  C   UNL     1      18.522  -0.163 194.918  0.00  0.00    +0.000 A 
ATOM     31  H   UNL     1      18.729   4.060 189.554  0.00  0.00    +0.000 HD
ENDROOT
BRANCH   7  32
ATOM     32  O   UNL     1      25.721   2.045 194.104  0.00  0.00    +0.000 OA
ATOM     33  H   UNL     1      26.662   2.324 194.059  0.00  0.00    +0.000 HD
ENDBRANCH   7  32
BRANCH   7  35
ATOM     34  O   UNL     1      28.052   0.631 194.471  0.00  0.00    +0.000 OA
ATOM     35  C   UNL     1      26.987   0.019 194.573  0.00  0.00    +0.000 C 
BRANCH  35  36
ATOM     36  O   UNL     1      26.763  -1.173 195.203  0.00  0.00    +0.000 OA
ATOM     37  C   UNL     1      27.546  -1.474 196.326  0.00  0.00    +0.000 C 
ENDBRANCH  35  36
ENDBRANCH   7  35
TORSDOF 3
ENDMDL
