MODEL 1
REMARK VINA RESULT:      -8.0      0.000      0.000
REMARK  Name = 50922675_Encorafenib.pdbqt.pdb
REMARK  8 active torsions:
REMARK  status: ('A' for Active; 'I' for Inactive)
REMARK    1  A    between atoms: N_1  and  C_37
REMARK    2  A    between atoms: C_3  and  C_23
REMARK    3  A    between atoms: C_4  and  C_8
REMARK    4  A    between atoms: C_11  and  N_14
REMARK    5  A    between atoms: N_14  and  S_16
REMARK    6  A    between atoms: N_20  and  C_28
REMARK    7  A    between atoms: C_28  and  C_29
REMARK    8  A    between atoms: C_33  and  O_35
REMARK                            x       y       z     vdW  Elec       q    Type
REMARK                         _______ _______ _______ _____ _____    ______ ____
ROOT
ATOM      1  N   UNL     1      21.681   1.185 192.901  0.00  0.00    +0.000 N 
ATOM      2  N   UNL     1      20.833   1.848 192.037  0.00  0.00    +0.000 NA
ATOM      3  C   UNL     1      22.754   1.328 190.919  0.00  0.00    +0.000 A 
ATOM      4  C   UNL     1      21.458   1.909 190.851  0.00  0.00    +0.000 A 
ATOM      5  C   UNL     1      22.854   0.889 192.218  0.00  0.00    +0.000 A 
ENDROOT
BRANCH   4   8
ATOM      6 CL   UNL     1      17.404   2.077 187.678  0.00  0.00    +0.000 Cl
ATOM      7  F   UNL     1      22.552   4.150 189.452  0.00  0.00    +0.000 F 
ATOM      8  C   UNL     1      20.788   2.566 189.735  0.00  0.00    +0.000 A 
ATOM      9  C   UNL     1      21.368   3.648 189.062  0.00  0.00    +0.000 A 
ATOM     10  C   UNL     1      19.564   2.072 189.282  0.00  0.00    +0.000 A 
ATOM     11  C   UNL     1      20.728   4.244 187.971  0.00  0.00    +0.000 A 
ATOM     12  C   UNL     1      18.929   2.662 188.195  0.00  0.00    +0.000 A 
ATOM     13  C   UNL     1      19.510   3.733 187.527  0.00  0.00    +0.000 A 
BRANCH  11  14
ATOM     14  N   UNL     1      21.389   5.286 187.235  0.00  0.00    +0.000 N 
ATOM     15  H   UNL     1      20.743   5.993 186.871  0.00  0.00    +0.000 HD
BRANCH  14  16
ATOM     16  S   UNL     1      22.414   4.836 185.989  0.00  0.00    +0.000 S 
ATOM     17  O   UNL     1      22.476   3.406 185.847  0.00  0.00    +0.000 OA
ATOM     18  O   UNL     1      22.495   5.798 184.912  0.00  0.00    +0.000 OA
ATOM     19  C   UNL     1      24.047   5.071 186.624  0.00  0.00    +0.000 C 
ENDBRANCH  14  16
ENDBRANCH  11  14
ENDBRANCH   4   8
BRANCH   3  23
ATOM     20  N   UNL     1      27.388   1.409 189.865  0.00  0.00    +0.000 N 
ATOM     21  N   UNL     1      25.067   1.361 190.359  0.00  0.00    +0.000 NA
ATOM     22  N   UNL     1      25.872   0.819 188.207  0.00  0.00    +0.000 NA
ATOM     23  C   UNL     1      23.809   1.136 189.937  0.00  0.00    +0.000 A 
ATOM     24  C   UNL     1      26.066   1.194 189.475  0.00  0.00    +0.000 A 
ATOM     25  C   UNL     1      23.509   0.752 188.650  0.00  0.00    +0.000 A 
ATOM     26  C   UNL     1      24.598   0.609 187.828  0.00  0.00    +0.000 A 
ATOM     27  H   UNL     1      27.961   1.469 189.031  0.00  0.00    +0.000 HD
BRANCH  20  28
ATOM     28  C   UNL     1      27.612   2.372 190.937  0.00  0.00    +0.000 C 
BRANCH  28  29
ATOM     29  C   UNL     1      27.715   3.272 192.027  0.00  0.00    +0.000 C 
ATOM     30  C   UNL     1      26.678   3.187 193.106  0.00  0.00    +0.000 C 
ATOM     31  O   UNL     1      29.972   3.832 190.335  0.00  0.00    +0.000 OA
ATOM     32  N   UNL     1      28.785   4.059 192.287  0.00  0.00    +0.000 N 
ATOM     33  C   UNL     1      29.866   4.277 191.473  0.00  0.00    +0.000 C 
ATOM     34  H   UNL     1      28.783   4.498 193.203  0.00  0.00    +0.000 HD
BRANCH  33  35
ATOM     35  O   UNL     1      30.785   5.069 192.122  0.00  0.00    +0.000 OA
ATOM     36  C   UNL     1      32.121   5.030 191.689  0.00  0.00    +0.000 C 
ENDBRANCH  33  35
ENDBRANCH  28  29
ENDBRANCH  20  28
ENDBRANCH   3  23
BRANCH   1  37
ATOM     37  C   UNL     1      21.456   0.848 194.259  0.00  0.00    +0.000 C 
ATOM     38  C   UNL     1      22.577   0.369 195.166  0.00  0.00    +0.000 C 
ATOM     39  C   UNL     1      20.089   0.958 194.902  0.00  0.00    +0.000 C 
ENDBRANCH   1  37
TORSDOF 8
ENDMDL
MODEL 2
REMARK VINA RESULT:      -7.7      4.465      6.997
REMARK  Name = 50922675_Encorafenib.pdbqt.pdb
REMARK  8 active torsions:
REMARK  status: ('A' for Active; 'I' for Inactive)
REMARK    1  A    between atoms: N_1  and  C_37
REMARK    2  A    between atoms: C_3  and  C_23
REMARK    3  A    between atoms: C_4  and  C_8
REMARK    4  A    between atoms: C_11  and  N_14
REMARK    5  A    between atoms: N_14  and  S_16
REMARK    6  A    between atoms: N_20  and  C_28
REMARK    7  A    between atoms: C_28  and  C_29
REMARK    8  A    between atoms: C_33  and  O_35
REMARK                            x       y       z     vdW  Elec       q    Type
REMARK                         _______ _______ _______ _____ _____    ______ ____
ROOT
ATOM      1  N   UNL     1      25.038   4.090 189.150  0.00  0.00    +0.000 N 
ATOM      2  N   UNL     1      24.574   3.526 190.321  0.00  0.00    +0.000 NA
ATOM      3  C   UNL     1      26.624   2.641 189.845  0.00  0.00    +0.000 A 
ATOM      4  C   UNL     1      25.528   2.685 190.750  0.00  0.00    +0.000 A 
ATOM      5  C   UNL     1      26.276   3.533 188.859  0.00  0.00    +0.000 A 
ENDROOT
BRANCH   4   8
ATOM      6 CL   UNL     1      26.567   2.126 195.764  0.00  0.00    +0.000 Cl
ATOM      7  F   UNL     1      23.856   0.371 190.915  0.00  0.00    +0.000 F 
ATOM      8  C   UNL     1      25.307   1.937 191.982  0.00  0.00    +0.000 A 
ATOM      9  C   UNL     1      24.497   0.796 192.016  0.00  0.00    +0.000 A 
ATOM     10  C   UNL     1      25.964   2.330 193.150  0.00  0.00    +0.000 A 
ATOM     11  C   UNL     1      24.324   0.071 193.200  0.00  0.00    +0.000 A 
ATOM     12  C   UNL     1      25.795   1.607 194.326  0.00  0.00    +0.000 A 
ATOM     13  C   UNL     1      24.993   0.472 194.354  0.00  0.00    +0.000 A 
BRANCH  11  14
ATOM     14  N   UNL     1      23.571  -1.151 193.186  0.00  0.00    +0.000 N 
ATOM     15  H   UNL     1      23.726  -1.710 192.341  0.00  0.00    +0.000 HD
BRANCH  14  16
ATOM     16  S   UNL     1      21.917  -1.058 193.442  0.00  0.00    +0.000 S 
ATOM     17  O   UNL     1      21.484   0.306 193.587  0.00  0.00    +0.000 OA
ATOM     18  O   UNL     1      21.160  -2.125 192.827  0.00  0.00    +0.000 OA
ATOM     19  C   UNL     1      21.680  -1.551 195.122  0.00  0.00    +0.000 C 
ENDBRANCH  14  16
ENDBRANCH  11  14
ENDBRANCH   4   8
BRANCH   3  23
ATOM     20  N   UNL     1      31.376   2.748 189.880  0.00  0.00    +0.000 N 
ATOM     21  N   UNL     1      29.004   2.661 189.860  0.00  0.00    +0.000 NA
ATOM     22  N   UNL     1      30.301   0.689 189.841  0.00  0.00    +0.000 NA
ATOM     23  C   UNL     1      27.884   1.915 189.844  0.00  0.00    +0.000 A 
ATOM     24  C   UNL     1      30.186   2.020 189.859  0.00  0.00    +0.000 A 
ATOM     25  C   UNL     1      27.901   0.539 189.821  0.00  0.00    +0.000 A 
ATOM     26  C   UNL     1      29.155  -0.016 189.822  0.00  0.00    +0.000 A 
ATOM     27  H   UNL     1      32.137   2.123 189.638  0.00  0.00    +0.000 HD
BRANCH  20  28
ATOM     28  C   UNL     1      31.347   4.078 189.283  0.00  0.00    +0.000 C 
BRANCH  28  29
ATOM     29  C   UNL     1      31.291   5.417 188.819  0.00  0.00    +0.000 C 
ATOM     30  C   UNL     1      31.485   6.513 189.823  0.00  0.00    +0.000 C 
ATOM     31  O   UNL     1      30.932   3.768 186.491  0.00  0.00    +0.000 OA
ATOM     32  N   UNL     1      31.288   5.789 187.518  0.00  0.00    +0.000 N 
ATOM     33  C   UNL     1      31.152   4.972 186.426  0.00  0.00    +0.000 C 
ATOM     34  H   UNL     1      31.440   6.781 187.355  0.00  0.00    +0.000 HD
BRANCH  33  35
ATOM     35  O   UNL     1      31.287   5.711 185.274  0.00  0.00    +0.000 OA
ATOM     36  C   UNL     1      30.160   6.394 184.786  0.00  0.00    +0.000 C 
ENDBRANCH  33  35
ENDBRANCH  28  29
ENDBRANCH  20  28
ENDBRANCH   3  23
BRANCH   1  37
ATOM     37  C   UNL     1      24.403   5.063 188.339  0.00  0.00    +0.000 C 
ATOM     38  C   UNL     1      22.986   5.538 188.610  0.00  0.00    +0.000 C 
ATOM     39  C   UNL     1      25.098   5.707 187.157  0.00  0.00    +0.000 C 
ENDBRANCH   1  37
TORSDOF 8
ENDMDL
MODEL 3
REMARK VINA RESULT:      -7.5     32.292     35.037
REMARK  Name = 50922675_Encorafenib.pdbqt.pdb
REMARK  8 active torsions:
REMARK  status: ('A' for Active; 'I' for Inactive)
REMARK    1  A    between atoms: N_1  and  C_37
REMARK    2  A    between atoms: C_3  and  C_23
REMARK    3  A    between atoms: C_4  and  C_8
REMARK    4  A    between atoms: C_11  and  N_14
REMARK    5  A    between atoms: N_14  and  S_16
REMARK    6  A    between atoms: N_20  and  C_28
REMARK    7  A    between atoms: C_28  and  C_29
REMARK    8  A    between atoms: C_33  and  O_35
REMARK                            x       y       z     vdW  Elec       q    Type
REMARK                         _______ _______ _______ _____ _____    ______ ____
ROOT
ATOM      1  N   UNL     1      40.688 -26.213 175.474  0.00  0.00    +0.000 N 
ATOM      2  N   UNL     1      40.755 -24.835 175.531  0.00  0.00    +0.000 NA
ATOM      3  C   UNL     1      38.904 -25.428 174.333  0.00  0.00    +0.000 A 
ATOM      4  C   UNL     1      39.680 -24.368 174.877  0.00  0.00    +0.000 A 
ATOM      5  C   UNL     1      39.570 -26.564 174.729  0.00  0.00    +0.000 A 
ENDROOT
BRANCH   4   8
ATOM      6 CL   UNL     1      37.816 -20.050 176.977  0.00  0.00    +0.000 Cl
ATOM      7  F   UNL     1      40.545 -22.817 172.636  0.00  0.00    +0.000 F 
ATOM      8  C   UNL     1      39.489 -22.926 174.775  0.00  0.00    +0.000 A 
ATOM      9  C   UNL     1      39.909 -22.206 173.650  0.00  0.00    +0.000 A 
ATOM     10  C   UNL     1      38.820 -22.248 175.795  0.00  0.00    +0.000 A 
ATOM     11  C   UNL     1      39.687 -20.828 173.553  0.00  0.00    +0.000 A 
ATOM     12  C   UNL     1      38.596 -20.879 175.697  0.00  0.00    +0.000 A 
ATOM     13  C   UNL     1      39.010 -20.169 174.576  0.00  0.00    +0.000 A 
BRANCH  11  14
ATOM     14  N   UNL     1      40.036 -20.131 172.347  0.00  0.00    +0.000 N 
ATOM     15  H   UNL     1      39.919 -20.702 171.505  0.00  0.00    +0.000 HD
BRANCH  14  16
ATOM     16  S   UNL     1      41.543 -19.403 172.269  0.00  0.00    +0.000 S 
ATOM     17  O   UNL     1      41.510 -18.210 171.466  0.00  0.00    +0.000 OA
ATOM     18  O   UNL     1      42.364 -19.611 173.441  0.00  0.00    +0.000 OA
ATOM     19  C   UNL     1      42.484 -20.401 171.154  0.00  0.00    +0.000 C 
ENDBRANCH  14  16
ENDBRANCH  11  14
ENDBRANCH   4   8
BRANCH   3  23
ATOM     20  N   UNL     1      34.236 -26.308 174.176  0.00  0.00    +0.000 N 
ATOM     21  N   UNL     1      36.566 -25.862 174.221  0.00  0.00    +0.000 NA
ATOM     22  N   UNL     1      35.304 -25.578 172.247  0.00  0.00    +0.000 NA
ATOM     23  C   UNL     1      37.671 -25.463 173.564  0.00  0.00    +0.000 A 
ATOM     24  C   UNL     1      35.410 -25.906 173.538  0.00  0.00    +0.000 A 
ATOM     25  C   UNL     1      37.663 -25.109 172.234  0.00  0.00    +0.000 A 
ATOM     26  C   UNL     1      36.434 -25.188 171.629  0.00  0.00    +0.000 A 
ATOM     27  H   UNL     1      33.538 -26.506 173.467  0.00  0.00    +0.000 HD
BRANCH  20  28
ATOM     28  C   UNL     1      34.375 -27.232 175.295  0.00  0.00    +0.000 C 
BRANCH  28  29
ATOM     29  C   UNL     1      34.554 -28.219 176.298  0.00  0.00    +0.000 C 
ATOM     30  C   UNL     1      34.121 -29.619 175.986  0.00  0.00    +0.000 C 
ATOM     31  O   UNL     1      35.610 -25.782 177.402  0.00  0.00    +0.000 OA
ATOM     32  N   UNL     1      35.273 -28.053 177.432  0.00  0.00    +0.000 N 
ATOM     33  C   UNL     1      35.796 -26.881 177.913  0.00  0.00    +0.000 C 
ATOM     34  H   UNL     1      35.463 -28.908 177.948  0.00  0.00    +0.000 HD
BRANCH  33  35
ATOM     35  O   UNL     1      36.535 -27.133 179.046  0.00  0.00    +0.000 OA
ATOM     36  C   UNL     1      37.282 -28.323 179.102  0.00  0.00    +0.000 C 
ENDBRANCH  33  35
ENDBRANCH  28  29
ENDBRANCH  20  28
ENDBRANCH   3  23
BRANCH   1  37
ATOM     37  C   UNL     1      41.579 -27.155 176.045  0.00  0.00    +0.000 C 
ATOM     38  C   UNL     1      43.077 -26.913 176.105  0.00  0.00    +0.000 C 
ATOM     39  C   UNL     1      41.098 -28.458 176.650  0.00  0.00    +0.000 C 
ENDBRANCH   1  37
TORSDOF 8
ENDMDL
MODEL 4
REMARK VINA RESULT:      -7.4     32.487     35.089
REMARK  Name = 50922675_Encorafenib.pdbqt.pdb
REMARK  8 active torsions:
REMARK  status: ('A' for Active; 'I' for Inactive)
REMARK    1  A    between atoms: N_1  and  C_37
REMARK    2  A    between atoms: C_3  and  C_23
REMARK    3  A    between atoms: C_4  and  C_8
REMARK    4  A    between atoms: C_11  and  N_14
REMARK    5  A    between atoms: N_14  and  S_16
REMARK    6  A    between atoms: N_20  and  C_28
REMARK    7  A    between atoms: C_28  and  C_29
REMARK    8  A    between atoms: C_33  and  O_35
REMARK                            x       y       z     vdW  Elec       q    Type
REMARK                         _______ _______ _______ _____ _____    ______ ____
ROOT
ATOM      1  N   UNL     1      40.872 -26.234 174.507  0.00  0.00    +0.000 N 
ATOM      2  N   UNL     1      39.641 -26.760 174.844  0.00  0.00    +0.000 NA
ATOM      3  C   UNL     1      39.566 -24.496 175.118  0.00  0.00    +0.000 A 
ATOM      4  C   UNL     1      38.856 -25.726 175.180  0.00  0.00    +0.000 A 
ATOM      5  C   UNL     1      40.823 -24.859 174.695  0.00  0.00    +0.000 A 
ENDROOT
BRANCH   4   8
ATOM      6 CL   UNL     1      35.534 -26.643 179.008  0.00  0.00    +0.000 Cl
ATOM      7  F   UNL     1      36.681 -25.957 173.337  0.00  0.00    +0.000 F 
ATOM      8  C   UNL     1      37.481 -25.987 175.586  0.00  0.00    +0.000 A 
ATOM      9  C   UNL     1      36.447 -26.114 174.650  0.00  0.00    +0.000 A 
ATOM     10  C   UNL     1      37.188 -26.175 176.938  0.00  0.00    +0.000 A 
ATOM     11  C   UNL     1      35.139 -26.400 175.056  0.00  0.00    +0.000 A 
ATOM     12  C   UNL     1      35.889 -26.463 177.342  0.00  0.00    +0.000 A 
ATOM     13  C   UNL     1      34.867 -26.592 176.409  0.00  0.00    +0.000 A 
BRANCH  11  14
ATOM     14  N   UNL     1      34.118 -26.625 174.072  0.00  0.00    +0.000 N 
ATOM     15  H   UNL     1      33.213 -26.223 174.332  0.00  0.00    +0.000 HD
BRANCH  14  16
ATOM     16  S   UNL     1      33.854 -28.199 173.561  0.00  0.00    +0.000 S 
ATOM     17  O   UNL     1      33.226 -28.235 172.268  0.00  0.00    +0.000 OA
ATOM     18  O   UNL     1      34.818 -29.154 174.060  0.00  0.00    +0.000 OA
ATOM     19  C   UNL     1      32.468 -28.765 174.501  0.00  0.00    +0.000 C 
ENDBRANCH  14  16
ENDBRANCH  11  14
ENDBRANCH   4   8
BRANCH   3  23
ATOM     20  N   UNL     1      38.754 -20.130 173.424  0.00  0.00    +0.000 N 
ATOM     21  N   UNL     1      39.154 -22.298 174.301  0.00  0.00    +0.000 NA
ATOM     22  N   UNL     1      38.498 -20.514 175.700  0.00  0.00    +0.000 NA
ATOM     23  C   UNL     1      39.187 -23.115 175.370  0.00  0.00    +0.000 A 
ATOM     24  C   UNL     1      38.808 -21.015 174.501  0.00  0.00    +0.000 A 
ATOM     25  C   UNL     1      38.888 -22.691 176.645  0.00  0.00    +0.000 A 
ATOM     26  C   UNL     1      38.547 -21.366 176.741  0.00  0.00    +0.000 A 
ATOM     27  H   UNL     1      38.714 -19.184 173.789  0.00  0.00    +0.000 HD
BRANCH  20  28
ATOM     28  C   UNL     1      39.638 -20.405 172.298  0.00  0.00    +0.000 C 
BRANCH  28  29
ATOM     29  C   UNL     1      40.537 -20.550 171.210  0.00  0.00    +0.000 C 
ATOM     30  C   UNL     1      39.961 -20.872 169.865  0.00  0.00    +0.000 C 
ATOM     31  O   UNL     1      42.163 -19.874 173.484  0.00  0.00    +0.000 OA
ATOM     32  N   UNL     1      41.848 -20.215 171.236  0.00  0.00    +0.000 N 
ATOM     33  C   UNL     1      42.588 -19.861 172.334  0.00  0.00    +0.000 C 
ATOM     34  H   UNL     1      42.305 -20.198 170.328  0.00  0.00    +0.000 HD
BRANCH  33  35
ATOM     35  O   UNL     1      43.859 -19.509 171.943  0.00  0.00    +0.000 OA
ATOM     36  C   UNL     1      44.942 -19.958 172.718  0.00  0.00    +0.000 C 
ENDBRANCH  33  35
ENDBRANCH  28  29
ENDBRANCH  20  28
ENDBRANCH   3  23
BRANCH   1  37
ATOM     37  C   UNL     1      42.024 -26.925 174.056  0.00  0.00    +0.000 C 
ATOM     38  C   UNL     1      43.428 -26.419 174.338  0.00  0.00    +0.000 C 
ATOM     39  C   UNL     1      41.934 -28.222 173.278  0.00  0.00    +0.000 C 
ENDBRANCH   1  37
TORSDOF 8
ENDMDL
MODEL 5
REMARK VINA RESULT:      -7.4      3.670      5.945
REMARK  Name = 50922675_Encorafenib.pdbqt.pdb
REMARK  8 active torsions:
REMARK  status: ('A' for Active; 'I' for Inactive)
REMARK    1  A    between atoms: N_1  and  C_37
REMARK    2  A    between atoms: C_3  and  C_23
REMARK    3  A    between atoms: C_4  and  C_8
REMARK    4  A    between atoms: C_11  and  N_14
REMARK    5  A    between atoms: N_14  and  S_16
REMARK    6  A    between atoms: N_20  and  C_28
REMARK    7  A    between atoms: C_28  and  C_29
REMARK    8  A    between atoms: C_33  and  O_35
REMARK                            x       y       z     vdW  Elec       q    Type
REMARK                         _______ _______ _______ _____ _____    ______ ____
ROOT
ATOM      1  N   UNL     1      22.818   3.636 187.967  0.00  0.00    +0.000 N 
ATOM      2  N   UNL     1      21.890   2.777 188.521  0.00  0.00    +0.000 NA
ATOM      3  C   UNL     1      23.449   3.291 190.107  0.00  0.00    +0.000 A 
ATOM      4  C   UNL     1      22.248   2.594 189.801  0.00  0.00    +0.000 A 
ATOM      5  C   UNL     1      23.772   3.928 188.933  0.00  0.00    +0.000 A 
ENDROOT
BRANCH   4   8
ATOM      6 CL   UNL     1      17.612   1.474 191.745  0.00  0.00    +0.000 Cl
ATOM      7  F   UNL     1      23.313   0.378 191.261  0.00  0.00    +0.000 F 
ATOM      8  C   UNL     1      21.439   1.720 190.641  0.00  0.00    +0.000 A 
ATOM      9  C   UNL     1      22.003   0.657 191.357  0.00  0.00    +0.000 A 
ATOM     10  C   UNL     1      20.074   1.978 190.787  0.00  0.00    +0.000 A 
ATOM     11  C   UNL     1      21.217  -0.151 192.186  0.00  0.00    +0.000 A 
ATOM     12  C   UNL     1      19.293   1.177 191.613  0.00  0.00    +0.000 A 
ATOM     13  C   UNL     1      19.859   0.126 192.326  0.00  0.00    +0.000 A 
BRANCH  11  14
ATOM     14  N   UNL     1      21.836  -1.169 192.987  0.00  0.00    +0.000 N 
ATOM     15  H   UNL     1      21.200  -1.938 193.222  0.00  0.00    +0.000 HD
BRANCH  14  16
ATOM     16  S   UNL     1      22.612  -0.696 194.395  0.00  0.00    +0.000 S 
ATOM     17  O   UNL     1      23.962  -1.189 194.442  0.00  0.00    +0.000 OA
ATOM     18  O   UNL     1      22.152   0.566 194.931  0.00  0.00    +0.000 OA
ATOM     19  C   UNL     1      21.948  -1.735 195.662  0.00  0.00    +0.000 C 
ENDBRANCH  14  16
ENDBRANCH  11  14
ENDBRANCH   4   8
BRANCH   3  23
ATOM     20  N   UNL     1      27.697   3.130 192.233  0.00  0.00    +0.000 N 
ATOM     21  N   UNL     1      25.561   3.216 191.201  0.00  0.00    +0.000 NA
ATOM     22  N   UNL     1      25.824   3.641 193.508  0.00  0.00    +0.000 NA
ATOM     23  C   UNL     1      24.238   3.426 191.321  0.00  0.00    +0.000 A 
ATOM     24  C   UNL     1      26.319   3.332 192.306  0.00  0.00    +0.000 A 
ATOM     25  C   UNL     1      23.636   3.745 192.517  0.00  0.00    +0.000 A 
ATOM     26  C   UNL     1      24.496   3.839 193.582  0.00  0.00    +0.000 A 
ATOM     27  H   UNL     1      28.055   3.023 193.176  0.00  0.00    +0.000 HD
BRANCH  20  28
ATOM     28  C   UNL     1      28.177   2.222 191.198  0.00  0.00    +0.000 C 
BRANCH  28  29
ATOM     29  C   UNL     1      28.537   1.269 190.211  0.00  0.00    +0.000 C 
ATOM     30  C   UNL     1      27.582   0.145 189.942  0.00  0.00    +0.000 C 
ATOM     31  O   UNL     1      30.669   3.199 190.248  0.00  0.00    +0.000 OA
ATOM     32  N   UNL     1      29.567   1.400 189.343  0.00  0.00    +0.000 N 
ATOM     33  C   UNL     1      30.549   2.356 189.365  0.00  0.00    +0.000 C 
ATOM     34  H   UNL     1      29.573   0.729 188.580  0.00  0.00    +0.000 HD
BRANCH  33  35
ATOM     35  O   UNL     1      31.365   2.210 188.268  0.00  0.00    +0.000 OA
ATOM     36  C   UNL     1      31.083   2.972 187.122  0.00  0.00    +0.000 C 
ENDBRANCH  33  35
ENDBRANCH  28  29
ENDBRANCH  20  28
ENDBRANCH   3  23
BRANCH   1  37
ATOM     37  C   UNL     1      22.851   4.152 186.648  0.00  0.00    +0.000 C 
ATOM     38  C   UNL     1      21.788   3.805 185.620  0.00  0.00    +0.000 C 
ATOM     39  C   UNL     1      23.937   5.099 186.178  0.00  0.00    +0.000 C 
ENDBRANCH   1  37
TORSDOF 8
ENDMDL
MODEL 6
REMARK VINA RESULT:      -7.4      3.863      5.832
REMARK  Name = 50922675_Encorafenib.pdbqt.pdb
REMARK  8 active torsions:
REMARK  status: ('A' for Active; 'I' for Inactive)
REMARK    1  A    between atoms: N_1  and  C_37
REMARK    2  A    between atoms: C_3  and  C_23
REMARK    3  A    between atoms: C_4  and  C_8
REMARK    4  A    between atoms: C_11  and  N_14
REMARK    5  A    between atoms: N_14  and  S_16
REMARK    6  A    between atoms: N_20  and  C_28
REMARK    7  A    between atoms: C_28  and  C_29
REMARK    8  A    between atoms: C_33  and  O_35
REMARK                            x       y       z     vdW  Elec       q    Type
REMARK                         _______ _______ _______ _____ _____    ______ ____
ROOT
ATOM      1  N   UNL     1      23.312   3.723 188.631  0.00  0.00    +0.000 N 
ATOM      2  N   UNL     1      22.143   3.534 189.341  0.00  0.00    +0.000 NA
ATOM      3  C   UNL     1      23.732   2.114 190.159  0.00  0.00    +0.000 A 
ATOM      4  C   UNL     1      22.399   2.598 190.268  0.00  0.00    +0.000 A 
ATOM      5  C   UNL     1      24.267   2.842 189.123  0.00  0.00    +0.000 A 
ENDROOT
BRANCH   4   8
ATOM      6 CL   UNL     1      17.460   1.273 190.877  0.00  0.00    +0.000 Cl
ATOM      7  F   UNL     1      22.747   2.314 193.092  0.00  0.00    +0.000 F 
ATOM      8  C   UNL     1      21.331   2.192 191.173  0.00  0.00    +0.000 A 
ATOM      9  C   UNL     1      21.537   2.085 192.554  0.00  0.00    +0.000 A 
ATOM     10  C   UNL     1      20.053   1.957 190.665  0.00  0.00    +0.000 A 
ATOM     11  C   UNL     1      20.492   1.726 193.412  0.00  0.00    +0.000 A 
ATOM     12  C   UNL     1      19.013   1.605 191.518  0.00  0.00    +0.000 A 
ATOM     13  C   UNL     1      19.220   1.504 192.889  0.00  0.00    +0.000 A 
BRANCH  11  14
ATOM     14  N   UNL     1      20.703   1.722 194.832  0.00  0.00    +0.000 N 
ATOM     15  H   UNL     1      21.694   1.708 195.092  0.00  0.00    +0.000 HD
BRANCH  14  16
ATOM     16  S   UNL     1      19.918   0.552 195.739  0.00  0.00    +0.000 S 
ATOM     17  O   UNL     1      18.625   1.004 196.177  0.00  0.00    +0.000 OA
ATOM     18  O   UNL     1      20.263  -0.806 195.381  0.00  0.00    +0.000 OA
ATOM     19  C   UNL     1      20.713   0.577 197.318  0.00  0.00    +0.000 C 
ENDBRANCH  14  16
ENDBRANCH  11  14
ENDBRANCH   4   8
BRANCH   3  23
ATOM     20  N   UNL     1      27.644   1.022 192.627  0.00  0.00    +0.000 N 
ATOM     21  N   UNL     1      25.680   1.535 191.398  0.00  0.00    +0.000 NA
ATOM     22  N   UNL     1      26.021  -0.611 192.319  0.00  0.00    +0.000 NA
ATOM     23  C   UNL     1      24.495   1.128 190.908  0.00  0.00    +0.000 A 
ATOM     24  C   UNL     1      26.411   0.647 192.093  0.00  0.00    +0.000 A 
ATOM     25  C   UNL     1      24.010  -0.148 191.083  0.00  0.00    +0.000 A 
ATOM     26  C   UNL     1      24.831  -0.975 191.807  0.00  0.00    +0.000 A 
ATOM     27  H   UNL     1      28.143   0.182 192.900  0.00  0.00    +0.000 HD
BRANCH  20  28
ATOM     28  C   UNL     1      28.375   2.071 191.927  0.00  0.00    +0.000 C 
BRANCH  28  29
ATOM     29  C   UNL     1      29.147   2.997 191.180  0.00  0.00    +0.000 C 
ATOM     30  C   UNL     1      29.625   4.233 191.880  0.00  0.00    +0.000 C 
ATOM     31  O   UNL     1      28.578   0.825 189.383  0.00  0.00    +0.000 OA
ATOM     32  N   UNL     1      29.667   2.764 189.953  0.00  0.00    +0.000 N 
ATOM     33  C   UNL     1      29.404   1.697 189.134  0.00  0.00    +0.000 C 
ATOM     34  H   UNL     1      30.351   3.448 189.640  0.00  0.00    +0.000 HD
BRANCH  33  35
ATOM     35  O   UNL     1      30.191   1.771 188.008  0.00  0.00    +0.000 OA
ATOM     36  C   UNL     1      30.844   2.984 187.731  0.00  0.00    +0.000 C 
ENDBRANCH  33  35
ENDBRANCH  28  29
ENDBRANCH  20  28
ENDBRANCH   3  23
BRANCH   1  37
ATOM     37  C   UNL     1      23.552   4.630 187.570  0.00  0.00    +0.000 C 
ATOM     38  C   UNL     1      22.751   4.591 186.280  0.00  0.00    +0.000 C 
ATOM     39  C   UNL     1      24.610   5.711 187.655  0.00  0.00    +0.000 C 
ENDBRANCH   1  37
TORSDOF 8
ENDMDL
MODEL 7
REMARK VINA RESULT:      -7.4      4.087      7.213
REMARK  Name = 50922675_Encorafenib.pdbqt.pdb
REMARK  8 active torsions:
REMARK  status: ('A' for Active; 'I' for Inactive)
REMARK    1  A    between atoms: N_1  and  C_37
REMARK    2  A    between atoms: C_3  and  C_23
REMARK    3  A    between atoms: C_4  and  C_8
REMARK    4  A    between atoms: C_11  and  N_14
REMARK    5  A    between atoms: N_14  and  S_16
REMARK    6  A    between atoms: N_20  and  C_28
REMARK    7  A    between atoms: C_28  and  C_29
REMARK    8  A    between atoms: C_33  and  O_35
REMARK                            x       y       z     vdW  Elec       q    Type
REMARK                         _______ _______ _______ _____ _____    ______ ____
ROOT
ATOM      1  N   UNL     1      19.703   1.309 190.709  0.00  0.00    +0.000 N 
ATOM      2  N   UNL     1      19.750   0.953 192.042  0.00  0.00    +0.000 NA
ATOM      3  C   UNL     1      21.870   0.905 191.197  0.00  0.00    +0.000 A 
ATOM      4  C   UNL     1      21.041   0.740 192.341  0.00  0.00    +0.000 A 
ATOM      5  C   UNL     1      20.994   1.259 190.200  0.00  0.00    +0.000 A 
ENDROOT
BRANCH   4   8
ATOM      6 CL   UNL     1      20.314  -2.509 196.270  0.00  0.00    +0.000 Cl
ATOM      7  F   UNL     1      22.935   2.151 193.954  0.00  0.00    +0.000 F 
ATOM      8  C   UNL     1      21.394   0.344 193.698  0.00  0.00    +0.000 A 
ATOM      9  C   UNL     1      22.312   1.075 194.464  0.00  0.00    +0.000 A 
ATOM     10  C   UNL     1      20.763  -0.757 194.279  0.00  0.00    +0.000 A 
ATOM     11  C   UNL     1      22.614   0.700 195.777  0.00  0.00    +0.000 A 
ATOM     12  C   UNL     1      21.060  -1.127 195.586  0.00  0.00    +0.000 A 
ATOM     13  C   UNL     1      21.968  -0.397 196.343  0.00  0.00    +0.000 A 
BRANCH  11  14
ATOM     14  N   UNL     1      23.480   1.523 196.574  0.00  0.00    +0.000 N 
ATOM     15  H   UNL     1      23.382   2.523 196.373  0.00  0.00    +0.000 HD
BRANCH  14  16
ATOM     16  S   UNL     1      25.116   1.160 196.585  0.00  0.00    +0.000 S 
ATOM     17  O   UNL     1      25.707   1.436 197.867  0.00  0.00    +0.000 OA
ATOM     18  O   UNL     1      25.491   0.085 195.693  0.00  0.00    +0.000 OA
ATOM     19  C   UNL     1      25.889   2.475 195.691  0.00  0.00    +0.000 C 
ENDBRANCH  14  16
ENDBRANCH  11  14
ENDBRANCH   4   8
BRANCH   3  23
ATOM     20  N   UNL     1      25.869   2.780 189.442  0.00  0.00    +0.000 N 
ATOM     21  N   UNL     1      23.890   1.816 190.328  0.00  0.00    +0.000 NA
ATOM     22  N   UNL     1      25.975   0.727 190.524  0.00  0.00    +0.000 NA
ATOM     23  C   UNL     1      23.305   0.799 190.987  0.00  0.00    +0.000 A 
ATOM     24  C   UNL     1      25.215   1.748 190.116  0.00  0.00    +0.000 A 
ATOM     25  C   UNL     1      24.002  -0.297 191.442  0.00  0.00    +0.000 A 
ATOM     26  C   UNL     1      25.347  -0.268 191.176  0.00  0.00    +0.000 A 
ATOM     27  H   UNL     1      26.790   2.452 189.171  0.00  0.00    +0.000 HD
BRANCH  20  28
ATOM     28  C   UNL     1      25.085   3.537 188.473  0.00  0.00    +0.000 C 
BRANCH  28  29
ATOM     29  C   UNL     1      24.373   4.380 187.583  0.00  0.00    +0.000 C 
ATOM     30  C   UNL     1      24.854   5.789 187.417  0.00  0.00    +0.000 C 
ATOM     31  O   UNL     1      23.070   1.819 187.446  0.00  0.00    +0.000 OA
ATOM     32  N   UNL     1      23.425   3.965 186.710  0.00  0.00    +0.000 N 
ATOM     33  C   UNL     1      22.850   2.722 186.646  0.00  0.00    +0.000 C 
ATOM     34  H   UNL     1      23.151   4.653 186.014  0.00  0.00    +0.000 HD
BRANCH  33  35
ATOM     35  O   UNL     1      21.993   2.662 185.571  0.00  0.00    +0.000 OA
ATOM     36  C   UNL     1      20.851   3.481 185.583  0.00  0.00    +0.000 C 
ENDBRANCH  33  35
ENDBRANCH  28  29
ENDBRANCH  20  28
ENDBRANCH   3  23
BRANCH   1  37
ATOM     37  C   UNL     1      18.567   1.661 189.939  0.00  0.00    +0.000 C 
ATOM     38  C   UNL     1      18.690   2.330 188.581  0.00  0.00    +0.000 C 
ATOM     39  C   UNL     1      17.154   1.380 190.409  0.00  0.00    +0.000 C 
ENDBRANCH   1  37
TORSDOF 8
ENDMDL
MODEL 8
REMARK VINA RESULT:      -7.4      3.762      7.014
REMARK  Name = 50922675_Encorafenib.pdbqt.pdb
REMARK  8 active torsions:
REMARK  status: ('A' for Active; 'I' for Inactive)
REMARK    1  A    between atoms: N_1  and  C_37
REMARK    2  A    between atoms: C_3  and  C_23
REMARK    3  A    between atoms: C_4  and  C_8
REMARK    4  A    between atoms: C_11  and  N_14
REMARK    5  A    between atoms: N_14  and  S_16
REMARK    6  A    between atoms: N_20  and  C_28
REMARK    7  A    between atoms: C_28  and  C_29
REMARK    8  A    between atoms: C_33  and  O_35
REMARK                            x       y       z     vdW  Elec       q    Type
REMARK                         _______ _______ _______ _____ _____    ______ ____
ROOT
ATOM      1  N   UNL     1      20.528   3.417 189.729  0.00  0.00    +0.000 N 
ATOM      2  N   UNL     1      21.862   3.093 189.870  0.00  0.00    +0.000 NA
ATOM      3  C   UNL     1      20.718   2.286 191.674  0.00  0.00    +0.000 A 
ATOM      4  C   UNL     1      21.972   2.397 191.012  0.00  0.00    +0.000 A 
ATOM      5  C   UNL     1      19.843   2.938 190.838  0.00  0.00    +0.000 A 
ENDROOT
BRANCH   4   8
ATOM      6 CL   UNL     1      24.996  -1.606 192.181  0.00  0.00    +0.000 Cl
ATOM      7  F   UNL     1      24.177   4.130 191.573  0.00  0.00    +0.000 F 
ATOM      8  C   UNL     1      23.287   1.919 191.423  0.00  0.00    +0.000 A 
ATOM      9  C   UNL     1      24.335   2.803 191.708  0.00  0.00    +0.000 A 
ATOM     10  C   UNL     1      23.498   0.550 191.594  0.00  0.00    +0.000 A 
ATOM     11  C   UNL     1      25.581   2.329 192.134  0.00  0.00    +0.000 A 
ATOM     12  C   UNL     1      24.735   0.079 192.021  0.00  0.00    +0.000 A 
ATOM     13  C   UNL     1      25.771   0.960 192.308  0.00  0.00    +0.000 A 
BRANCH  11  14
ATOM     14  N   UNL     1      26.606   3.258 192.518  0.00  0.00    +0.000 N 
ATOM     15  H   UNL     1      26.255   4.211 192.653  0.00  0.00    +0.000 HD
BRANCH  14  16
ATOM     16  S   UNL     1      27.980   3.349 191.563  0.00  0.00    +0.000 S 
ATOM     17  O   UNL     1      27.690   3.031 190.191  0.00  0.00    +0.000 OA
ATOM     18  O   UNL     1      28.957   4.312 192.020  0.00  0.00    +0.000 OA
ATOM     19  C   UNL     1      28.905   1.891 191.943  0.00  0.00    +0.000 C 
ENDBRANCH  14  16
ENDBRANCH  11  14
ENDBRANCH   4   8
BRANCH   3  23
ATOM     20  N   UNL     1      21.697   1.095 196.170  0.00  0.00    +0.000 N 
ATOM     21  N   UNL     1      21.179   1.673 193.927  0.00  0.00    +0.000 NA
ATOM     22  N   UNL     1      19.648   0.476 195.267  0.00  0.00    +0.000 NA
ATOM     23  C   UNL     1      20.300   1.642 192.909  0.00  0.00    +0.000 A 
ATOM     24  C   UNL     1      20.823   1.085 195.082  0.00  0.00    +0.000 A 
ATOM     25  C   UNL     1      19.068   1.036 193.001  0.00  0.00    +0.000 A 
ATOM     26  C   UNL     1      18.802   0.467 194.221  0.00  0.00    +0.000 A 
ATOM     27  H   UNL     1      21.369   0.417 196.849  0.00  0.00    +0.000 HD
BRANCH  20  28
ATOM     28  C   UNL     1      23.123   1.147 195.870  0.00  0.00    +0.000 C 
BRANCH  28  29
ATOM     29  C   UNL     1      24.530   1.143 195.694  0.00  0.00    +0.000 C 
ATOM     30  C   UNL     1      25.241   2.462 195.712  0.00  0.00    +0.000 C 
ATOM     31  O   UNL     1      23.728  -1.618 195.644  0.00  0.00    +0.000 OA
ATOM     32  N   UNL     1      25.314   0.040 195.722  0.00  0.00    +0.000 N 
ATOM     33  C   UNL     1      24.899  -1.266 195.735  0.00  0.00    +0.000 C 
ATOM     34  H   UNL     1      26.312   0.223 195.773  0.00  0.00    +0.000 HD
BRANCH  33  35
ATOM     35  O   UNL     1      25.988  -2.098 195.851  0.00  0.00    +0.000 OA
ATOM     36  C   UNL     1      25.771  -3.428 196.251  0.00  0.00    +0.000 C 
ENDBRANCH  33  35
ENDBRANCH  28  29
ENDBRANCH  20  28
ENDBRANCH   3  23
BRANCH   1  37
ATOM     37  C   UNL     1      19.908   4.121 188.667  0.00  0.00    +0.000 C 
ATOM     38  C   UNL     1      19.075   3.417 187.610  0.00  0.00    +0.000 C 
ATOM     39  C   UNL     1      20.019   5.625 188.523  0.00  0.00    +0.000 C 
ENDBRANCH   1  37
TORSDOF 8
ENDMDL
MODEL 9
REMARK VINA RESULT:      -7.3      4.218      7.125
REMARK  Name = 50922675_Encorafenib.pdbqt.pdb
REMARK  8 active torsions:
REMARK  status: ('A' for Active; 'I' for Inactive)
REMARK    1  A    between atoms: N_1  and  C_37
REMARK    2  A    between atoms: C_3  and  C_23
REMARK    3  A    between atoms: C_4  and  C_8
REMARK    4  A    between atoms: C_11  and  N_14
REMARK    5  A    between atoms: N_14  and  S_16
REMARK    6  A    between atoms: N_20  and  C_28
REMARK    7  A    between atoms: C_28  and  C_29
REMARK    8  A    between atoms: C_33  and  O_35
REMARK                            x       y       z     vdW  Elec       q    Type
REMARK                         _______ _______ _______ _____ _____    ______ ____
ROOT
ATOM      1  N   UNL     1      25.208  -1.890 195.597  0.00  0.00    +0.000 N 
ATOM      2  N   UNL     1      23.830  -1.825 195.556  0.00  0.00    +0.000 NA
ATOM      3  C   UNL     1      24.674   0.219 194.990  0.00  0.00    +0.000 A 
ATOM      4  C   UNL     1      23.511  -0.580 195.169  0.00  0.00    +0.000 A 
ATOM      5  C   UNL     1      25.712  -0.638 195.269  0.00  0.00    +0.000 A 
ENDROOT
BRANCH   4   8
ATOM      6 CL   UNL     1      19.154   0.907 197.476  0.00  0.00    +0.000 Cl
ATOM      7  F   UNL     1      22.098  -0.609 192.683  0.00  0.00    +0.000 F 
ATOM      8  C   UNL     1      22.105  -0.220 195.038  0.00  0.00    +0.000 A 
ATOM      9  C   UNL     1      21.444  -0.267 193.805  0.00  0.00    +0.000 A 
ATOM     10  C   UNL     1      21.377   0.126 196.178  0.00  0.00    +0.000 A 
ATOM     11  C   UNL     1      20.085   0.049 193.704  0.00  0.00    +0.000 A 
ATOM     12  C   UNL     1      20.025   0.437 196.078  0.00  0.00    +0.000 A 
ATOM     13  C   UNL     1      19.371   0.384 194.853  0.00  0.00    +0.000 A 
BRANCH  11  14
ATOM     14  N   UNL     1      19.406  -0.105 192.448  0.00  0.00    +0.000 N 
ATOM     15  H   UNL     1      19.743  -0.905 191.904  0.00  0.00    +0.000 HD
BRANCH  14  16
ATOM     16  S   UNL     1      19.340   1.220 191.425  0.00  0.00    +0.000 S 
ATOM     17  O   UNL     1      19.911   2.389 192.038  0.00  0.00    +0.000 OA
ATOM     18  O   UNL     1      19.401   0.887 190.019  0.00  0.00    +0.000 OA
ATOM     19  C   UNL     1      17.654   1.749 191.458  0.00  0.00    +0.000 C 
ENDBRANCH  14  16
ENDBRANCH  11  14
ENDBRANCH   4   8
BRANCH   3  23
ATOM     20  N   UNL     1      23.595   3.783 192.037  0.00  0.00    +0.000 N 
ATOM     21  N   UNL     1      24.157   2.023 193.527  0.00  0.00    +0.000 NA
ATOM     22  N   UNL     1      25.165   4.149 193.709  0.00  0.00    +0.000 NA
ATOM     23  C   UNL     1      24.878   1.599 194.580  0.00  0.00    +0.000 A 
ATOM     24  C   UNL     1      24.324   3.294 193.121  0.00  0.00    +0.000 A 
ATOM     25  C   UNL     1      25.773   2.404 195.248  0.00  0.00    +0.000 A 
ATOM     26  C   UNL     1      25.868   3.682 194.757  0.00  0.00    +0.000 A 
ATOM     27  H   UNL     1      24.016   4.655 191.736  0.00  0.00    +0.000 HD
BRANCH  20  28
ATOM     28  C   UNL     1      23.191   2.816 191.023  0.00  0.00    +0.000 C 
BRANCH  28  29
ATOM     29  C   UNL     1      22.854   1.954 189.949  0.00  0.00    +0.000 C 
ATOM     30  C   UNL     1      23.356   0.542 190.001  0.00  0.00    +0.000 C 
ATOM     31  O   UNL     1      21.585   4.467 189.361  0.00  0.00    +0.000 OA
ATOM     32  N   UNL     1      21.944   2.231 188.985  0.00  0.00    +0.000 N 
ATOM     33  C   UNL     1      21.328   3.433 188.754  0.00  0.00    +0.000 C 
ATOM     34  H   UNL     1      21.679   1.439 188.406  0.00  0.00    +0.000 HD
BRANCH  33  35
ATOM     35  O   UNL     1      20.405   3.294 187.743  0.00  0.00    +0.000 OA
ATOM     36  C   UNL     1      20.593   2.263 186.808  0.00  0.00    +0.000 C 
ENDBRANCH  33  35
ENDBRANCH  28  29
ENDBRANCH  20  28
ENDBRANCH   3  23
BRANCH   1  37
ATOM     37  C   UNL     1      26.020  -3.005 195.921  0.00  0.00    +0.000 C 
ATOM     38  C   UNL     1      27.191  -3.428 195.050  0.00  0.00    +0.000 C 
ATOM     39  C   UNL     1      25.788  -3.839 197.164  0.00  0.00    +0.000 C 
ENDBRANCH   1  37
TORSDOF 8
ENDMDL
