MODEL 1
REMARK VINA RESULT:      -8.0      0.000      0.000
REMARK  Name = 5109870_Ethoxyphenyl.pdbqt.pdb
REMARK  6 active torsions:
REMARK  status: ('A' for Active; 'I' for Inactive)
REMARK    1  A    between atoms: N_2  and  C_22
REMARK    2  A    between atoms: C_3  and  O_11
REMARK    3  A    between atoms: C_3  and  C_13
REMARK    4  A    between atoms: C_16  and  N_19
REMARK    5  A    between atoms: C_25  and  O_28
REMARK    6  A    between atoms: O_28  and  C_29
REMARK                            x       y       z     vdW  Elec       q    Type
REMARK                         _______ _______ _______ _____ _____    ______ ____
ROOT
ATOM      1  N   UNL     1      20.412   2.529 188.574  0.00  0.00    +0.000 N 
ATOM      2  N   UNL     1      22.290   2.660 190.061  0.00  0.00    +0.000 N 
ATOM      3  C   UNL     1      20.999   3.865 188.314  0.00  0.00    +0.000 C 
ATOM      4  C   UNL     1      21.142   1.958 189.750  0.00  0.00    +0.000 C 
ATOM      5  C   UNL     1      22.187   3.783 189.167  0.00  0.00    +0.000 C 
ATOM      6  C   UNL     1      18.960   2.425 188.716  0.00  0.00    +0.000 C 
ATOM      7  C   UNL     1      20.468   1.124 190.689  0.00  0.00    +0.000 C 
ATOM      8  C   UNL     1      17.722   1.859 189.431  0.00  0.00    +0.000 C 
ATOM      9  C   UNL     1      19.128   0.602 191.232  0.00  0.00    +0.000 C 
ATOM     10  C   UNL     1      17.759   0.950 190.655  0.00  0.00    +0.000 C 
ENDROOT
BRANCH   3  11
ATOM     11  C   UNL     1      21.286   4.071 186.845  0.00  0.00    +0.000 A 
ATOM     12  C   UNL     1      22.183   5.054 186.405  0.00  0.00    +0.000 A 
ATOM     13  C   UNL     1      22.474   5.209 185.052  0.00  0.00    +0.000 A 
ATOM     14  C   UNL     1      21.869   4.359 184.131  0.00  0.00    +0.000 A 
ATOM     15  C   UNL     1      20.986   3.362 184.535  0.00  0.00    +0.000 A 
ATOM     16  C   UNL     1      20.706   3.221 185.891  0.00  0.00    +0.000 A 
BRANCH  14  17
ATOM     17  N   UNL     1      22.166   4.514 182.721  0.00  0.00    +0.000 N 
ATOM     18  O   UNL     1      23.227   5.077 182.417  0.00  0.00    +0.000 OA
ATOM     19  O   UNL     1      21.342   4.075 181.907  0.00  0.00    +0.000 OA
ENDBRANCH  14  17
ENDBRANCH   3  11
BRANCH   2  20
ATOM     20  C   UNL     1      23.137   2.631 191.180  0.00  0.00    +0.000 A 
ATOM     21  C   UNL     1      24.048   1.592 191.394  0.00  0.00    +0.000 A 
ATOM     22  C   UNL     1      24.901   1.584 192.498  0.00  0.00    +0.000 A 
ATOM     23  C   UNL     1      24.867   2.630 193.416  0.00  0.00    +0.000 A 
ATOM     24  C   UNL     1      23.977   3.681 193.218  0.00  0.00    +0.000 A 
ATOM     25  C   UNL     1      23.128   3.679 192.111  0.00  0.00    +0.000 A 
BRANCH  23  26
ATOM     26  O   UNL     1      25.661   2.718 194.530  0.00  0.00    +0.000 OA
BRANCH  26  27
ATOM     27  C   UNL     1      25.118   2.236 195.645  0.00  0.00    +0.000 C 
ATOM     28  C   UNL     1      24.506   1.684 196.939  0.00  0.00    +0.000 C 
ENDBRANCH  26  27
ENDBRANCH  23  26
ENDBRANCH   2  20
BRANCH   3  29
ATOM     29  O   UNL     1      20.193   4.933 188.795  0.00  0.00    +0.000 OA
ATOM     30  H   UNL     1      20.493   5.717 188.305  0.00  0.00    +0.000 HD
ENDBRANCH   3  29
TORSDOF 6
ENDMDL
MODEL 2
REMARK VINA RESULT:      -8.0      3.749      6.119
REMARK  Name = 5109870_Ethoxyphenyl.pdbqt.pdb
REMARK  6 active torsions:
REMARK  status: ('A' for Active; 'I' for Inactive)
REMARK    1  A    between atoms: N_2  and  C_22
REMARK    2  A    between atoms: C_3  and  O_11
REMARK    3  A    between atoms: C_3  and  C_13
REMARK    4  A    between atoms: C_16  and  N_19
REMARK    5  A    between atoms: C_25  and  O_28
REMARK    6  A    between atoms: O_28  and  C_29
REMARK                            x       y       z     vdW  Elec       q    Type
REMARK                         _______ _______ _______ _____ _____    ______ ____
ROOT
ATOM      1  N   UNL     1      23.384   2.470 188.020  0.00  0.00    +0.000 N 
ATOM      2  N   UNL     1      22.167   1.753 189.961  0.00  0.00    +0.000 N 
ATOM      3  C   UNL     1      24.163   3.000 189.164  0.00  0.00    +0.000 C 
ATOM      4  C   UNL     1      22.123   1.894 188.587  0.00  0.00    +0.000 C 
ATOM      5  C   UNL     1      23.412   2.404 190.272  0.00  0.00    +0.000 C 
ATOM      6  C   UNL     1      23.130   3.356 186.885  0.00  0.00    +0.000 C 
ATOM      7  C   UNL     1      20.901   1.959 187.856  0.00  0.00    +0.000 C 
ATOM      8  C   UNL     1      22.183   3.917 185.810  0.00  0.00    +0.000 C 
ATOM      9  C   UNL     1      20.125   2.572 186.679  0.00  0.00    +0.000 C 
ATOM     10  C   UNL     1      20.710   3.549 185.663  0.00  0.00    +0.000 C 
ENDROOT
BRANCH   3  11
ATOM     11  C   UNL     1      25.614   2.588 189.087  0.00  0.00    +0.000 A 
ATOM     12  C   UNL     1      26.648   3.530 189.181  0.00  0.00    +0.000 A 
ATOM     13  C   UNL     1      27.984   3.137 189.153  0.00  0.00    +0.000 A 
ATOM     14  C   UNL     1      28.286   1.783 189.042  0.00  0.00    +0.000 A 
ATOM     15  C   UNL     1      27.284   0.820 188.962  0.00  0.00    +0.000 A 
ATOM     16  C   UNL     1      25.955   1.230 188.992  0.00  0.00    +0.000 A 
BRANCH  14  17
ATOM     17  N   UNL     1      29.674   1.367 189.010  0.00  0.00    +0.000 N 
ATOM     18  O   UNL     1      30.449   2.008 188.287  0.00  0.00    +0.000 OA
ATOM     19  O   UNL     1      30.001   0.396 189.708  0.00  0.00    +0.000 OA
ENDBRANCH  14  17
ENDBRANCH   3  11
BRANCH   2  20
ATOM     20  C   UNL     1      21.171   1.481 190.911  0.00  0.00    +0.000 A 
ATOM     21  C   UNL     1      20.047   2.300 191.063  0.00  0.00    +0.000 A 
ATOM     22  C   UNL     1      19.051   2.008 191.995  0.00  0.00    +0.000 A 
ATOM     23  C   UNL     1      19.155   0.875 192.798  0.00  0.00    +0.000 A 
ATOM     24  C   UNL     1      20.258   0.039 192.657  0.00  0.00    +0.000 A 
ATOM     25  C   UNL     1      21.248   0.340 191.722  0.00  0.00    +0.000 A 
BRANCH  23  26
ATOM     26  O   UNL     1      18.233   0.499 193.741  0.00  0.00    +0.000 OA
BRANCH  26  27
ATOM     27  C   UNL     1      18.667   0.548 194.998  0.00  0.00    +0.000 C 
ATOM     28  C   UNL     1      19.154   0.613 196.451  0.00  0.00    +0.000 C 
ENDBRANCH  26  27
ENDBRANCH  23  26
ENDBRANCH   2  20
BRANCH   3  29
ATOM     29  O   UNL     1      24.077   4.413 189.293  0.00  0.00    +0.000 OA
ATOM     30  H   UNL     1      24.934   4.687 189.658  0.00  0.00    +0.000 HD
ENDBRANCH   3  29
TORSDOF 6
ENDMDL
MODEL 3
REMARK VINA RESULT:      -7.9      3.627      8.819
REMARK  Name = 5109870_Ethoxyphenyl.pdbqt.pdb
REMARK  6 active torsions:
REMARK  status: ('A' for Active; 'I' for Inactive)
REMARK    1  A    between atoms: N_2  and  C_22
REMARK    2  A    between atoms: C_3  and  O_11
REMARK    3  A    between atoms: C_3  and  C_13
REMARK    4  A    between atoms: C_16  and  N_19
REMARK    5  A    between atoms: C_25  and  O_28
REMARK    6  A    between atoms: O_28  and  C_29
REMARK                            x       y       z     vdW  Elec       q    Type
REMARK                         _______ _______ _______ _____ _____    ______ ____
ROOT
ATOM      1  N   UNL     1      24.126   1.096 192.320  0.00  0.00    +0.000 N 
ATOM      2  N   UNL     1      24.465   2.256 190.247  0.00  0.00    +0.000 N 
ATOM      3  C   UNL     1      24.822   0.115 191.454  0.00  0.00    +0.000 C 
ATOM      4  C   UNL     1      23.802   2.277 191.459  0.00  0.00    +0.000 C 
ATOM      5  C   UNL     1      25.085   0.958 190.286  0.00  0.00    +0.000 C 
ATOM      6  C   UNL     1      22.974   0.641 193.097  0.00  0.00    +0.000 C 
ATOM      7  C   UNL     1      22.610   3.029 191.674  0.00  0.00    +0.000 C 
ATOM      8  C   UNL     1      21.548   0.860 193.632  0.00  0.00    +0.000 C 
ATOM      9  C   UNL     1      21.233   3.111 192.353  0.00  0.00    +0.000 C 
ATOM     10  C   UNL     1      20.667   2.061 193.306  0.00  0.00    +0.000 C 
ENDROOT
BRANCH   3  11
ATOM     11  C   UNL     1      26.055  -0.443 192.125  0.00  0.00    +0.000 A 
ATOM     12  C   UNL     1      27.249   0.290 192.188  0.00  0.00    +0.000 A 
ATOM     13  C   UNL     1      28.369  -0.213 192.846  0.00  0.00    +0.000 A 
ATOM     14  C   UNL     1      28.286  -1.460 193.459  0.00  0.00    +0.000 A 
ATOM     15  C   UNL     1      27.112  -2.207 193.429  0.00  0.00    +0.000 A 
ATOM     16  C   UNL     1      26.002  -1.689 192.767  0.00  0.00    +0.000 A 
BRANCH  14  17
ATOM     17  N   UNL     1      29.447  -1.991 194.144  0.00  0.00    +0.000 N 
ATOM     18  O   UNL     1      29.284  -2.437 195.289  0.00  0.00    +0.000 OA
ATOM     19  O   UNL     1      30.531  -1.968 193.544  0.00  0.00    +0.000 OA
ENDBRANCH  14  17
ENDBRANCH   3  11
BRANCH   2  20
ATOM     20  C   UNL     1      24.302   3.007 189.072  0.00  0.00    +0.000 A 
ATOM     21  C   UNL     1      23.416   2.620 188.061  0.00  0.00    +0.000 A 
ATOM     22  C   UNL     1      23.244   3.385 186.908  0.00  0.00    +0.000 A 
ATOM     23  C   UNL     1      23.957   4.571 186.743  0.00  0.00    +0.000 A 
ATOM     24  C   UNL     1      24.836   4.982 187.740  0.00  0.00    +0.000 A 
ATOM     25  C   UNL     1      25.000   4.209 188.889  0.00  0.00    +0.000 A 
BRANCH  23  26
ATOM     26  O   UNL     1      23.861   5.394 185.650  0.00  0.00    +0.000 OA
BRANCH  26  27
ATOM     27  C   UNL     1      22.980   5.005 184.731  0.00  0.00    +0.000 C 
ATOM     28  C   UNL     1      21.964   4.573 183.667  0.00  0.00    +0.000 C 
ENDBRANCH  26  27
ENDBRANCH  23  26
ENDBRANCH   2  20
BRANCH   3  29
ATOM     29  O   UNL     1      23.984  -0.955 191.036  0.00  0.00    +0.000 OA
ATOM     30  H   UNL     1      24.146  -1.047 190.083  0.00  0.00    +0.000 HD
ENDBRANCH   3  29
TORSDOF 6
ENDMDL
MODEL 4
REMARK VINA RESULT:      -7.8      3.963      7.624
REMARK  Name = 5109870_Ethoxyphenyl.pdbqt.pdb
REMARK  6 active torsions:
REMARK  status: ('A' for Active; 'I' for Inactive)
REMARK    1  A    between atoms: N_2  and  C_22
REMARK    2  A    between atoms: C_3  and  O_11
REMARK    3  A    between atoms: C_3  and  C_13
REMARK    4  A    between atoms: C_16  and  N_19
REMARK    5  A    between atoms: C_25  and  O_28
REMARK    6  A    between atoms: O_28  and  C_29
REMARK                            x       y       z     vdW  Elec       q    Type
REMARK                         _______ _______ _______ _____ _____    ______ ____
ROOT
ATOM      1  N   UNL     1      21.278   3.226 190.766  0.00  0.00    +0.000 N 
ATOM      2  N   UNL     1      23.591   2.620 190.559  0.00  0.00    +0.000 N 
ATOM      3  C   UNL     1      21.308   1.771 191.047  0.00  0.00    +0.000 C 
ATOM      4  C   UNL     1      22.655   3.606 190.316  0.00  0.00    +0.000 C 
ATOM      5  C   UNL     1      22.755   1.543 191.019  0.00  0.00    +0.000 C 
ATOM      6  C   UNL     1      20.239   3.739 189.875  0.00  0.00    +0.000 C 
ATOM      7  C   UNL     1      22.844   4.627 189.339  0.00  0.00    +0.000 C 
ATOM      8  C   UNL     1      19.797   4.655 188.721  0.00  0.00    +0.000 C 
ATOM      9  C   UNL     1      22.213   5.523 188.261  0.00  0.00    +0.000 C 
ATOM     10  C   UNL     1      20.728   5.556 187.915  0.00  0.00    +0.000 C 
ENDROOT
BRANCH   3  11
ATOM     11  C   UNL     1      20.640   1.444 192.362  0.00  0.00    +0.000 A 
ATOM     12  C   UNL     1      19.347   0.906 192.413  0.00  0.00    +0.000 A 
ATOM     13  C   UNL     1      18.755   0.567 193.627  0.00  0.00    +0.000 A 
ATOM     14  C   UNL     1      19.474   0.759 194.803  0.00  0.00    +0.000 A 
ATOM     15  C   UNL     1      20.765   1.277 194.789  0.00  0.00    +0.000 A 
ATOM     16  C   UNL     1      21.342   1.610 193.566  0.00  0.00    +0.000 A 
BRANCH  14  17
ATOM     17  N   UNL     1      18.864   0.411 196.071  0.00  0.00    +0.000 N 
ATOM     18  O   UNL     1      19.367   0.884 197.100  0.00  0.00    +0.000 OA
ATOM     19  O   UNL     1      17.877  -0.338 196.049  0.00  0.00    +0.000 OA
ENDBRANCH  14  17
ENDBRANCH   3  11
BRANCH   2  20
ATOM     20  C   UNL     1      24.912   2.446 190.116  0.00  0.00    +0.000 A 
ATOM     21  C   UNL     1      25.983   3.142 190.686  0.00  0.00    +0.000 A 
ATOM     22  C   UNL     1      27.294   2.945 190.255  0.00  0.00    +0.000 A 
ATOM     23  C   UNL     1      27.567   2.032 189.239  0.00  0.00    +0.000 A 
ATOM     24  C   UNL     1      26.519   1.320 188.664  0.00  0.00    +0.000 A 
ATOM     25  C   UNL     1      25.211   1.525 189.103  0.00  0.00    +0.000 A 
BRANCH  23  26
ATOM     26  O   UNL     1      28.817   1.765 188.744  0.00  0.00    +0.000 OA
BRANCH  26  27
ATOM     27  C   UNL     1      29.673   2.783 188.802  0.00  0.00    +0.000 C 
ATOM     28  C   UNL     1      30.648   3.963 188.881  0.00  0.00    +0.000 C 
ENDBRANCH  26  27
ENDBRANCH  23  26
ENDBRANCH   2  20
BRANCH   3  29
ATOM     29  O   UNL     1      20.725   0.990 190.012  0.00  0.00    +0.000 OA
ATOM     30  H   UNL     1      20.117   0.383 190.465  0.00  0.00    +0.000 HD
ENDBRANCH   3  29
TORSDOF 6
ENDMDL
MODEL 5
REMARK VINA RESULT:      -7.8      3.310      4.324
REMARK  Name = 5109870_Ethoxyphenyl.pdbqt.pdb
REMARK  6 active torsions:
REMARK  status: ('A' for Active; 'I' for Inactive)
REMARK    1  A    between atoms: N_2  and  C_22
REMARK    2  A    between atoms: C_3  and  O_11
REMARK    3  A    between atoms: C_3  and  C_13
REMARK    4  A    between atoms: C_16  and  N_19
REMARK    5  A    between atoms: C_25  and  O_28
REMARK    6  A    between atoms: O_28  and  C_29
REMARK                            x       y       z     vdW  Elec       q    Type
REMARK                         _______ _______ _______ _____ _____    ______ ____
ROOT
ATOM      1  N   UNL     1      20.831   0.777 191.740  0.00  0.00    +0.000 N 
ATOM      2  N   UNL     1      22.990  -0.137 192.256  0.00  0.00    +0.000 N 
ATOM      3  C   UNL     1      21.778   1.887 191.479  0.00  0.00    +0.000 C 
ATOM      4  C   UNL     1      21.626  -0.328 192.365  0.00  0.00    +0.000 C 
ATOM      5  C   UNL     1      23.047   1.189 191.700  0.00  0.00    +0.000 C 
ATOM      6  C   UNL     1      19.606   1.070 192.482  0.00  0.00    +0.000 C 
ATOM      7  C   UNL     1      21.041  -1.177 193.349  0.00  0.00    +0.000 C 
ATOM      8  C   UNL     1      18.573   0.701 193.560  0.00  0.00    +0.000 C 
ATOM      9  C   UNL     1      19.879  -1.421 194.326  0.00  0.00    +0.000 C 
ATOM     10  C   UNL     1      18.659  -0.517 194.473  0.00  0.00    +0.000 C 
ENDROOT
BRANCH   3  11
ATOM     11  C   UNL     1      21.600   2.455 190.090  0.00  0.00    +0.000 A 
ATOM     12  C   UNL     1      21.565   1.626 188.959  0.00  0.00    +0.000 A 
ATOM     13  C   UNL     1      21.357   2.153 187.687  0.00  0.00    +0.000 A 
ATOM     14  C   UNL     1      21.169   3.525 187.549  0.00  0.00    +0.000 A 
ATOM     15  C   UNL     1      21.182   4.374 188.651  0.00  0.00    +0.000 A 
ATOM     16  C   UNL     1      21.391   3.831 189.915  0.00  0.00    +0.000 A 
BRANCH  14  17
ATOM     17  N   UNL     1      20.954   4.081 186.227  0.00  0.00    +0.000 N 
ATOM     18  O   UNL     1      21.639   5.059 185.898  0.00  0.00    +0.000 OA
ATOM     19  O   UNL     1      20.099   3.543 185.509  0.00  0.00    +0.000 OA
ENDBRANCH  14  17
ENDBRANCH   3  11
BRANCH   2  20
ATOM     20  C   UNL     1      24.081  -0.771 192.871  0.00  0.00    +0.000 A 
ATOM     21  C   UNL     1      25.148  -1.293 192.132  0.00  0.00    +0.000 A 
ATOM     22  C   UNL     1      26.238  -1.901 192.754  0.00  0.00    +0.000 A 
ATOM     23  C   UNL     1      26.290  -1.993 194.143  0.00  0.00    +0.000 A 
ATOM     24  C   UNL     1      25.246  -1.471 194.899  0.00  0.00    +0.000 A 
ATOM     25  C   UNL     1      24.159  -0.865 194.267  0.00  0.00    +0.000 A 
BRANCH  23  26
ATOM     26  O   UNL     1      27.314  -2.569 194.850  0.00  0.00    +0.000 OA
BRANCH  26  27
ATOM     27  C   UNL     1      26.955  -3.591 195.624  0.00  0.00    +0.000 C 
ATOM     28  C   UNL     1      26.556  -4.766 196.524  0.00  0.00    +0.000 C 
ENDBRANCH  26  27
ENDBRANCH  23  26
ENDBRANCH   2  20
BRANCH   3  29
ATOM     29  O   UNL     1      21.688   2.936 192.435  0.00  0.00    +0.000 OA
ATOM     30  H   UNL     1      22.351   2.720 193.111  0.00  0.00    +0.000 HD
ENDBRANCH   3  29
TORSDOF 6
ENDMDL
MODEL 6
REMARK VINA RESULT:      -7.5      3.778      5.876
REMARK  Name = 5109870_Ethoxyphenyl.pdbqt.pdb
REMARK  6 active torsions:
REMARK  status: ('A' for Active; 'I' for Inactive)
REMARK    1  A    between atoms: N_2  and  C_22
REMARK    2  A    between atoms: C_3  and  O_11
REMARK    3  A    between atoms: C_3  and  C_13
REMARK    4  A    between atoms: C_16  and  N_19
REMARK    5  A    between atoms: C_25  and  O_28
REMARK    6  A    between atoms: O_28  and  C_29
REMARK                            x       y       z     vdW  Elec       q    Type
REMARK                         _______ _______ _______ _____ _____    ______ ____
ROOT
ATOM      1  N   UNL     1      24.599   0.912 191.398  0.00  0.00    +0.000 N 
ATOM      2  N   UNL     1      22.444   0.815 192.450  0.00  0.00    +0.000 N 
ATOM      3  C   UNL     1      23.637   0.851 190.272  0.00  0.00    +0.000 C 
ATOM      4  C   UNL     1      23.806   0.709 192.652  0.00  0.00    +0.000 C 
ATOM      5  C   UNL     1      22.378   0.923 191.016  0.00  0.00    +0.000 C 
ATOM      6  C   UNL     1      25.785   0.059 191.344  0.00  0.00    +0.000 C 
ATOM      7  C   UNL     1      24.371   0.019 193.765  0.00  0.00    +0.000 C 
ATOM      8  C   UNL     1      26.782  -0.893 192.028  0.00  0.00    +0.000 C 
ATOM      9  C   UNL     1      25.497  -0.882 194.297  0.00  0.00    +0.000 C 
ATOM     10  C   UNL     1      26.687  -1.366 193.475  0.00  0.00    +0.000 C 
ENDROOT
BRANCH   3  11
ATOM     11  C   UNL     1      23.859   1.977 189.289  0.00  0.00    +0.000 A 
ATOM     12  C   UNL     1      23.245   1.981 188.029  0.00  0.00    +0.000 A 
ATOM     13  C   UNL     1      23.419   3.044 187.147  0.00  0.00    +0.000 A 
ATOM     14  C   UNL     1      24.209   4.121 187.538  0.00  0.00    +0.000 A 
ATOM     15  C   UNL     1      24.821   4.157 188.787  0.00  0.00    +0.000 A 
ATOM     16  C   UNL     1      24.636   3.087 189.657  0.00  0.00    +0.000 A 
BRANCH  14  17
ATOM     17  N   UNL     1      24.397   5.231 186.624  0.00  0.00    +0.000 N 
ATOM     18  O   UNL     1      23.607   5.333 185.675  0.00  0.00    +0.000 OA
ATOM     19  O   UNL     1      25.335   6.009 186.848  0.00  0.00    +0.000 OA
ENDBRANCH  14  17
ENDBRANCH   3  11
BRANCH   2  20
ATOM     20  C   UNL     1      21.344   0.486 193.258  0.00  0.00    +0.000 A 
ATOM     21  C   UNL     1      20.906   1.322 194.290  0.00  0.00    +0.000 A 
ATOM     22  C   UNL     1      19.797   0.997 195.072  0.00  0.00    +0.000 A 
ATOM     23  C   UNL     1      19.092  -0.179 194.830  0.00  0.00    +0.000 A 
ATOM     24  C   UNL     1      19.503  -1.021 193.802  0.00  0.00    +0.000 A 
ATOM     25  C   UNL     1      20.612  -0.687 193.026  0.00  0.00    +0.000 A 
BRANCH  23  26
ATOM     26  O   UNL     1      17.992  -0.590 195.539  0.00  0.00    +0.000 OA
BRANCH  26  27
ATOM     27  C   UNL     1      17.963  -0.193 196.809  0.00  0.00    +0.000 C 
ATOM     28  C   UNL     1      17.916   0.255 198.275  0.00  0.00    +0.000 C 
ENDBRANCH  26  27
ENDBRANCH  23  26
ENDBRANCH   2  20
BRANCH   3  29
ATOM     29  O   UNL     1      23.663  -0.392 189.582  0.00  0.00    +0.000 OA
ATOM     30  H   UNL     1      23.711  -0.158 188.640  0.00  0.00    +0.000 HD
ENDBRANCH   3  29
TORSDOF 6
ENDMDL
MODEL 7
REMARK VINA RESULT:      -7.5     35.001     37.018
REMARK  Name = 5109870_Ethoxyphenyl.pdbqt.pdb
REMARK  6 active torsions:
REMARK  status: ('A' for Active; 'I' for Inactive)
REMARK    1  A    between atoms: N_2  and  C_22
REMARK    2  A    between atoms: C_3  and  O_11
REMARK    3  A    between atoms: C_3  and  C_13
REMARK    4  A    between atoms: C_16  and  N_19
REMARK    5  A    between atoms: C_25  and  O_28
REMARK    6  A    between atoms: O_28  and  C_29
REMARK                            x       y       z     vdW  Elec       q    Type
REMARK                         _______ _______ _______ _____ _____    ______ ____
ROOT
ATOM      1  N   UNL     1      42.752 -20.518 173.013  0.00  0.00    +0.000 N 
ATOM      2  N   UNL     1      41.802 -20.296 170.820  0.00  0.00    +0.000 N 
ATOM      3  C   UNL     1      43.559 -21.426 172.164  0.00  0.00    +0.000 C 
ATOM      4  C   UNL     1      41.622 -20.024 172.163  0.00  0.00    +0.000 C 
ATOM      5  C   UNL     1      42.984 -21.118 170.854  0.00  0.00    +0.000 C 
ATOM      6  C   UNL     1      42.297 -21.006 174.314  0.00  0.00    +0.000 C 
ATOM      7  C   UNL     1      40.342 -19.764 172.733  0.00  0.00    +0.000 C 
ATOM      8  C   UNL     1      41.201 -21.142 175.385  0.00  0.00    +0.000 C 
ATOM      9  C   UNL     1      39.400 -19.935 173.936  0.00  0.00    +0.000 C 
ATOM     10  C   UNL     1      39.774 -20.619 175.247  0.00  0.00    +0.000 C 
ENDROOT
BRANCH   3  11
ATOM     11  C   UNL     1      45.037 -21.140 172.292  0.00  0.00    +0.000 A 
ATOM     12  C   UNL     1      45.509 -20.037 173.017  0.00  0.00    +0.000 A 
ATOM     13  C   UNL     1      46.874 -19.804 173.167  0.00  0.00    +0.000 A 
ATOM     14  C   UNL     1      47.775 -20.696 172.593  0.00  0.00    +0.000 A 
ATOM     15  C   UNL     1      47.342 -21.810 171.880  0.00  0.00    +0.000 A 
ATOM     16  C   UNL     1      45.974 -22.027 171.741  0.00  0.00    +0.000 A 
BRANCH  14  17
ATOM     17  N   UNL     1      49.198 -20.460 172.743  0.00  0.00    +0.000 N 
ATOM     18  O   UNL     1      49.844 -20.184 171.723  0.00  0.00    +0.000 OA
ATOM     19  O   UNL     1      49.679 -20.547 173.881  0.00  0.00    +0.000 OA
ENDBRANCH  14  17
ENDBRANCH   3  11
BRANCH   2  20
ATOM     20  C   UNL     1      40.932 -20.228 169.721  0.00  0.00    +0.000 A 
ATOM     21  C   UNL     1      41.161 -19.364 168.646  0.00  0.00    +0.000 A 
ATOM     22  C   UNL     1      40.302 -19.320 167.548  0.00  0.00    +0.000 A 
ATOM     23  C   UNL     1      39.188 -20.155 167.497  0.00  0.00    +0.000 A 
ATOM     24  C   UNL     1      38.945 -21.031 168.551  0.00  0.00    +0.000 A 
ATOM     25  C   UNL     1      39.811 -21.066 169.644  0.00  0.00    +0.000 A 
BRANCH  23  26
ATOM     26  O   UNL     1      38.284 -20.191 166.467  0.00  0.00    +0.000 OA
BRANCH  26  27
ATOM     27  C   UNL     1      37.181 -20.893 166.713  0.00  0.00    +0.000 C 
ATOM     28  C   UNL     1      35.912 -21.711 166.982  0.00  0.00    +0.000 C 
ENDBRANCH  26  27
ENDBRANCH  23  26
ENDBRANCH   2  20
BRANCH   3  29
ATOM     29  O   UNL     1      43.317 -22.802 172.431  0.00  0.00    +0.000 OA
ATOM     30  H   UNL     1      44.164 -23.246 172.258  0.00  0.00    +0.000 HD
ENDBRANCH   3  29
TORSDOF 6
ENDMDL
MODEL 8
REMARK VINA RESULT:      -7.2      3.806      5.871
REMARK  Name = 5109870_Ethoxyphenyl.pdbqt.pdb
REMARK  6 active torsions:
REMARK  status: ('A' for Active; 'I' for Inactive)
REMARK    1  A    between atoms: N_2  and  C_22
REMARK    2  A    between atoms: C_3  and  O_11
REMARK    3  A    between atoms: C_3  and  C_13
REMARK    4  A    between atoms: C_16  and  N_19
REMARK    5  A    between atoms: C_25  and  O_28
REMARK    6  A    between atoms: O_28  and  C_29
REMARK                            x       y       z     vdW  Elec       q    Type
REMARK                         _______ _______ _______ _____ _____    ______ ____
ROOT
ATOM      1  N   UNL     1      23.411   1.534 191.637  0.00  0.00    +0.000 N 
ATOM      2  N   UNL     1      21.703   0.722 193.114  0.00  0.00    +0.000 N 
ATOM      3  C   UNL     1      22.637   0.571 190.818  0.00  0.00    +0.000 C 
ATOM      4  C   UNL     1      22.889   1.425 193.036  0.00  0.00    +0.000 C 
ATOM      5  C   UNL     1      21.568   0.243 191.763  0.00  0.00    +0.000 C 
ATOM      6  C   UNL     1      24.871   1.475 191.581  0.00  0.00    +0.000 C 
ATOM      7  C   UNL     1      23.759   1.598 194.152  0.00  0.00    +0.000 C 
ATOM      8  C   UNL     1      26.241   1.514 192.281  0.00  0.00    +0.000 C 
ATOM      9  C   UNL     1      25.205   1.687 194.668  0.00  0.00    +0.000 C 
ATOM     10  C   UNL     1      26.450   1.633 193.787  0.00  0.00    +0.000 C 
ENDROOT
BRANCH   3  11
ATOM     11  C   UNL     1      22.170   1.192 189.522  0.00  0.00    +0.000 A 
ATOM     12  C   UNL     1      20.868   1.689 189.376  0.00  0.00    +0.000 A 
ATOM     13  C   UNL     1      20.458   2.299 188.194  0.00  0.00    +0.000 A 
ATOM     14  C   UNL     1      21.370   2.424 187.150  0.00  0.00    +0.000 A 
ATOM     15  C   UNL     1      22.675   1.956 187.266  0.00  0.00    +0.000 A 
ATOM     16  C   UNL     1      23.068   1.349 188.455  0.00  0.00    +0.000 A 
BRANCH  14  17
ATOM     17  N   UNL     1      20.951   3.057 185.915  0.00  0.00    +0.000 N 
ATOM     18  O   UNL     1      19.822   3.566 185.885  0.00  0.00    +0.000 OA
ATOM     19  O   UNL     1      21.747   3.050 184.965  0.00  0.00    +0.000 OA
ENDBRANCH  14  17
ENDBRANCH   3  11
BRANCH   2  20
ATOM     20  C   UNL     1      20.992   0.192 194.203  0.00  0.00    +0.000 A 
ATOM     21  C   UNL     1      20.102   0.965 194.954  0.00  0.00    +0.000 A 
ATOM     22  C   UNL     1      19.383   0.424 196.020  0.00  0.00    +0.000 A 
ATOM     23  C   UNL     1      19.535  -0.920 196.355  0.00  0.00    +0.000 A 
ATOM     24  C   UNL     1      20.408  -1.712 195.615  0.00  0.00    +0.000 A 
ATOM     25  C   UNL     1      21.121  -1.159 194.551  0.00  0.00    +0.000 A 
BRANCH  23  26
ATOM     26  O   UNL     1      18.878  -1.548 197.381  0.00  0.00    +0.000 OA
BRANCH  26  27
ATOM     27  C   UNL     1      17.766  -0.941 197.789  0.00  0.00    +0.000 C 
ATOM     28  C   UNL     1      16.495  -0.227 198.264  0.00  0.00    +0.000 C 
ENDBRANCH  26  27
ENDBRANCH  23  26
ENDBRANCH   2  20
BRANCH   3  29
ATOM     29  O   UNL     1      23.352  -0.627 190.539  0.00  0.00    +0.000 OA
ATOM     30  H   UNL     1      22.787  -1.342 190.875  0.00  0.00    +0.000 HD
ENDBRANCH   3  29
TORSDOF 6
ENDMDL
MODEL 9
REMARK VINA RESULT:      -7.1      3.135      4.986
REMARK  Name = 5109870_Ethoxyphenyl.pdbqt.pdb
REMARK  6 active torsions:
REMARK  status: ('A' for Active; 'I' for Inactive)
REMARK    1  A    between atoms: N_2  and  C_22
REMARK    2  A    between atoms: C_3  and  O_11
REMARK    3  A    between atoms: C_3  and  C_13
REMARK    4  A    between atoms: C_16  and  N_19
REMARK    5  A    between atoms: C_25  and  O_28
REMARK    6  A    between atoms: O_28  and  C_29
REMARK                            x       y       z     vdW  Elec       q    Type
REMARK                         _______ _______ _______ _____ _____    ______ ____
ROOT
ATOM      1  N   UNL     1      24.551   3.010 190.553  0.00  0.00    +0.000 N 
ATOM      2  N   UNL     1      22.885   1.821 191.805  0.00  0.00    +0.000 N 
ATOM      3  C   UNL     1      23.969   2.053 189.582  0.00  0.00    +0.000 C 
ATOM      4  C   UNL     1      23.965   2.677 191.890  0.00  0.00    +0.000 C 
ATOM      5  C   UNL     1      22.900   1.484 190.406  0.00  0.00    +0.000 C 
ATOM      6  C   UNL     1      26.006   3.150 190.601  0.00  0.00    +0.000 C 
ATOM      7  C   UNL     1      24.734   2.836 193.080  0.00  0.00    +0.000 C 
ATOM      8  C   UNL     1      27.312   3.288 191.402  0.00  0.00    +0.000 C 
ATOM      9  C   UNL     1      26.120   3.054 193.709  0.00  0.00    +0.000 C 
ATOM     10  C   UNL     1      27.411   3.262 192.924  0.00  0.00    +0.000 C 
ENDROOT
BRANCH   3  11
ATOM     11  C   UNL     1      23.500   2.750 188.326  0.00  0.00    +0.000 A 
ATOM     12  C   UNL     1      24.130   3.910 187.854  0.00  0.00    +0.000 A 
ATOM     13  C   UNL     1      23.719   4.522 186.672  0.00  0.00    +0.000 A 
ATOM     14  C   UNL     1      22.673   3.956 185.950  0.00  0.00    +0.000 A 
ATOM     15  C   UNL     1      22.035   2.797 186.381  0.00  0.00    +0.000 A 
ATOM     16  C   UNL     1      22.459   2.198 187.564  0.00  0.00    +0.000 A 
BRANCH  14  17
ATOM     17  N   UNL     1      22.238   4.588 184.720  0.00  0.00    +0.000 N 
ATOM     18  O   UNL     1      21.643   3.885 183.892  0.00  0.00    +0.000 OA
ATOM     19  O   UNL     1      22.487   5.793 184.572  0.00  0.00    +0.000 OA
ENDBRANCH  14  17
ENDBRANCH   3  11
BRANCH   2  20
ATOM     20  C   UNL     1      22.190   1.083 192.776  0.00  0.00    +0.000 A 
ATOM     21  C   UNL     1      22.338  -0.302 192.903  0.00  0.00    +0.000 A 
ATOM     22  C   UNL     1      21.660  -1.022 193.886  0.00  0.00    +0.000 A 
ATOM     23  C   UNL     1      20.818  -0.364 194.780  0.00  0.00    +0.000 A 
ATOM     24  C   UNL     1      20.664   1.015 194.680  0.00  0.00    +0.000 A 
ATOM     25  C   UNL     1      21.346   1.725 193.693  0.00  0.00    +0.000 A 
BRANCH  23  26
ATOM     26  O   UNL     1      20.109  -0.977 195.780  0.00  0.00    +0.000 OA
BRANCH  26  27
ATOM     27  C   UNL     1      19.129  -0.244 196.302  0.00  0.00    +0.000 C 
ATOM     28  C   UNL     1      17.990   0.587 196.906  0.00  0.00    +0.000 C 
ENDBRANCH  26  27
ENDBRANCH  23  26
ENDBRANCH   2  20
BRANCH   3  29
ATOM     29  O   UNL     1      24.857   0.998 189.235  0.00  0.00    +0.000 OA
ATOM     30  H   UNL     1      25.705   1.235 189.647  0.00  0.00    +0.000 HD
ENDBRANCH   3  29
TORSDOF 6
ENDMDL
