MODEL 1
REMARK VINA RESULT:      -8.7      0.000      0.000
REMARK  Name = 5280445_Luteolin.pdbqt.pdb
REMARK  5 active torsions:
REMARK  status: ('A' for Active; 'I' for Inactive)
REMARK    1  A    between atoms: C_5  and  C_12
REMARK    2  A    between atoms: C_8  and  O_22
REMARK    3  A    between atoms: C_10  and  O_24
REMARK    4  A    between atoms: C_15  and  O_18
REMARK    5  A    between atoms: C_17  and  O_20
REMARK                            x       y       z     vdW  Elec       q    Type
REMARK                         _______ _______ _______ _____ _____    ______ ____
ROOT
ATOM      1  O   UNL     1      21.126   3.172 189.025  0.00  0.00    +0.000 OA
ATOM      2  O   UNL     1      17.362   1.809 188.078  0.00  0.00    +0.000 OA
ATOM      3  C   UNL     1      19.010   2.112 189.798  0.00  0.00    +0.000 A 
ATOM      4  C   UNL     1      20.318   2.609 190.018  0.00  0.00    +0.000 A 
ATOM      5  C   UNL     1      20.630   3.258 187.719  0.00  0.00    +0.000 A 
ATOM      6  C   UNL     1      18.463   2.191 188.430  0.00  0.00    +0.000 A 
ATOM      7  C   UNL     1      19.435   2.788 187.586  0.00  0.00    +0.000 A 
ATOM      8  C   UNL     1      18.270   1.567 190.846  0.00  0.00    +0.000 A 
ATOM      9  C   UNL     1      20.868   2.553 191.295  0.00  0.00    +0.000 A 
ATOM     10  C   UNL     1      20.116   2.005 192.333  0.00  0.00    +0.000 A 
ATOM     11  C   UNL     1      18.827   1.513 192.120  0.00  0.00    +0.000 A 
ENDROOT
BRANCH   5  12
ATOM     12  C   UNL     1      21.473   3.844 186.686  0.00  0.00    +0.000 A 
ATOM     13  C   UNL     1      22.695   4.435 187.021  0.00  0.00    +0.000 A 
ATOM     14  C   UNL     1      21.077   3.826 185.342  0.00  0.00    +0.000 A 
ATOM     15  C   UNL     1      23.491   4.992 186.029  0.00  0.00    +0.000 A 
ATOM     16  C   UNL     1      21.877   4.385 184.344  0.00  0.00    +0.000 A 
ATOM     17  C   UNL     1      23.086   4.967 184.699  0.00  0.00    +0.000 A 
BRANCH  15  18
ATOM     18  O   UNL     1      24.682   5.566 186.370  0.00  0.00    +0.000 OA
ATOM     19  H   UNL     1      25.365   4.928 186.083  0.00  0.00    +0.000 HD
ENDBRANCH  15  18
BRANCH  17  20
ATOM     20  O   UNL     1      23.907   5.529 183.759  0.00  0.00    +0.000 OA
ATOM     21  H   UNL     1      24.327   4.804 183.263  0.00  0.00    +0.000 HD
ENDBRANCH  17  20
ENDBRANCH   5  12
BRANCH   8  22
ATOM     22  O   UNL     1      17.005   1.070 190.695  0.00  0.00    +0.000 OA
ATOM     23  H   UNL     1      16.947   0.184 191.114  0.00  0.00    +0.000 HD
ENDBRANCH   8  22
BRANCH  10  24
ATOM     24  O   UNL     1      20.675   1.959 193.578  0.00  0.00    +0.000 OA
ATOM     25  H   UNL     1      21.435   2.568 193.594  0.00  0.00    +0.000 HD
ENDBRANCH  10  24
TORSDOF 5
ENDMDL
MODEL 2
REMARK VINA RESULT:      -8.4      1.300      2.921
REMARK  Name = 5280445_Luteolin.pdbqt.pdb
REMARK  5 active torsions:
REMARK  status: ('A' for Active; 'I' for Inactive)
REMARK    1  A    between atoms: C_5  and  C_12
REMARK    2  A    between atoms: C_8  and  O_22
REMARK    3  A    between atoms: C_10  and  O_24
REMARK    4  A    between atoms: C_15  and  O_18
REMARK    5  A    between atoms: C_17  and  O_20
REMARK                            x       y       z     vdW  Elec       q    Type
REMARK                         _______ _______ _______ _____ _____    ______ ____
ROOT
ATOM      1  O   UNL     1      20.083   3.057 186.999  0.00  0.00    +0.000 OA
ATOM      2  O   UNL     1      22.560   3.863 190.183  0.00  0.00    +0.000 OA
ATOM      3  C   UNL     1      20.463   2.947 189.457  0.00  0.00    +0.000 A 
ATOM      4  C   UNL     1      19.686   2.714 188.295  0.00  0.00    +0.000 A 
ATOM      5  C   UNL     1      21.327   3.674 186.814  0.00  0.00    +0.000 A 
ATOM      6  C   UNL     1      21.777   3.595 189.290  0.00  0.00    +0.000 A 
ATOM      7  C   UNL     1      21.983   3.857 187.911  0.00  0.00    +0.000 A 
ATOM      8  C   UNL     1      19.992   2.571 190.714  0.00  0.00    +0.000 A 
ATOM      9  C   UNL     1      18.442   2.104 188.412  0.00  0.00    +0.000 A 
ATOM     10  C   UNL     1      17.984   1.735 189.676  0.00  0.00    +0.000 A 
ATOM     11  C   UNL     1      18.745   1.963 190.823  0.00  0.00    +0.000 A 
ENDROOT
BRANCH   5  12
ATOM     12  C   UNL     1      21.738   4.031 185.463  0.00  0.00    +0.000 A 
ATOM     13  C   UNL     1      22.921   4.744 185.249  0.00  0.00    +0.000 A 
ATOM     14  C   UNL     1      20.959   3.664 184.357  0.00  0.00    +0.000 A 
ATOM     15  C   UNL     1      23.304   5.080 183.956  0.00  0.00    +0.000 A 
ATOM     16  C   UNL     1      21.343   4.001 183.059  0.00  0.00    +0.000 A 
ATOM     17  C   UNL     1      22.521   4.710 182.868  0.00  0.00    +0.000 A 
BRANCH  15  18
ATOM     18  O   UNL     1      24.461   5.777 183.761  0.00  0.00    +0.000 OA
ATOM     19  H   UNL     1      24.540   6.364 184.540  0.00  0.00    +0.000 HD
ENDBRANCH  15  18
BRANCH  17  20
ATOM     20  O   UNL     1      22.942   5.065 181.615  0.00  0.00    +0.000 OA
ATOM     21  H   UNL     1      22.677   5.990 181.465  0.00  0.00    +0.000 HD
ENDBRANCH  17  20
ENDBRANCH   5  12
BRANCH   8  22
ATOM     22  O   UNL     1      20.694   2.770 191.870  0.00  0.00    +0.000 OA
ATOM     23  H   UNL     1      20.896   1.904 192.286  0.00  0.00    +0.000 HD
ENDBRANCH   8  22
BRANCH  10  24
ATOM     24  O   UNL     1      16.759   1.139 189.768  0.00  0.00    +0.000 OA
ATOM     25  H   UNL     1      16.177   1.717 190.293  0.00  0.00    +0.000 HD
ENDBRANCH  10  24
TORSDOF 5
ENDMDL
MODEL 3
REMARK VINA RESULT:      -8.3      0.711      1.496
REMARK  Name = 5280445_Luteolin.pdbqt.pdb
REMARK  5 active torsions:
REMARK  status: ('A' for Active; 'I' for Inactive)
REMARK    1  A    between atoms: C_5  and  C_12
REMARK    2  A    between atoms: C_8  and  O_22
REMARK    3  A    between atoms: C_10  and  O_24
REMARK    4  A    between atoms: C_15  and  O_18
REMARK    5  A    between atoms: C_17  and  O_20
REMARK                            x       y       z     vdW  Elec       q    Type
REMARK                         _______ _______ _______ _____ _____    ______ ____
ROOT
ATOM      1  O   UNL     1      21.174   3.211 189.304  0.00  0.00    +0.000 OA
ATOM      2  O   UNL     1      17.459   1.657 188.462  0.00  0.00    +0.000 OA
ATOM      3  C   UNL     1      19.119   2.084 190.144  0.00  0.00    +0.000 A 
ATOM      4  C   UNL     1      20.408   2.645 190.327  0.00  0.00    +0.000 A 
ATOM      5  C   UNL     1      20.654   3.236 188.004  0.00  0.00    +0.000 A 
ATOM      6  C   UNL     1      18.548   2.097 188.783  0.00  0.00    +0.000 A 
ATOM      7  C   UNL     1      19.479   2.710 187.906  0.00  0.00    +0.000 A 
ATOM      8  C   UNL     1      18.421   1.540 191.221  0.00  0.00    +0.000 A 
ATOM      9  C   UNL     1      20.979   2.652 191.595  0.00  0.00    +0.000 A 
ATOM     10  C   UNL     1      20.269   2.104 192.661  0.00  0.00    +0.000 A 
ATOM     11  C   UNL     1      19.000   1.550 192.486  0.00  0.00    +0.000 A 
ENDROOT
BRANCH   5  12
ATOM     12  C   UNL     1      21.454   3.827 186.940  0.00  0.00    +0.000 A 
ATOM     13  C   UNL     1      21.135   3.589 185.599  0.00  0.00    +0.000 A 
ATOM     14  C   UNL     1      22.554   4.642 187.239  0.00  0.00    +0.000 A 
ATOM     15  C   UNL     1      21.906   4.157 184.593  0.00  0.00    +0.000 A 
ATOM     16  C   UNL     1      23.328   5.212 186.229  0.00  0.00    +0.000 A 
ATOM     17  C   UNL     1      22.994   4.964 184.904  0.00  0.00    +0.000 A 
BRANCH  15  18
ATOM     18  O   UNL     1      21.583   3.917 183.288  0.00  0.00    +0.000 OA
ATOM     19  H   UNL     1      22.319   3.376 182.938  0.00  0.00    +0.000 HD
ENDBRANCH  15  18
BRANCH  17  20
ATOM     20  O   UNL     1      23.721   5.500 183.876  0.00  0.00    +0.000 OA
ATOM     21  H   UNL     1      23.092   5.894 183.244  0.00  0.00    +0.000 HD
ENDBRANCH  17  20
ENDBRANCH   5  12
BRANCH   8  22
ATOM     22  O   UNL     1      17.177   0.984 191.106  0.00  0.00    +0.000 OA
ATOM     23  H   UNL     1      16.586   1.599 190.617  0.00  0.00    +0.000 HD
ENDBRANCH   8  22
BRANCH  10  24
ATOM     24  O   UNL     1      20.849   2.120 193.897  0.00  0.00    +0.000 OA
ATOM     25  H   UNL     1      20.555   1.328 194.383  0.00  0.00    +0.000 HD
ENDBRANCH  10  24
TORSDOF 5
ENDMDL
MODEL 4
REMARK VINA RESULT:      -7.6      2.545      7.829
REMARK  Name = 5280445_Luteolin.pdbqt.pdb
REMARK  5 active torsions:
REMARK  status: ('A' for Active; 'I' for Inactive)
REMARK    1  A    between atoms: C_5  and  C_12
REMARK    2  A    between atoms: C_8  and  O_22
REMARK    3  A    between atoms: C_10  and  O_24
REMARK    4  A    between atoms: C_15  and  O_18
REMARK    5  A    between atoms: C_17  and  O_20
REMARK                            x       y       z     vdW  Elec       q    Type
REMARK                         _______ _______ _______ _____ _____    ______ ____
ROOT
ATOM      1  O   UNL     1      20.088   2.417 191.780  0.00  0.00    +0.000 OA
ATOM      2  O   UNL     1      16.965   0.802 189.645  0.00  0.00    +0.000 OA
ATOM      3  C   UNL     1      18.807   2.342 189.647  0.00  0.00    +0.000 A 
ATOM      4  C   UNL     1      19.853   2.835 190.467  0.00  0.00    +0.000 A 
ATOM      5  C   UNL     1      19.247   1.450 192.343  0.00  0.00    +0.000 A 
ATOM      6  C   UNL     1      17.906   1.322 190.216  0.00  0.00    +0.000 A 
ATOM      7  C   UNL     1      18.317   1.044 191.545  0.00  0.00    +0.000 A 
ATOM      8  C   UNL     1      18.643   2.813 188.345  0.00  0.00    +0.000 A 
ATOM      9  C   UNL     1      20.723   3.797 189.965  0.00  0.00    +0.000 A 
ATOM     10  C   UNL     1      20.546   4.258 188.662  0.00  0.00    +0.000 A 
ATOM     11  C   UNL     1      19.517   3.776 187.851  0.00  0.00    +0.000 A 
ENDROOT
BRANCH   5  12
ATOM     12  C   UNL     1      19.495   1.016 193.712  0.00  0.00    +0.000 A 
ATOM     13  C   UNL     1      18.567   0.210 194.377  0.00  0.00    +0.000 A 
ATOM     14  C   UNL     1      20.665   1.397 194.383  0.00  0.00    +0.000 A 
ATOM     15  C   UNL     1      18.813  -0.198 195.682  0.00  0.00    +0.000 A 
ATOM     16  C   UNL     1      20.912   0.988 195.693  0.00  0.00    +0.000 A 
ATOM     17  C   UNL     1      19.977   0.187 196.336  0.00  0.00    +0.000 A 
BRANCH  15  18
ATOM     18  O   UNL     1      17.898  -0.986 196.320  0.00  0.00    +0.000 OA
ATOM     19  H   UNL     1      17.846  -0.631 197.231  0.00  0.00    +0.000 HD
ENDBRANCH  15  18
BRANCH  17  20
ATOM     20  O   UNL     1      20.173  -0.241 197.621  0.00  0.00    +0.000 OA
ATOM     21  H   UNL     1      19.374  -0.016 198.132  0.00  0.00    +0.000 HD
ENDBRANCH  17  20
ENDBRANCH   5  12
BRANCH   8  22
ATOM     22  O   UNL     1      17.653   2.377 187.508  0.00  0.00    +0.000 OA
ATOM     23  H   UNL     1      17.803   1.432 187.286  0.00  0.00    +0.000 HD
ENDBRANCH   8  22
BRANCH  10  24
ATOM     24  O   UNL     1      21.411   5.203 188.190  0.00  0.00    +0.000 OA
ATOM     25  H   UNL     1      22.297   5.011 188.546  0.00  0.00    +0.000 HD
ENDBRANCH  10  24
TORSDOF 5
ENDMDL
MODEL 5
REMARK VINA RESULT:      -7.4      3.100      6.687
REMARK  Name = 5280445_Luteolin.pdbqt.pdb
REMARK  5 active torsions:
REMARK  status: ('A' for Active; 'I' for Inactive)
REMARK    1  A    between atoms: C_5  and  C_12
REMARK    2  A    between atoms: C_8  and  O_22
REMARK    3  A    between atoms: C_10  and  O_24
REMARK    4  A    between atoms: C_15  and  O_18
REMARK    5  A    between atoms: C_17  and  O_20
REMARK                            x       y       z     vdW  Elec       q    Type
REMARK                         _______ _______ _______ _____ _____    ______ ____
ROOT
ATOM      1  O   UNL     1      21.941   1.213 189.414  0.00  0.00    +0.000 OA
ATOM      2  O   UNL     1      17.939   1.712 190.225  0.00  0.00    +0.000 OA
ATOM      3  C   UNL     1      19.716   2.012 188.637  0.00  0.00    +0.000 A 
ATOM      4  C   UNL     1      21.105   1.796 188.458  0.00  0.00    +0.000 A 
ATOM      5  C   UNL     1      21.392   0.809 190.638  0.00  0.00    +0.000 A 
ATOM      6  C   UNL     1      19.112   1.596 189.917  0.00  0.00    +0.000 A 
ATOM      7  C   UNL     1      20.124   1.034 190.736  0.00  0.00    +0.000 A 
ATOM      8  C   UNL     1      18.952   2.600 187.630  0.00  0.00    +0.000 A 
ATOM      9  C   UNL     1      21.710   2.174 187.265  0.00  0.00    +0.000 A 
ATOM     10  C   UNL     1      20.934   2.761 186.267  0.00  0.00    +0.000 A 
ATOM     11  C   UNL     1      19.565   2.977 186.439  0.00  0.00    +0.000 A 
ENDROOT
BRANCH   5  12
ATOM     12  C   UNL     1      22.266   0.202 191.632  0.00  0.00    +0.000 A 
ATOM     13  C   UNL     1      23.440  -0.448 191.240  0.00  0.00    +0.000 A 
ATOM     14  C   UNL     1      21.947   0.258 192.996  0.00  0.00    +0.000 A 
ATOM     15  C   UNL     1      24.266  -1.025 192.196  0.00  0.00    +0.000 A 
ATOM     16  C   UNL     1      22.776  -0.321 193.957  0.00  0.00    +0.000 A 
ATOM     17  C   UNL     1      23.938  -0.961 193.546  0.00  0.00    +0.000 A 
BRANCH  15  18
ATOM     18  O   UNL     1      25.410  -1.656 191.799  0.00  0.00    +0.000 OA
ATOM     19  H   UNL     1      25.306  -1.790 190.836  0.00  0.00    +0.000 HD
ENDBRANCH  15  18
BRANCH  17  20
ATOM     20  O   UNL     1      24.785  -1.544 194.448  0.00  0.00    +0.000 OA
ATOM     21  H   UNL     1      24.374  -2.377 194.744  0.00  0.00    +0.000 HD
ENDBRANCH  17  20
ENDBRANCH   5  12
BRANCH   8  22
ATOM     22  O   UNL     1      17.610   2.835 187.744  0.00  0.00    +0.000 OA
ATOM     23  H   UNL     1      17.424   3.781 187.555  0.00  0.00    +0.000 HD
ENDBRANCH   8  22
BRANCH  10  24
ATOM     24  O   UNL     1      21.548   3.126 185.104  0.00  0.00    +0.000 OA
ATOM     25  H   UNL     1      22.504   3.204 185.275  0.00  0.00    +0.000 HD
ENDBRANCH  10  24
TORSDOF 5
ENDMDL
MODEL 6
REMARK VINA RESULT:      -7.3      2.382      7.346
REMARK  Name = 5280445_Luteolin.pdbqt.pdb
REMARK  5 active torsions:
REMARK  status: ('A' for Active; 'I' for Inactive)
REMARK    1  A    between atoms: C_5  and  C_12
REMARK    2  A    between atoms: C_8  and  O_22
REMARK    3  A    between atoms: C_10  and  O_24
REMARK    4  A    between atoms: C_15  and  O_18
REMARK    5  A    between atoms: C_17  and  O_20
REMARK                            x       y       z     vdW  Elec       q    Type
REMARK                         _______ _______ _______ _____ _____    ______ ____
ROOT
ATOM      1  O   UNL     1      21.091   1.373 190.385  0.00  0.00    +0.000 OA
ATOM      2  O   UNL     1      17.734   2.145 188.137  0.00  0.00    +0.000 OA
ATOM      3  C   UNL     1      20.123   2.320 188.296  0.00  0.00    +0.000 A 
ATOM      4  C   UNL     1      21.213   2.009 189.147  0.00  0.00    +0.000 A 
ATOM      5  C   UNL     1      19.816   1.011 190.836  0.00  0.00    +0.000 A 
ATOM      6  C   UNL     1      18.768   1.948 188.748  0.00  0.00    +0.000 A 
ATOM      7  C   UNL     1      18.868   1.321 190.016  0.00  0.00    +0.000 A 
ATOM      8  C   UNL     1      20.333   2.956 187.074  0.00  0.00    +0.000 A 
ATOM      9  C   UNL     1      22.505   2.343 188.755  0.00  0.00    +0.000 A 
ATOM     10  C   UNL     1      22.700   2.979 187.530  0.00  0.00    +0.000 A 
ATOM     11  C   UNL     1      21.629   3.287 186.690  0.00  0.00    +0.000 A 
ENDROOT
BRANCH   5  12
ATOM     12  C   UNL     1      19.691   0.347 192.128  0.00  0.00    +0.000 A 
ATOM     13  C   UNL     1      20.494  -0.754 192.437  0.00  0.00    +0.000 A 
ATOM     14  C   UNL     1      18.768   0.801 193.079  0.00  0.00    +0.000 A 
ATOM     15  C   UNL     1      20.366  -1.380 193.671  0.00  0.00    +0.000 A 
ATOM     16  C   UNL     1      18.640   0.174 194.319  0.00  0.00    +0.000 A 
ATOM     17  C   UNL     1      19.447  -0.919 194.606  0.00  0.00    +0.000 A 
BRANCH  15  18
ATOM     18  O   UNL     1      21.157  -2.455 193.961  0.00  0.00    +0.000 OA
ATOM     19  H   UNL     1      21.151  -3.002 193.150  0.00  0.00    +0.000 HD
ENDBRANCH  15  18
BRANCH  17  20
ATOM     20  O   UNL     1      19.360  -1.570 195.807  0.00  0.00    +0.000 OA
ATOM     21  H   UNL     1      20.070  -2.236 195.834  0.00  0.00    +0.000 HD
ENDBRANCH  17  20
ENDBRANCH   5  12
BRANCH   8  22
ATOM     22  O   UNL     1      19.322   3.281 186.212  0.00  0.00    +0.000 OA
ATOM     23  H   UNL     1      19.701   3.544 185.345  0.00  0.00    +0.000 HD
ENDBRANCH   8  22
BRANCH  10  24
ATOM     24  O   UNL     1      23.976   3.299 187.166  0.00  0.00    +0.000 OA
ATOM     25  H   UNL     1      24.330   2.571 186.624  0.00  0.00    +0.000 HD
ENDBRANCH  10  24
TORSDOF 5
ENDMDL
MODEL 7
REMARK VINA RESULT:      -7.3      2.672      7.386
REMARK  Name = 5280445_Luteolin.pdbqt.pdb
REMARK  5 active torsions:
REMARK  status: ('A' for Active; 'I' for Inactive)
REMARK    1  A    between atoms: C_5  and  C_12
REMARK    2  A    between atoms: C_8  and  O_22
REMARK    3  A    between atoms: C_10  and  O_24
REMARK    4  A    between atoms: C_15  and  O_18
REMARK    5  A    between atoms: C_17  and  O_20
REMARK                            x       y       z     vdW  Elec       q    Type
REMARK                         _______ _______ _______ _____ _____    ______ ____
ROOT
ATOM      1  O   UNL     1      20.986   1.021 190.378  0.00  0.00    +0.000 OA
ATOM      2  O   UNL     1      16.887   1.268 190.150  0.00  0.00    +0.000 OA
ATOM      3  C   UNL     1      18.988   1.791 189.111  0.00  0.00    +0.000 A 
ATOM      4  C   UNL     1      20.387   1.653 189.285  0.00  0.00    +0.000 A 
ATOM      5  C   UNL     1      20.169   0.482 191.380  0.00  0.00    +0.000 A 
ATOM      6  C   UNL     1      18.104   1.232 190.151  0.00  0.00    +0.000 A 
ATOM      7  C   UNL     1      18.907   0.642 191.160  0.00  0.00    +0.000 A 
ATOM      8  C   UNL     1      18.471   2.436 187.988  0.00  0.00    +0.000 A 
ATOM      9  C   UNL     1      21.252   2.166 188.325  0.00  0.00    +0.000 A 
ATOM     10  C   UNL     1      20.721   2.809 187.208  0.00  0.00    +0.000 A 
ATOM     11  C   UNL     1      19.343   2.948 187.032  0.00  0.00    +0.000 A 
ENDROOT
BRANCH   5  12
ATOM     12  C   UNL     1      20.797  -0.176 192.518  0.00  0.00    +0.000 A 
ATOM     13  C   UNL     1      20.022  -0.885 193.441  0.00  0.00    +0.000 A 
ATOM     14  C   UNL     1      22.184  -0.112 192.707  0.00  0.00    +0.000 A 
ATOM     15  C   UNL     1      20.630  -1.508 194.523  0.00  0.00    +0.000 A 
ATOM     16  C   UNL     1      22.795  -0.738 193.794  0.00  0.00    +0.000 A 
ATOM     17  C   UNL     1      22.007  -1.437 194.698  0.00  0.00    +0.000 A 
BRANCH  15  18
ATOM     18  O   UNL     1      19.861  -2.198 195.416  0.00  0.00    +0.000 OA
ATOM     19  H   UNL     1      18.975  -2.249 195.005  0.00  0.00    +0.000 HD
ENDBRANCH  15  18
BRANCH  17  20
ATOM     20  O   UNL     1      22.558  -2.068 195.780  0.00  0.00    +0.000 OA
ATOM     21  H   UNL     1      21.975  -2.812 196.017  0.00  0.00    +0.000 HD
ENDBRANCH  17  20
ENDBRANCH   5  12
BRANCH   8  22
ATOM     22  O   UNL     1      17.132   2.601 187.765  0.00  0.00    +0.000 OA
ATOM     23  H   UNL     1      16.623   2.091 188.433  0.00  0.00    +0.000 HD
ENDBRANCH   8  22
BRANCH  10  24
ATOM     24  O   UNL     1      21.589   3.306 186.278  0.00  0.00    +0.000 OA
ATOM     25  H   UNL     1      21.529   4.278 186.294  0.00  0.00    +0.000 HD
ENDBRANCH  10  24
TORSDOF 5
ENDMDL
MODEL 8
REMARK VINA RESULT:      -7.1      3.644      6.072
REMARK  Name = 5280445_Luteolin.pdbqt.pdb
REMARK  5 active torsions:
REMARK  status: ('A' for Active; 'I' for Inactive)
REMARK    1  A    between atoms: C_5  and  C_12
REMARK    2  A    between atoms: C_8  and  O_22
REMARK    3  A    between atoms: C_10  and  O_24
REMARK    4  A    between atoms: C_15  and  O_18
REMARK    5  A    between atoms: C_17  and  O_20
REMARK                            x       y       z     vdW  Elec       q    Type
REMARK                         _______ _______ _______ _____ _____    ______ ____
ROOT
ATOM      1  O   UNL     1      21.536   1.041 189.905  0.00  0.00    +0.000 OA
ATOM      2  O   UNL     1      22.276   2.776 186.250  0.00  0.00    +0.000 OA
ATOM      3  C   UNL     1      20.621   2.145 187.871  0.00  0.00    +0.000 A 
ATOM      4  C   UNL     1      20.474   1.530 189.139  0.00  0.00    +0.000 A 
ATOM      5  C   UNL     1      22.839   1.153 189.405  0.00  0.00    +0.000 A 
ATOM      6  C   UNL     1      21.983   2.276 187.321  0.00  0.00    +0.000 A 
ATOM      7  C   UNL     1      22.903   1.721 188.247  0.00  0.00    +0.000 A 
ATOM      8  C   UNL     1      19.507   2.608 187.172  0.00  0.00    +0.000 A 
ATOM      9  C   UNL     1      19.205   1.390 189.691  0.00  0.00    +0.000 A 
ATOM     10  C   UNL     1      18.101   1.857 188.981  0.00  0.00    +0.000 A 
ATOM     11  C   UNL     1      18.240   2.462 187.731  0.00  0.00    +0.000 A 
ENDROOT
BRANCH   5  12
ATOM     12  C   UNL     1      23.944   0.642 190.206  0.00  0.00    +0.000 A 
ATOM     13  C   UNL     1      23.697  -0.172 191.315  0.00  0.00    +0.000 A 
ATOM     14  C   UNL     1      25.270   0.956 189.878  0.00  0.00    +0.000 A 
ATOM     15  C   UNL     1      24.757  -0.653 192.072  0.00  0.00    +0.000 A 
ATOM     16  C   UNL     1      26.336   0.473 190.638  0.00  0.00    +0.000 A 
ATOM     17  C   UNL     1      26.068  -0.334 191.736  0.00  0.00    +0.000 A 
BRANCH  15  18
ATOM     18  O   UNL     1      24.502  -1.448 193.152  0.00  0.00    +0.000 OA
ATOM     19  H   UNL     1      24.755  -0.911 193.930  0.00  0.00    +0.000 HD
ENDBRANCH  15  18
BRANCH  17  20
ATOM     20  O   UNL     1      27.078  -0.834 192.513  0.00  0.00    +0.000 OA
ATOM     21  H   UNL     1      27.597  -0.079 192.844  0.00  0.00    +0.000 HD
ENDBRANCH  17  20
ENDBRANCH   5  12
BRANCH   8  22
ATOM     22  O   UNL     1      19.585   3.207 185.946  0.00  0.00    +0.000 OA
ATOM     23  H   UNL     1      18.717   3.139 185.491  0.00  0.00    +0.000 HD
ENDBRANCH   8  22
BRANCH  10  24
ATOM     24  O   UNL     1      16.865   1.708 189.540  0.00  0.00    +0.000 OA
ATOM     25  H   UNL     1      16.362   1.069 189.004  0.00  0.00    +0.000 HD
ENDBRANCH  10  24
TORSDOF 5
ENDMDL
MODEL 9
REMARK VINA RESULT:      -7.1      1.742      3.367
REMARK  Name = 5280445_Luteolin.pdbqt.pdb
REMARK  5 active torsions:
REMARK  status: ('A' for Active; 'I' for Inactive)
REMARK    1  A    between atoms: C_5  and  C_12
REMARK    2  A    between atoms: C_8  and  O_22
REMARK    3  A    between atoms: C_10  and  O_24
REMARK    4  A    between atoms: C_15  and  O_18
REMARK    5  A    between atoms: C_17  and  O_20
REMARK                            x       y       z     vdW  Elec       q    Type
REMARK                         _______ _______ _______ _____ _____    ______ ____
ROOT
ATOM      1  O   UNL     1      20.821   2.894 189.974  0.00  0.00    +0.000 OA
ATOM      2  O   UNL     1      23.826   3.221 192.764  0.00  0.00    +0.000 OA
ATOM      3  C   UNL     1      21.619   2.406 192.281  0.00  0.00    +0.000 A 
ATOM      4  C   UNL     1      20.649   2.349 191.250  0.00  0.00    +0.000 A 
ATOM      5  C   UNL     1      22.023   3.545 189.674  0.00  0.00    +0.000 A 
ATOM      6  C   UNL     1      22.895   3.087 191.990  0.00  0.00    +0.000 A 
ATOM      7  C   UNL     1      22.863   3.562 190.654  0.00  0.00    +0.000 A 
ATOM      8  C   UNL     1      21.367   1.835 193.527  0.00  0.00    +0.000 A 
ATOM      9  C   UNL     1      19.433   1.715 191.486  0.00  0.00    +0.000 A 
ATOM     10  C   UNL     1      19.196   1.149 192.737  0.00  0.00    +0.000 A 
ATOM     11  C   UNL     1      20.149   1.203 193.756  0.00  0.00    +0.000 A 
ENDROOT
BRANCH   5  12
ATOM     12  C   UNL     1      22.200   4.113 188.343  0.00  0.00    +0.000 A 
ATOM     13  C   UNL     1      23.440   4.624 187.951  0.00  0.00    +0.000 A 
ATOM     14  C   UNL     1      21.133   4.154 187.435  0.00  0.00    +0.000 A 
ATOM     15  C   UNL     1      23.597   5.163 186.680  0.00  0.00    +0.000 A 
ATOM     16  C   UNL     1      21.290   4.695 186.159  0.00  0.00    +0.000 A 
ATOM     17  C   UNL     1      22.531   5.198 185.790  0.00  0.00    +0.000 A 
BRANCH  15  18
ATOM     18  O   UNL     1      24.815   5.659 186.310  0.00  0.00    +0.000 OA
ATOM     19  H   UNL     1      25.411   5.458 187.060  0.00  0.00    +0.000 HD
ENDBRANCH  15  18
BRANCH  17  20
ATOM     20  O   UNL     1      22.737   5.739 184.550  0.00  0.00    +0.000 OA
ATOM     21  H   UNL     1      23.288   6.535 184.663  0.00  0.00    +0.000 HD
ENDBRANCH  17  20
ENDBRANCH   5  12
BRANCH   8  22
ATOM     22  O   UNL     1      22.263   1.859 194.560  0.00  0.00    +0.000 OA
ATOM     23  H   UNL     1      23.144   1.567 194.238  0.00  0.00    +0.000 HD
ENDBRANCH   8  22
BRANCH  10  24
ATOM     24  O   UNL     1      17.996   0.533 192.948  0.00  0.00    +0.000 OA
ATOM     25  H   UNL     1      17.895  -0.173 192.285  0.00  0.00    +0.000 HD
ENDBRANCH  10  24
TORSDOF 5
ENDMDL
