MODEL 1
REMARK VINA RESULT:      -8.2      0.000      0.000
REMARK  Name = 5281239_Fucoxanthin.pdbqt.pdb
REMARK  19 active torsions:
REMARK  status: ('A' for Active; 'I' for Inactive)
REMARK    1  A    between atoms: C_1  and  C_5
REMARK    2  A    between atoms: C_2  and  C_26
REMARK    3  A    between atoms: C_3  and  C_5
REMARK    4  A    between atoms: C_3  and  C_7
REMARK    5  A    between atoms: C_6  and  C_10
REMARK    6  A    between atoms: C_8  and  C_10
REMARK    7  A    between atoms: C_8  and  C_12
REMARK    8  A    between atoms: C_12  and  C_13
REMARK    9  A    between atoms: C_13  and  C_15
REMARK   10  A    between atoms: C_20  and  O_24
REMARK   11  A    between atoms: C_26  and  C_27
REMARK   12  A    between atoms: C_27  and  C_30
REMARK   13  A    between atoms: C_29  and  C_33
REMARK   14  A    between atoms: C_31  and  C_33
REMARK   15  A    between atoms: C_31  and  C_44
REMARK   16  A    between atoms: C_35  and  O_45
REMARK   17  A    between atoms: C_37  and  O_47
REMARK   18  A    between atoms: C_39  and  C_43
REMARK   19  A    between atoms: O_47  and  C_49
REMARK                            x       y       z     vdW  Elec       q    Type
REMARK                         _______ _______ _______ _____ _____    ______ ____
ROOT
ATOM      1  C   UNL     1      16.404  -0.676 197.892  0.00  0.00    +0.000 C 
ATOM      2  C   UNL     1      15.388  -1.135 198.337  0.00  0.00    +0.000 C 
ENDROOT
BRANCH   2   3
ATOM      3  C   UNL     1      14.087  -1.720 198.898  0.00  0.00    +0.000 C 
BRANCH   3   4
ATOM      4  C   UNL     1      12.985  -2.214 199.369  0.00  0.00    +0.000 C 
ATOM      5  C   UNL     1      12.811  -2.378 200.848  0.00  0.00    +0.000 C 
BRANCH   4   7
ATOM      6  C   UNL     1      11.032  -2.833 197.741  0.00  0.00    +0.000 C 
ATOM      7  C   UNL     1      11.929  -2.550 198.488  0.00  0.00    +0.000 C 
BRANCH   6   8
ATOM      8  C   UNL     1       9.887  -3.189 196.786  0.00  0.00    +0.000 C 
BRANCH   8   9
ATOM      9  C   UNL     1       8.920  -3.480 195.974  0.00  0.00    +0.000 C 
ATOM     10  C   UNL     1       7.723  -4.235 196.466  0.00  0.00    +0.000 C 
BRANCH   9  12
ATOM     11  C   UNL     1       9.150  -2.939 193.420  0.00  0.00    +0.000 C 
ATOM     12  C   UNL     1       9.047  -3.188 194.593  0.00  0.00    +0.000 C 
BRANCH  11  18
ATOM     13  C   UNL     1       9.912  -3.650 191.142  0.00  0.00    +0.000 C 
ATOM     14  C   UNL     1       8.795  -1.340 191.566  0.00  0.00    +0.000 C 
ATOM     15  C   UNL     1       9.644  -3.257 189.752  0.00  0.00    +0.000 C 
ATOM     16  C   UNL     1       9.048  -2.199 189.038  0.00  0.00    +0.000 C 
ATOM     17  C   UNL     1       8.687  -1.360 190.112  0.00  0.00    +0.000 C 
ATOM     18  C   UNL     1       9.261  -2.671 192.134  0.00  0.00    +0.000 C 
ATOM     19  C   UNL     1      11.442  -3.672 191.401  0.00  0.00    +0.000 C 
ATOM     20  C   UNL     1       9.317  -5.074 191.365  0.00  0.00    +0.000 C 
ATOM     21  C   UNL     1       9.698  -0.197 192.043  0.00  0.00    +0.000 C 
BRANCH  14  22
ATOM     22  O   UNL     1       7.520  -1.036 192.086  0.00  0.00    +0.000 OA
ATOM     23  H   UNL     1       7.046  -0.752 191.283  0.00  0.00    +0.000 HD
ENDBRANCH  14  22
BRANCH  16  24
ATOM     24  O   UNL     1       9.701  -1.679 187.928  0.00  0.00    +0.000 OA
BRANCH  24  26
ATOM     25  O   UNL     1       9.878   0.629 188.309  0.00  0.00    +0.000 OA
ATOM     26  C   UNL     1       9.403  -0.364 187.789  0.00  0.00    +0.000 C 
ATOM     27  C   UNL     1       8.290  -0.089 186.841  0.00  0.00    +0.000 C 
ENDBRANCH  24  26
ENDBRANCH  16  24
ENDBRANCH  11  18
ENDBRANCH   9  12
ENDBRANCH   8   9
ENDBRANCH   6   8
ENDBRANCH   4   7
ENDBRANCH   3   4
ENDBRANCH   2   3
BRANCH   1  28
ATOM     28  C   UNL     1      17.697  -0.087 197.316  0.00  0.00    +0.000 C 
BRANCH  28  29
ATOM     29  C   UNL     1      18.795   0.403 196.834  0.00  0.00    +0.000 C 
ATOM     30  C   UNL     1      19.916   0.777 197.755  0.00  0.00    +0.000 C 
BRANCH  29  32
ATOM     31  C   UNL     1      19.007   0.804 194.257  0.00  0.00    +0.000 C 
ATOM     32  C   UNL     1      18.917   0.619 195.441  0.00  0.00    +0.000 C 
BRANCH  31  33
ATOM     33  C   UNL     1      19.105   1.042 192.746  0.00  0.00    +0.000 C 
BRANCH  33  34
ATOM     34  C   UNL     1      19.188   1.254 191.466  0.00  0.00    +0.000 C 
ATOM     35  C   UNL     1      17.893   1.551 190.738  0.00  0.00    +0.000 C 
BRANCH  34  37
ATOM     36  O   UNL     1      21.412   0.433 191.169  0.00  0.00    +0.000 OA
ATOM     37  C   UNL     1      20.506   1.155 190.766  0.00  0.00    +0.000 C 
BRANCH  37  38
ATOM     38  C   UNL     1      20.768   1.914 189.567  0.00  0.00    +0.000 C 
BRANCH  38  40
ATOM     39  O   UNL     1      22.315   3.404 188.551  0.00  0.00    +0.000 OA
ATOM     40  C   UNL     1      21.064   2.685 188.374  0.00  0.00    +0.000 C 
ATOM     41  C   UNL     1      22.344   2.369 187.570  0.00  0.00    +0.000 C 
ATOM     42  C   UNL     1      19.907   3.459 187.646  0.00  0.00    +0.000 C 
ATOM     43  C   UNL     1      22.425   2.887 186.243  0.00  0.00    +0.000 C 
ATOM     44  C   UNL     1      20.429   3.883 186.345  0.00  0.00    +0.000 C 
ATOM     45  C   UNL     1      21.544   3.697 185.505  0.00  0.00    +0.000 C 
ATOM     46  C   UNL     1      23.289   1.219 187.928  0.00  0.00    +0.000 C 
ATOM     47  C   UNL     1      18.762   2.431 187.481  0.00  0.00    +0.000 C 
ATOM     48  C   UNL     1      19.523   4.626 188.583  0.00  0.00    +0.000 C 
BRANCH  45  49
ATOM     49  O   UNL     1      21.408   3.597 184.154  0.00  0.00    +0.000 OA
ATOM     50  H   UNL     1      21.813   2.786 183.799  0.00  0.00    +0.000 HD
ENDBRANCH  45  49
ENDBRANCH  38  40
ENDBRANCH  37  38
ENDBRANCH  34  37
ENDBRANCH  33  34
ENDBRANCH  31  33
ENDBRANCH  29  32
ENDBRANCH  28  29
ENDBRANCH   1  28
TORSDOF 19
ENDMDL
MODEL 2
REMARK VINA RESULT:      -8.1      1.876      2.546
REMARK  Name = 5281239_Fucoxanthin.pdbqt.pdb
REMARK  19 active torsions:
REMARK  status: ('A' for Active; 'I' for Inactive)
REMARK    1  A    between atoms: C_1  and  C_5
REMARK    2  A    between atoms: C_2  and  C_26
REMARK    3  A    between atoms: C_3  and  C_5
REMARK    4  A    between atoms: C_3  and  C_7
REMARK    5  A    between atoms: C_6  and  C_10
REMARK    6  A    between atoms: C_8  and  C_10
REMARK    7  A    between atoms: C_8  and  C_12
REMARK    8  A    between atoms: C_12  and  C_13
REMARK    9  A    between atoms: C_13  and  C_15
REMARK   10  A    between atoms: C_20  and  O_24
REMARK   11  A    between atoms: C_26  and  C_27
REMARK   12  A    between atoms: C_27  and  C_30
REMARK   13  A    between atoms: C_29  and  C_33
REMARK   14  A    between atoms: C_31  and  C_33
REMARK   15  A    between atoms: C_31  and  C_44
REMARK   16  A    between atoms: C_35  and  O_45
REMARK   17  A    between atoms: C_37  and  O_47
REMARK   18  A    between atoms: C_39  and  C_43
REMARK   19  A    between atoms: O_47  and  C_49
REMARK                            x       y       z     vdW  Elec       q    Type
REMARK                         _______ _______ _______ _____ _____    ______ ____
ROOT
ATOM      1  C   UNL     1      17.385  -0.674 197.389  0.00  0.00    +0.000 C 
ATOM      2  C   UNL     1      16.340  -1.191 197.673  0.00  0.00    +0.000 C 
ENDROOT
BRANCH   2   3
ATOM      3  C   UNL     1      15.001  -1.845 198.035  0.00  0.00    +0.000 C 
BRANCH   3   4
ATOM      4  C   UNL     1      13.868  -2.395 198.341  0.00  0.00    +0.000 C 
ATOM      5  C   UNL     1      13.804  -3.421 199.430  0.00  0.00    +0.000 C 
BRANCH   4   7
ATOM      6  C   UNL     1      11.681  -1.637 197.121  0.00  0.00    +0.000 C 
ATOM      7  C   UNL     1      12.685  -1.986 197.680  0.00  0.00    +0.000 C 
BRANCH   6   8
ATOM      8  C   UNL     1      10.401  -1.186 196.407  0.00  0.00    +0.000 C 
BRANCH   8   9
ATOM      9  C   UNL     1       9.325  -0.800 195.796  0.00  0.00    +0.000 C 
ATOM     10  C   UNL     1       8.265  -0.046 196.539  0.00  0.00    +0.000 C 
BRANCH   9  12
ATOM     11  C   UNL     1       8.901  -1.522 193.313  0.00  0.00    +0.000 C 
ATOM     12  C   UNL     1       9.099  -1.191 194.453  0.00  0.00    +0.000 C 
BRANCH  11  18
ATOM     13  C   UNL     1       7.485  -1.361 191.252  0.00  0.00    +0.000 C 
ATOM     14  C   UNL     1       9.577  -2.903 191.375  0.00  0.00    +0.000 C 
ATOM     15  C   UNL     1       7.632  -1.676 189.825  0.00  0.00    +0.000 C 
ATOM     16  C   UNL     1       8.492  -2.398 188.974  0.00  0.00    +0.000 C 
ATOM     17  C   UNL     1       9.386  -2.923 189.929  0.00  0.00    +0.000 C 
ATOM     18  C   UNL     1       8.681  -1.887 192.066  0.00  0.00    +0.000 C 
ATOM     19  C   UNL     1       6.187  -2.008 191.807  0.00  0.00    +0.000 C 
ATOM     20  C   UNL     1       7.409   0.189 191.400  0.00  0.00    +0.000 C 
ATOM     21  C   UNL     1       9.390  -4.297 191.982  0.00  0.00    +0.000 C 
BRANCH  14  22
ATOM     22  O   UNL     1      10.925  -2.575 191.625  0.00  0.00    +0.000 OA
ATOM     23  H   UNL     1      10.952  -1.642 191.346  0.00  0.00    +0.000 HD
ENDBRANCH  14  22
BRANCH  16  24
ATOM     24  O   UNL     1       7.944  -3.220 187.998  0.00  0.00    +0.000 OA
BRANCH  24  26
ATOM     25  O   UNL     1       9.457  -4.638 186.900  0.00  0.00    +0.000 OA
ATOM     26  C   UNL     1       8.898  -3.576 187.102  0.00  0.00    +0.000 C 
ATOM     27  C   UNL     1       9.350  -2.466 186.220  0.00  0.00    +0.000 C 
ENDBRANCH  24  26
ENDBRANCH  16  24
ENDBRANCH  11  18
ENDBRANCH   9  12
ENDBRANCH   8   9
ENDBRANCH   6   8
ENDBRANCH   4   7
ENDBRANCH   3   4
ENDBRANCH   2   3
BRANCH   1  28
ATOM     28  C   UNL     1      18.715  -0.004 197.027  0.00  0.00    +0.000 C 
BRANCH  28  29
ATOM     29  C   UNL     1      19.839   0.558 196.711  0.00  0.00    +0.000 C 
ATOM     30  C   UNL     1      20.916   0.713 197.741  0.00  0.00    +0.000 C 
BRANCH  29  32
ATOM     31  C   UNL     1      20.181   1.477 194.285  0.00  0.00    +0.000 C 
ATOM     32  C   UNL     1      20.030   1.059 195.401  0.00  0.00    +0.000 C 
BRANCH  31  33
ATOM     33  C   UNL     1      20.361   2.002 192.856  0.00  0.00    +0.000 C 
BRANCH  33  34
ATOM     34  C   UNL     1      20.513   2.439 191.641  0.00  0.00    +0.000 C 
ATOM     35  C   UNL     1      19.447   2.050 190.637  0.00  0.00    +0.000 C 
BRANCH  34  37
ATOM     36  O   UNL     1      22.491   3.694 192.111  0.00  0.00    +0.000 OA
ATOM     37  C   UNL     1      21.717   3.246 191.272  0.00  0.00    +0.000 C 
BRANCH  37  38
ATOM     38  C   UNL     1      22.024   3.533 189.891  0.00  0.00    +0.000 C 
BRANCH  38  40
ATOM     39  O   UNL     1      23.548   3.091 188.123  0.00  0.00    +0.000 OA
ATOM     40  C   UNL     1      22.327   3.787 188.495  0.00  0.00    +0.000 C 
ATOM     41  C   UNL     1      22.359   2.605 187.503  0.00  0.00    +0.000 C 
ATOM     42  C   UNL     1      22.141   5.235 187.915  0.00  0.00    +0.000 C 
ATOM     43  C   UNL     1      22.310   2.920 186.111  0.00  0.00    +0.000 C 
ATOM     44  C   UNL     1      22.228   5.125 186.457  0.00  0.00    +0.000 C 
ATOM     45  C   UNL     1      22.275   4.153 185.438  0.00  0.00    +0.000 C 
ATOM     46  C   UNL     1      22.006   1.171 187.905  0.00  0.00    +0.000 C 
ATOM     47  C   UNL     1      20.725   5.678 188.357  0.00  0.00    +0.000 C 
ATOM     48  C   UNL     1      23.255   6.094 188.551  0.00  0.00    +0.000 C 
BRANCH  45  49
ATOM     49  O   UNL     1      21.621   4.330 184.257  0.00  0.00    +0.000 OA
ATOM     50  H   UNL     1      20.733   4.712 184.378  0.00  0.00    +0.000 HD
ENDBRANCH  45  49
ENDBRANCH  38  40
ENDBRANCH  37  38
ENDBRANCH  34  37
ENDBRANCH  33  34
ENDBRANCH  31  33
ENDBRANCH  29  32
ENDBRANCH  28  29
ENDBRANCH   1  28
TORSDOF 19
ENDMDL
MODEL 3
REMARK VINA RESULT:      -8.1      7.467     17.708
REMARK  Name = 5281239_Fucoxanthin.pdbqt.pdb
REMARK  19 active torsions:
REMARK  status: ('A' for Active; 'I' for Inactive)
REMARK    1  A    between atoms: C_1  and  C_5
REMARK    2  A    between atoms: C_2  and  C_26
REMARK    3  A    between atoms: C_3  and  C_5
REMARK    4  A    between atoms: C_3  and  C_7
REMARK    5  A    between atoms: C_6  and  C_10
REMARK    6  A    between atoms: C_8  and  C_10
REMARK    7  A    between atoms: C_8  and  C_12
REMARK    8  A    between atoms: C_12  and  C_13
REMARK    9  A    between atoms: C_13  and  C_15
REMARK   10  A    between atoms: C_20  and  O_24
REMARK   11  A    between atoms: C_26  and  C_27
REMARK   12  A    between atoms: C_27  and  C_30
REMARK   13  A    between atoms: C_29  and  C_33
REMARK   14  A    between atoms: C_31  and  C_33
REMARK   15  A    between atoms: C_31  and  C_44
REMARK   16  A    between atoms: C_35  and  O_45
REMARK   17  A    between atoms: C_37  and  O_47
REMARK   18  A    between atoms: C_39  and  C_43
REMARK   19  A    between atoms: O_47  and  C_49
REMARK                            x       y       z     vdW  Elec       q    Type
REMARK                         _______ _______ _______ _____ _____    ______ ____
ROOT
ATOM      1  C   UNL     1      20.893   2.694 190.479  0.00  0.00    +0.000 C 
ATOM      2  C   UNL     1      21.893   3.162 190.009  0.00  0.00    +0.000 C 
ENDROOT
BRANCH   2   3
ATOM      3  C   UNL     1      23.174   3.753 189.408  0.00  0.00    +0.000 C 
BRANCH   3   4
ATOM      4  C   UNL     1      24.258   4.250 188.902  0.00  0.00    +0.000 C 
ATOM      5  C   UNL     1      24.209   5.551 188.159  0.00  0.00    +0.000 C 
BRANCH   4   7
ATOM      6  C   UNL     1      26.544   3.029 189.258  0.00  0.00    +0.000 C 
ATOM      7  C   UNL     1      25.495   3.590 189.096  0.00  0.00    +0.000 C 
BRANCH   6   8
ATOM      8  C   UNL     1      27.885   2.313 189.460  0.00  0.00    +0.000 C 
BRANCH   8   9
ATOM      9  C   UNL     1      29.022   1.711 189.623  0.00  0.00    +0.000 C 
ATOM     10  C   UNL     1      29.067   0.229 189.834  0.00  0.00    +0.000 C 
BRANCH   9  12
ATOM     11  C   UNL     1      31.228   3.114 189.792  0.00  0.00    +0.000 C 
ATOM     12  C   UNL     1      30.214   2.472 189.716  0.00  0.00    +0.000 C 
BRANCH  11  18
ATOM     13  C   UNL     1      32.529   5.156 189.148  0.00  0.00    +0.000 C 
ATOM     14  C   UNL     1      33.536   3.298 190.665  0.00  0.00    +0.000 C 
ATOM     15  C   UNL     1      33.718   5.867 189.638  0.00  0.00    +0.000 C 
ATOM     16  C   UNL     1      34.802   5.658 190.512  0.00  0.00    +0.000 C 
ATOM     17  C   UNL     1      34.526   4.337 190.921  0.00  0.00    +0.000 C 
ATOM     18  C   UNL     1      32.342   3.814 189.877  0.00  0.00    +0.000 C 
ATOM     19  C   UNL     1      32.668   4.877 187.627  0.00  0.00    +0.000 C 
ATOM     20  C   UNL     1      31.284   6.057 189.409  0.00  0.00    +0.000 C 
ATOM     21  C   UNL     1      34.165   2.086 189.972  0.00  0.00    +0.000 C 
BRANCH  14  22
ATOM     22  O   UNL     1      33.092   2.813 191.913  0.00  0.00    +0.000 OA
ATOM     23  H   UNL     1      33.175   3.608 192.470  0.00  0.00    +0.000 HD
ENDBRANCH  14  22
BRANCH  16  24
ATOM     24  O   UNL     1      36.080   6.015 190.103  0.00  0.00    +0.000 OA
BRANCH  24  26
ATOM     25  O   UNL     1      35.845   8.223 190.861  0.00  0.00    +0.000 OA
ATOM     26  C   UNL     1      36.448   7.179 190.694  0.00  0.00    +0.000 C 
ATOM     27  C   UNL     1      37.839   7.180 191.221  0.00  0.00    +0.000 C 
ENDBRANCH  24  26
ENDBRANCH  16  24
ENDBRANCH  11  18
ENDBRANCH   9  12
ENDBRANCH   8   9
ENDBRANCH   6   8
ENDBRANCH   4   7
ENDBRANCH   3   4
ENDBRANCH   2   3
BRANCH   1  28
ATOM     28  C   UNL     1      19.619   2.086 191.077  0.00  0.00    +0.000 C 
BRANCH  28  29
ATOM     29  C   UNL     1      18.538   1.583 191.584  0.00  0.00    +0.000 C 
ATOM     30  C   UNL     1      17.256   1.627 190.810  0.00  0.00    +0.000 C 
BRANCH  29  32
ATOM     31  C   UNL     1      18.599   0.562 193.992  0.00  0.00    +0.000 C 
ATOM     32  C   UNL     1      18.564   1.028 192.886  0.00  0.00    +0.000 C 
BRANCH  31  33
ATOM     33  C   UNL     1      18.660  -0.029 195.406  0.00  0.00    +0.000 C 
BRANCH  33  34
ATOM     34  C   UNL     1      18.703  -0.525 196.607  0.00  0.00    +0.000 C 
ATOM     35  C   UNL     1      17.386  -0.642 197.345  0.00  0.00    +0.000 C 
BRANCH  34  37
ATOM     36  O   UNL     1      20.101  -1.339 198.365  0.00  0.00    +0.000 OA
ATOM     37  C   UNL     1      20.012  -0.909 197.220  0.00  0.00    +0.000 C 
BRANCH  37  38
ATOM     38  C   UNL     1      21.244  -0.792 196.476  0.00  0.00    +0.000 C 
BRANCH  38  40
ATOM     39  O   UNL     1      23.432   0.129 196.541  0.00  0.00    +0.000 OA
ATOM     40  C   UNL     1      22.496  -0.659 195.756  0.00  0.00    +0.000 C 
ATOM     41  C   UNL     1      23.785  -1.242 196.372  0.00  0.00    +0.000 C 
ATOM     42  C   UNL     1      22.474  -0.386 194.209  0.00  0.00    +0.000 C 
ATOM     43  C   UNL     1      24.906  -1.407 195.505  0.00  0.00    +0.000 C 
ATOM     44  C   UNL     1      23.838  -0.596 193.719  0.00  0.00    +0.000 C 
ATOM     45  C   UNL     1      25.085  -1.092 194.146  0.00  0.00    +0.000 C 
ATOM     46  C   UNL     1      23.798  -2.032 197.684  0.00  0.00    +0.000 C 
ATOM     47  C   UNL     1      21.500  -1.434 193.618  0.00  0.00    +0.000 C 
ATOM     48  C   UNL     1      21.959   1.061 194.041  0.00  0.00    +0.000 C 
BRANCH  45  49
ATOM     49  O   UNL     1      25.881  -1.824 193.318  0.00  0.00    +0.000 OA
ATOM     50  H   UNL     1      25.871  -2.773 193.538  0.00  0.00    +0.000 HD
ENDBRANCH  45  49
ENDBRANCH  38  40
ENDBRANCH  37  38
ENDBRANCH  34  37
ENDBRANCH  33  34
ENDBRANCH  31  33
ENDBRANCH  29  32
ENDBRANCH  28  29
ENDBRANCH   1  28
TORSDOF 19
ENDMDL
MODEL 4
REMARK VINA RESULT:      -7.6      5.176     10.043
REMARK  Name = 5281239_Fucoxanthin.pdbqt.pdb
REMARK  19 active torsions:
REMARK  status: ('A' for Active; 'I' for Inactive)
REMARK    1  A    between atoms: C_1  and  C_5
REMARK    2  A    between atoms: C_2  and  C_26
REMARK    3  A    between atoms: C_3  and  C_5
REMARK    4  A    between atoms: C_3  and  C_7
REMARK    5  A    between atoms: C_6  and  C_10
REMARK    6  A    between atoms: C_8  and  C_10
REMARK    7  A    between atoms: C_8  and  C_12
REMARK    8  A    between atoms: C_12  and  C_13
REMARK    9  A    between atoms: C_13  and  C_15
REMARK   10  A    between atoms: C_20  and  O_24
REMARK   11  A    between atoms: C_26  and  C_27
REMARK   12  A    between atoms: C_27  and  C_30
REMARK   13  A    between atoms: C_29  and  C_33
REMARK   14  A    between atoms: C_31  and  C_33
REMARK   15  A    between atoms: C_31  and  C_44
REMARK   16  A    between atoms: C_35  and  O_45
REMARK   17  A    between atoms: C_37  and  O_47
REMARK   18  A    between atoms: C_39  and  C_43
REMARK   19  A    between atoms: O_47  and  C_49
REMARK                            x       y       z     vdW  Elec       q    Type
REMARK                         _______ _______ _______ _____ _____    ______ ____
ROOT
ATOM      1  C   UNL     1      26.457  -0.609 192.646  0.00  0.00    +0.000 C 
ATOM      2  C   UNL     1      26.044  -1.107 193.657  0.00  0.00    +0.000 C 
ENDROOT
BRANCH   2   3
ATOM      3  C   UNL     1      25.519  -1.751 194.946  0.00  0.00    +0.000 C 
BRANCH   3   4
ATOM      4  C   UNL     1      25.071  -2.294 196.034  0.00  0.00    +0.000 C 
ATOM      5  C   UNL     1      25.636  -3.599 196.506  0.00  0.00    +0.000 C 
BRANCH   4   7
ATOM      6  C   UNL     1      23.250  -1.061 197.452  0.00  0.00    +0.000 C 
ATOM      7  C   UNL     1      24.085  -1.629 196.801  0.00  0.00    +0.000 C 
BRANCH   6   8
ATOM      8  C   UNL     1      22.186  -0.333 198.282  0.00  0.00    +0.000 C 
BRANCH   8   9
ATOM      9  C   UNL     1      21.285   0.274 198.989  0.00  0.00    +0.000 C 
ATOM     10  C   UNL     1      21.661   1.443 199.846  0.00  0.00    +0.000 C 
BRANCH   9  12
ATOM     11  C   UNL     1      18.844  -0.673 199.083  0.00  0.00    +0.000 C 
ATOM     12  C   UNL     1      19.966  -0.241 199.040  0.00  0.00    +0.000 C 
BRANCH  11  18
ATOM     13  C   UNL     1      16.385  -0.225 199.261  0.00  0.00    +0.000 C 
ATOM     14  C   UNL     1      17.343  -2.640 199.124  0.00  0.00    +0.000 C 
ATOM     15  C   UNL     1      15.141  -0.961 198.995  0.00  0.00    +0.000 C 
ATOM     16  C   UNL     1      14.712  -2.279 198.748  0.00  0.00    +0.000 C 
ATOM     17  C   UNL     1      15.946  -2.953 198.847  0.00  0.00    +0.000 C 
ATOM     18  C   UNL     1      17.613  -1.144 199.133  0.00  0.00    +0.000 C 
ATOM     19  C   UNL     1      16.356   0.365 200.696  0.00  0.00    +0.000 C 
ATOM     20  C   UNL     1      16.498   0.927 198.217  0.00  0.00    +0.000 C 
ATOM     21  C   UNL     1      17.812  -3.287 200.431  0.00  0.00    +0.000 C 
BRANCH  14  22
ATOM     22  O   UNL     1      18.125  -3.245 198.118  0.00  0.00    +0.000 OA
ATOM     23  H   UNL     1      18.355  -4.094 198.537  0.00  0.00    +0.000 HD
ENDBRANCH  14  22
BRANCH  16  24
ATOM     24  O   UNL     1      13.592  -2.762 199.412  0.00  0.00    +0.000 OA
BRANCH  24  26
ATOM     25  O   UNL     1      13.323  -4.351 197.708  0.00  0.00    +0.000 OA
ATOM     26  C   UNL     1      12.938  -3.656 198.630  0.00  0.00    +0.000 C 
ATOM     27  C   UNL     1      11.492  -3.802 198.949  0.00  0.00    +0.000 C 
ENDBRANCH  24  26
ENDBRANCH  16  24
ENDBRANCH  11  18
ENDBRANCH   9  12
ENDBRANCH   8   9
ENDBRANCH   6   8
ENDBRANCH   4   7
ENDBRANCH   3   4
ENDBRANCH   2   3
BRANCH   1  28
ATOM     28  C   UNL     1      26.987   0.018 191.352  0.00  0.00    +0.000 C 
BRANCH  28  29
ATOM     29  C   UNL     1      27.424   0.553 190.256  0.00  0.00    +0.000 C 
ATOM     30  C   UNL     1      28.794   0.215 189.752  0.00  0.00    +0.000 C 
BRANCH  29  32
ATOM     31  C   UNL     1      25.937   2.285 188.977  0.00  0.00    +0.000 C 
ATOM     32  C   UNL     1      26.619   1.485 189.558  0.00  0.00    +0.000 C 
BRANCH  31  33
ATOM     33  C   UNL     1      25.066   3.315 188.249  0.00  0.00    +0.000 C 
BRANCH  33  34
ATOM     34  C   UNL     1      24.325   4.182 187.625  0.00  0.00    +0.000 C 
ATOM     35  C   UNL     1      24.802   5.620 187.633  0.00  0.00    +0.000 C 
BRANCH  34  37
ATOM     36  O   UNL     1      22.892   3.746 185.763  0.00  0.00    +0.000 OA
ATOM     37  C   UNL     1      23.043   3.758 186.981  0.00  0.00    +0.000 C 
BRANCH  37  38
ATOM     38  C   UNL     1      21.916   3.335 187.777  0.00  0.00    +0.000 C 
BRANCH  38  40
ATOM     39  O   UNL     1      19.796   3.965 188.645  0.00  0.00    +0.000 OA
ATOM     40  C   UNL     1      20.802   2.916 188.606  0.00  0.00    +0.000 C 
ATOM     41  C   UNL     1      19.403   2.770 187.972  0.00  0.00    +0.000 C 
ATOM     42  C   UNL     1      21.083   2.164 189.956  0.00  0.00    +0.000 C 
ATOM     43  C   UNL     1      18.426   2.034 188.707  0.00  0.00    +0.000 C 
ATOM     44  C   UNL     1      19.805   1.613 190.413  0.00  0.00    +0.000 C 
ATOM     45  C   UNL     1      18.481   1.421 189.971  0.00  0.00    +0.000 C 
ATOM     46  C   UNL     1      19.141   2.974 186.477  0.00  0.00    +0.000 C 
ATOM     47  C   UNL     1      22.081   1.035 189.601  0.00  0.00    +0.000 C 
ATOM     48  C   UNL     1      21.693   3.215 190.909  0.00  0.00    +0.000 C 
BRANCH  45  49
ATOM     49  O   UNL     1      17.789   0.287 190.270  0.00  0.00    +0.000 OA
ATOM     50  H   UNL     1      18.241  -0.517 189.958  0.00  0.00    +0.000 HD
ENDBRANCH  45  49
ENDBRANCH  38  40
ENDBRANCH  37  38
ENDBRANCH  34  37
ENDBRANCH  33  34
ENDBRANCH  31  33
ENDBRANCH  29  32
ENDBRANCH  28  29
ENDBRANCH   1  28
TORSDOF 19
ENDMDL
MODEL 5
REMARK VINA RESULT:      -7.2      6.976     13.657
REMARK  Name = 5281239_Fucoxanthin.pdbqt.pdb
REMARK  19 active torsions:
REMARK  status: ('A' for Active; 'I' for Inactive)
REMARK    1  A    between atoms: C_1  and  C_5
REMARK    2  A    between atoms: C_2  and  C_26
REMARK    3  A    between atoms: C_3  and  C_5
REMARK    4  A    between atoms: C_3  and  C_7
REMARK    5  A    between atoms: C_6  and  C_10
REMARK    6  A    between atoms: C_8  and  C_10
REMARK    7  A    between atoms: C_8  and  C_12
REMARK    8  A    between atoms: C_12  and  C_13
REMARK    9  A    between atoms: C_13  and  C_15
REMARK   10  A    between atoms: C_20  and  O_24
REMARK   11  A    between atoms: C_26  and  C_27
REMARK   12  A    between atoms: C_27  and  C_30
REMARK   13  A    between atoms: C_29  and  C_33
REMARK   14  A    between atoms: C_31  and  C_33
REMARK   15  A    between atoms: C_31  and  C_44
REMARK   16  A    between atoms: C_35  and  O_45
REMARK   17  A    between atoms: C_37  and  O_47
REMARK   18  A    between atoms: C_39  and  C_43
REMARK   19  A    between atoms: O_47  and  C_49
REMARK                            x       y       z     vdW  Elec       q    Type
REMARK                         _______ _______ _______ _____ _____    ______ ____
ROOT
ATOM      1  C   UNL     1      23.419   1.327 194.448  0.00  0.00    +0.000 C 
ATOM      2  C   UNL     1      22.544   0.943 195.173  0.00  0.00    +0.000 C 
ENDROOT
BRANCH   2   3
ATOM      3  C   UNL     1      21.421   0.455 196.096  0.00  0.00    +0.000 C 
BRANCH   3   4
ATOM      4  C   UNL     1      20.473   0.046 196.879  0.00  0.00    +0.000 C 
ATOM      5  C   UNL     1      19.620  -1.119 196.476  0.00  0.00    +0.000 C 
BRANCH   4   7
ATOM      6  C   UNL     1      20.108   1.194 199.202  0.00  0.00    +0.000 C 
ATOM      7  C   UNL     1      20.277   0.668 198.135  0.00  0.00    +0.000 C 
BRANCH   6   8
ATOM      8  C   UNL     1      19.893   1.860 200.566  0.00  0.00    +0.000 C 
BRANCH   8   9
ATOM      9  C   UNL     1      19.706   2.431 201.715  0.00  0.00    +0.000 C 
ATOM     10  C   UNL     1      18.458   2.161 202.497  0.00  0.00    +0.000 C 
BRANCH   9  12
ATOM     11  C   UNL     1      21.410   4.229 202.571  0.00  0.00    +0.000 C 
ATOM     12  C   UNL     1      20.630   3.402 202.177  0.00  0.00    +0.000 C 
BRANCH  11  18
ATOM     13  C   UNL     1      23.589   5.430 202.276  0.00  0.00    +0.000 C 
ATOM     14  C   UNL     1      22.002   5.918 204.279  0.00  0.00    +0.000 C 
ATOM     15  C   UNL     1      24.204   6.669 202.770  0.00  0.00    +0.000 C 
ATOM     16  C   UNL     1      24.000   7.635 203.774  0.00  0.00    +0.000 C 
ATOM     17  C   UNL     1      22.864   7.088 204.404  0.00  0.00    +0.000 C 
ATOM     18  C   UNL     1      22.262   5.139 202.999  0.00  0.00    +0.000 C 
ATOM     19  C   UNL     1      24.550   4.233 202.507  0.00  0.00    +0.000 C 
ATOM     20  C   UNL     1      23.312   5.600 200.751  0.00  0.00    +0.000 C 
ATOM     21  C   UNL     1      22.114   5.008 205.505  0.00  0.00    +0.000 C 
BRANCH  14  22
ATOM     22  O   UNL     1      20.666   6.369 204.282  0.00  0.00    +0.000 OA
ATOM     23  H   UNL     1      20.286   5.842 205.009  0.00  0.00    +0.000 HD
ENDBRANCH  14  22
BRANCH  16  24
ATOM     24  O   UNL     1      25.084   8.066 204.529  0.00  0.00    +0.000 OA
BRANCH  24  26
ATOM     25  O   UNL     1      25.243  10.192 203.551  0.00  0.00    +0.000 OA
ATOM     26  C   UNL     1      25.683   9.119 203.920  0.00  0.00    +0.000 C 
ATOM     27  C   UNL     1      27.132   8.921 203.647  0.00  0.00    +0.000 C 
ENDBRANCH  24  26
ENDBRANCH  16  24
ENDBRANCH  11  18
ENDBRANCH   9  12
ENDBRANCH   8   9
ENDBRANCH   6   8
ENDBRANCH   4   7
ENDBRANCH   3   4
ENDBRANCH   2   3
BRANCH   1  28
ATOM     28  C   UNL     1      24.530   1.824 193.515  0.00  0.00    +0.000 C 
BRANCH  28  29
ATOM     29  C   UNL     1      25.463   2.239 192.718  0.00  0.00    +0.000 C 
ATOM     30  C   UNL     1      26.900   2.137 193.129  0.00  0.00    +0.000 C 
BRANCH  29  32
ATOM     31  C   UNL     1      24.838   3.316 190.417  0.00  0.00    +0.000 C 
ATOM     32  C   UNL     1      25.118   2.824 191.476  0.00  0.00    +0.000 C 
BRANCH  31  33
ATOM     33  C   UNL     1      24.495   3.940 189.059  0.00  0.00    +0.000 C 
BRANCH  33  34
ATOM     34  C   UNL     1      24.196   4.466 187.909  0.00  0.00    +0.000 C 
ATOM     35  C   UNL     1      25.115   5.557 187.397  0.00  0.00    +0.000 C 
BRANCH  34  37
ATOM     36  O   UNL     1      22.888   4.069 185.948  0.00  0.00    +0.000 OA
ATOM     37  C   UNL     1      22.970   4.029 187.172  0.00  0.00    +0.000 C 
BRANCH  37  38
ATOM     38  C   UNL     1      21.816   3.530 187.881  0.00  0.00    +0.000 C 
BRANCH  38  40
ATOM     39  O   UNL     1      19.610   4.058 188.587  0.00  0.00    +0.000 OA
ATOM     40  C   UNL     1      20.661   3.054 188.618  0.00  0.00    +0.000 C 
ATOM     41  C   UNL     1      19.322   2.856 187.876  0.00  0.00    +0.000 C 
ATOM     42  C   UNL     1      20.869   2.298 189.979  0.00  0.00    +0.000 C 
ATOM     43  C   UNL     1      18.324   2.071 188.527  0.00  0.00    +0.000 C 
ATOM     44  C   UNL     1      19.585   1.689 190.331  0.00  0.00    +0.000 C 
ATOM     45  C   UNL     1      18.309   1.445 189.786  0.00  0.00    +0.000 C 
ATOM     46  C   UNL     1      19.168   3.066 186.367  0.00  0.00    +0.000 C 
ATOM     47  C   UNL     1      21.940   1.218 189.693  0.00  0.00    +0.000 C 
ATOM     48  C   UNL     1      21.358   3.364 190.985  0.00  0.00    +0.000 C 
BRANCH  45  49
ATOM     49  O   UNL     1      17.646   0.279 190.022  0.00  0.00    +0.000 OA
ATOM     50  H   UNL     1      18.133  -0.498 189.694  0.00  0.00    +0.000 HD
ENDBRANCH  45  49
ENDBRANCH  38  40
ENDBRANCH  37  38
ENDBRANCH  34  37
ENDBRANCH  33  34
ENDBRANCH  31  33
ENDBRANCH  29  32
ENDBRANCH  28  29
ENDBRANCH   1  28
TORSDOF 19
ENDMDL
MODEL 6
REMARK VINA RESULT:      -7.0      6.684     11.923
REMARK  Name = 5281239_Fucoxanthin.pdbqt.pdb
REMARK  19 active torsions:
REMARK  status: ('A' for Active; 'I' for Inactive)
REMARK    1  A    between atoms: C_1  and  C_5
REMARK    2  A    between atoms: C_2  and  C_26
REMARK    3  A    between atoms: C_3  and  C_5
REMARK    4  A    between atoms: C_3  and  C_7
REMARK    5  A    between atoms: C_6  and  C_10
REMARK    6  A    between atoms: C_8  and  C_10
REMARK    7  A    between atoms: C_8  and  C_12
REMARK    8  A    between atoms: C_12  and  C_13
REMARK    9  A    between atoms: C_13  and  C_15
REMARK   10  A    between atoms: C_20  and  O_24
REMARK   11  A    between atoms: C_26  and  C_27
REMARK   12  A    between atoms: C_27  and  C_30
REMARK   13  A    between atoms: C_29  and  C_33
REMARK   14  A    between atoms: C_31  and  C_33
REMARK   15  A    between atoms: C_31  and  C_44
REMARK   16  A    between atoms: C_35  and  O_45
REMARK   17  A    between atoms: C_37  and  O_47
REMARK   18  A    between atoms: C_39  and  C_43
REMARK   19  A    between atoms: O_47  and  C_49
REMARK                            x       y       z     vdW  Elec       q    Type
REMARK                         _______ _______ _______ _____ _____    ______ ____
ROOT
ATOM      1  C   UNL     1      25.973  -0.414 192.894  0.00  0.00    +0.000 C 
ATOM      2  C   UNL     1      25.474  -0.858 193.890  0.00  0.00    +0.000 C 
ENDROOT
BRANCH   2   3
ATOM      3  C   UNL     1      24.834  -1.432 195.160  0.00  0.00    +0.000 C 
BRANCH   3   4
ATOM      4  C   UNL     1      24.289  -1.917 196.231  0.00  0.00    +0.000 C 
ATOM      5  C   UNL     1      25.033  -2.918 197.061  0.00  0.00    +0.000 C 
BRANCH   4   7
ATOM      6  C   UNL     1      21.932  -1.072 196.991  0.00  0.00    +0.000 C 
ATOM      7  C   UNL     1      23.014  -1.461 196.643  0.00  0.00    +0.000 C 
BRANCH   6   8
ATOM      8  C   UNL     1      20.551  -0.574 197.430  0.00  0.00    +0.000 C 
BRANCH   8   9
ATOM      9  C   UNL     1      19.378  -0.157 197.794  0.00  0.00    +0.000 C 
ATOM     10  C   UNL     1      18.295   0.031 196.776  0.00  0.00    +0.000 C 
BRANCH   9  12
ATOM     11  C   UNL     1      18.959   0.564 200.278  0.00  0.00    +0.000 C 
ATOM     12  C   UNL     1      19.155   0.233 199.138  0.00  0.00    +0.000 C 
BRANCH  11  18
ATOM     13  C   UNL     1      17.694   0.246 202.417  0.00  0.00    +0.000 C 
ATOM     14  C   UNL     1      19.493   2.104 202.139  0.00  0.00    +0.000 C 
ATOM     15  C   UNL     1      17.858   0.631 203.825  0.00  0.00    +0.000 C 
ATOM     16  C   UNL     1      18.627   1.513 204.608  0.00  0.00    +0.000 C 
ATOM     17  C   UNL     1      19.374   2.143 203.592  0.00  0.00    +0.000 C 
ATOM     18  C   UNL     1      18.744   0.932 201.525  0.00  0.00    +0.000 C 
ATOM     19  C   UNL     1      16.281   0.652 201.917  0.00  0.00    +0.000 C 
ATOM     20  C   UNL     1      17.868  -1.300 202.313  0.00  0.00    +0.000 C 
ATOM     21  C   UNL     1      19.049   3.427 201.507  0.00  0.00    +0.000 C 
BRANCH  14  22
ATOM     22  O   UNL     1      20.863   1.994 201.824  0.00  0.00    +0.000 OA
ATOM     23  H   UNL     1      21.076   2.909 201.564  0.00  0.00    +0.000 HD
ENDBRANCH  14  22
BRANCH  16  24
ATOM     24  O   UNL     1      18.000   2.267 205.591  0.00  0.00    +0.000 OA
BRANCH  24  26
ATOM     25  O   UNL     1      17.848   1.449 207.785  0.00  0.00    +0.000 OA
ATOM     26  C   UNL     1      18.441   1.889 206.817  0.00  0.00    +0.000 C 
ATOM     27  C   UNL     1      19.907   2.052 207.014  0.00  0.00    +0.000 C 
ENDBRANCH  24  26
ENDBRANCH  16  24
ENDBRANCH  11  18
ENDBRANCH   9  12
ENDBRANCH   8   9
ENDBRANCH   6   8
ENDBRANCH   4   7
ENDBRANCH   3   4
ENDBRANCH   2   3
BRANCH   1  28
ATOM     28  C   UNL     1      26.609   0.144 191.615  0.00  0.00    +0.000 C 
BRANCH  28  29
ATOM     29  C   UNL     1      27.138   0.612 190.529  0.00  0.00    +0.000 C 
ATOM     30  C   UNL     1      28.528   0.211 190.140  0.00  0.00    +0.000 C 
BRANCH  29  32
ATOM     31  C   UNL     1      25.807   2.320 189.059  0.00  0.00    +0.000 C 
ATOM     32  C   UNL     1      26.413   1.530 189.732  0.00  0.00    +0.000 C 
BRANCH  31  33
ATOM     33  C   UNL     1      25.045   3.339 188.205  0.00  0.00    +0.000 C 
BRANCH  33  34
ATOM     34  C   UNL     1      24.394   4.197 187.477  0.00  0.00    +0.000 C 
ATOM     35  C   UNL     1      25.029   5.561 187.296  0.00  0.00    +0.000 C 
BRANCH  34  37
ATOM     36  O   UNL     1      22.825   3.921 185.696  0.00  0.00    +0.000 OA
ATOM     37  C   UNL     1      23.062   3.841 186.897  0.00  0.00    +0.000 C 
BRANCH  37  38
ATOM     38  C   UNL     1      21.985   3.378 187.739  0.00  0.00    +0.000 C 
BRANCH  38  40
ATOM     39  O   UNL     1      19.872   3.982 188.642  0.00  0.00    +0.000 OA
ATOM     40  C   UNL     1      20.882   2.938 188.572  0.00  0.00    +0.000 C 
ATOM     41  C   UNL     1      19.476   2.800 187.950  0.00  0.00    +0.000 C 
ATOM     42  C   UNL     1      21.181   2.160 189.903  0.00  0.00    +0.000 C 
ATOM     43  C   UNL     1      18.510   2.045 188.681  0.00  0.00    +0.000 C 
ATOM     44  C   UNL     1      19.909   1.595 190.362  0.00  0.00    +0.000 C 
ATOM     45  C   UNL     1      18.582   1.406 189.931  0.00  0.00    +0.000 C 
ATOM     46  C   UNL     1      19.197   3.032 186.462  0.00  0.00    +0.000 C 
ATOM     47  C   UNL     1      22.179   1.043 189.514  0.00  0.00    +0.000 C 
ATOM     48  C   UNL     1      21.797   3.194 190.870  0.00  0.00    +0.000 C 
BRANCH  45  49
ATOM     49  O   UNL     1      17.898   0.264 190.215  0.00  0.00    +0.000 OA
ATOM     50  H   UNL     1      17.030   0.441 190.620  0.00  0.00    +0.000 HD
ENDBRANCH  45  49
ENDBRANCH  38  40
ENDBRANCH  37  38
ENDBRANCH  34  37
ENDBRANCH  33  34
ENDBRANCH  31  33
ENDBRANCH  29  32
ENDBRANCH  28  29
ENDBRANCH   1  28
TORSDOF 19
ENDMDL
MODEL 7
REMARK VINA RESULT:      -7.0      2.666      4.887
REMARK  Name = 5281239_Fucoxanthin.pdbqt.pdb
REMARK  19 active torsions:
REMARK  status: ('A' for Active; 'I' for Inactive)
REMARK    1  A    between atoms: C_1  and  C_5
REMARK    2  A    between atoms: C_2  and  C_26
REMARK    3  A    between atoms: C_3  and  C_5
REMARK    4  A    between atoms: C_3  and  C_7
REMARK    5  A    between atoms: C_6  and  C_10
REMARK    6  A    between atoms: C_8  and  C_10
REMARK    7  A    between atoms: C_8  and  C_12
REMARK    8  A    between atoms: C_12  and  C_13
REMARK    9  A    between atoms: C_13  and  C_15
REMARK   10  A    between atoms: C_20  and  O_24
REMARK   11  A    between atoms: C_26  and  C_27
REMARK   12  A    between atoms: C_27  and  C_30
REMARK   13  A    between atoms: C_29  and  C_33
REMARK   14  A    between atoms: C_31  and  C_33
REMARK   15  A    between atoms: C_31  and  C_44
REMARK   16  A    between atoms: C_35  and  O_45
REMARK   17  A    between atoms: C_37  and  O_47
REMARK   18  A    between atoms: C_39  and  C_43
REMARK   19  A    between atoms: O_47  and  C_49
REMARK                            x       y       z     vdW  Elec       q    Type
REMARK                         _______ _______ _______ _____ _____    ______ ____
ROOT
ATOM      1  C   UNL     1      20.432  -0.111 195.988  0.00  0.00    +0.000 C 
ATOM      2  C   UNL     1      19.371   0.008 196.536  0.00  0.00    +0.000 C 
ENDROOT
BRANCH   2   3
ATOM      3  C   UNL     1      18.014   0.166 197.233  0.00  0.00    +0.000 C 
BRANCH   3   4
ATOM      4  C   UNL     1      16.869   0.298 197.825  0.00  0.00    +0.000 C 
ATOM      5  C   UNL     1      16.536   1.575 198.534  0.00  0.00    +0.000 C 
BRANCH   4   7
ATOM      6  C   UNL     1      15.108  -1.633 197.700  0.00  0.00    +0.000 C 
ATOM      7  C   UNL     1      15.915  -0.746 197.757  0.00  0.00    +0.000 C 
BRANCH   6   8
ATOM      8  C   UNL     1      14.080  -2.769 197.631  0.00  0.00    +0.000 C 
BRANCH   8   9
ATOM      9  C   UNL     1      13.218  -3.736 197.574  0.00  0.00    +0.000 C 
ATOM     10  C   UNL     1      13.490  -5.030 198.278  0.00  0.00    +0.000 C 
BRANCH   9  12
ATOM     11  C   UNL     1      11.101  -3.508 196.048  0.00  0.00    +0.000 C 
ATOM     12  C   UNL     1      12.072  -3.610 196.751  0.00  0.00    +0.000 C 
BRANCH  11  18
ATOM     13  C   UNL     1      10.009  -2.465 194.049  0.00  0.00    +0.000 C 
ATOM     14  C   UNL     1       8.754  -4.144 195.590  0.00  0.00    +0.000 C 
ATOM     15  C   UNL     1       8.844  -2.743 193.198  0.00  0.00    +0.000 C 
ATOM     16  C   UNL     1       7.684  -3.542 193.205  0.00  0.00    +0.000 C 
ATOM     17  C   UNL     1       7.828  -4.160 194.464  0.00  0.00    +0.000 C 
ATOM     18  C   UNL     1      10.039  -3.395 195.275  0.00  0.00    +0.000 C 
ATOM     19  C   UNL     1       9.965  -0.995 194.545  0.00  0.00    +0.000 C 
ATOM     20  C   UNL     1      11.295  -2.699 193.199  0.00  0.00    +0.000 C 
ATOM     21  C   UNL     1       8.090  -3.582 196.850  0.00  0.00    +0.000 C 
BRANCH  14  22
ATOM     22  O   UNL     1       9.065  -5.482 195.908  0.00  0.00    +0.000 OA
ATOM     23  H   UNL     1       8.445  -5.655 196.640  0.00  0.00    +0.000 HD
ENDBRANCH  14  22
BRANCH  16  24
ATOM     24  O   UNL     1       6.471  -2.976 192.834  0.00  0.00    +0.000 OA
BRANCH  24  26
ATOM     25  O   UNL     1       4.998  -4.413 191.705  0.00  0.00    +0.000 OA
ATOM     26  C   UNL     1       5.947  -3.653 191.782  0.00  0.00    +0.000 C 
ATOM     27  C   UNL     1       6.667  -3.436 190.498  0.00  0.00    +0.000 C 
ENDBRANCH  24  26
ENDBRANCH  16  24
ENDBRANCH  11  18
ENDBRANCH   9  12
ENDBRANCH   8   9
ENDBRANCH   6   8
ENDBRANCH   4   7
ENDBRANCH   3   4
ENDBRANCH   2   3
BRANCH   1  28
ATOM     28  C   UNL     1      21.786  -0.253 195.283  0.00  0.00    +0.000 C 
BRANCH  28  29
ATOM     29  C   UNL     1      22.928  -0.364 194.682  0.00  0.00    +0.000 C 
ATOM     30  C   UNL     1      23.909  -1.407 195.123  0.00  0.00    +0.000 C 
BRANCH  29  32
ATOM     31  C   UNL     1      23.534   1.279 192.738  0.00  0.00    +0.000 C 
ATOM     32  C   UNL     1      23.261   0.528 193.635  0.00  0.00    +0.000 C 
BRANCH  31  33
ATOM     33  C   UNL     1      23.872   2.229 191.582  0.00  0.00    +0.000 C 
BRANCH  33  34
ATOM     34  C   UNL     1      24.150   3.033 190.600  0.00  0.00    +0.000 C 
ATOM     35  C   UNL     1      25.612   3.178 190.229  0.00  0.00    +0.000 C 
BRANCH  34  37
ATOM     36  O   UNL     1      23.270   4.860 189.336  0.00  0.00    +0.000 OA
ATOM     37  C   UNL     1      23.062   3.800 189.918  0.00  0.00    +0.000 C 
BRANCH  37  38
ATOM     38  C   UNL     1      21.702   3.315 189.914  0.00  0.00    +0.000 C 
BRANCH  38  40
ATOM     39  O   UNL     1      19.428   4.000 189.945  0.00  0.00    +0.000 OA
ATOM     40  C   UNL     1      20.327   2.857 189.928  0.00  0.00    +0.000 C 
ATOM     41  C   UNL     1      19.398   3.221 188.751  0.00  0.00    +0.000 C 
ATOM     42  C   UNL     1      19.927   1.637 190.834  0.00  0.00    +0.000 C 
ATOM     43  C   UNL     1      18.186   2.479 188.621  0.00  0.00    +0.000 C 
ATOM     44  C   UNL     1      18.584   1.222 190.423  0.00  0.00    +0.000 C 
ATOM     45  C   UNL     1      17.630   1.461 189.415  0.00  0.00    +0.000 C 
ATOM     46  C   UNL     1      19.881   3.987 187.515  0.00  0.00    +0.000 C 
ATOM     47  C   UNL     1      20.970   0.535 190.526  0.00  0.00    +0.000 C 
ATOM     48  C   UNL     1      20.014   2.143 192.291  0.00  0.00    +0.000 C 
BRANCH  45  49
ATOM     49  O   UNL     1      16.875   0.453 188.898  0.00  0.00    +0.000 OA
ATOM     50  H   UNL     1      17.417  -0.255 188.506  0.00  0.00    +0.000 HD
ENDBRANCH  45  49
ENDBRANCH  38  40
ENDBRANCH  37  38
ENDBRANCH  34  37
ENDBRANCH  33  34
ENDBRANCH  31  33
ENDBRANCH  29  32
ENDBRANCH  28  29
ENDBRANCH   1  28
TORSDOF 19
ENDMDL
MODEL 8
REMARK VINA RESULT:      -6.8      6.433     10.889
REMARK  Name = 5281239_Fucoxanthin.pdbqt.pdb
REMARK  19 active torsions:
REMARK  status: ('A' for Active; 'I' for Inactive)
REMARK    1  A    between atoms: C_1  and  C_5
REMARK    2  A    between atoms: C_2  and  C_26
REMARK    3  A    between atoms: C_3  and  C_5
REMARK    4  A    between atoms: C_3  and  C_7
REMARK    5  A    between atoms: C_6  and  C_10
REMARK    6  A    between atoms: C_8  and  C_10
REMARK    7  A    between atoms: C_8  and  C_12
REMARK    8  A    between atoms: C_12  and  C_13
REMARK    9  A    between atoms: C_13  and  C_15
REMARK   10  A    between atoms: C_20  and  O_24
REMARK   11  A    between atoms: C_26  and  C_27
REMARK   12  A    between atoms: C_27  and  C_30
REMARK   13  A    between atoms: C_29  and  C_33
REMARK   14  A    between atoms: C_31  and  C_33
REMARK   15  A    between atoms: C_31  and  C_44
REMARK   16  A    between atoms: C_35  and  O_45
REMARK   17  A    between atoms: C_37  and  O_47
REMARK   18  A    between atoms: C_39  and  C_43
REMARK   19  A    between atoms: O_47  and  C_49
REMARK                            x       y       z     vdW  Elec       q    Type
REMARK                         _______ _______ _______ _____ _____    ______ ____
ROOT
ATOM      1  C   UNL     1      26.068  -0.388 192.757  0.00  0.00    +0.000 C 
ATOM      2  C   UNL     1      25.593  -0.863 193.751  0.00  0.00    +0.000 C 
ENDROOT
BRANCH   2   3
ATOM      3  C   UNL     1      24.985  -1.477 195.018  0.00  0.00    +0.000 C 
BRANCH   3   4
ATOM      4  C   UNL     1      24.469  -1.998 196.086  0.00  0.00    +0.000 C 
ATOM      5  C   UNL     1      25.340  -2.748 197.048  0.00  0.00    +0.000 C 
BRANCH   4   7
ATOM      6  C   UNL     1      21.927  -1.655 196.605  0.00  0.00    +0.000 C 
ATOM      7  C   UNL     1      23.094  -1.814 196.368  0.00  0.00    +0.000 C 
BRANCH   6   8
ATOM      8  C   UNL     1      20.437  -1.453 196.902  0.00  0.00    +0.000 C 
BRANCH   8   9
ATOM      9  C   UNL     1      19.176  -1.275 197.146  0.00  0.00    +0.000 C 
ATOM     10  C   UNL     1      18.363  -0.362 196.281  0.00  0.00    +0.000 C 
BRANCH   9  12
ATOM     11  C   UNL     1      18.105  -2.345 199.284  0.00  0.00    +0.000 C 
ATOM     12  C   UNL     1      18.594  -1.854 198.301  0.00  0.00    +0.000 C 
BRANCH  11  18
ATOM     13  C   UNL     1      18.237  -2.797 201.745  0.00  0.00    +0.000 C 
ATOM     14  C   UNL     1      16.282  -3.691 200.279  0.00  0.00    +0.000 C 
ATOM     15  C   UNL     1      17.312  -3.211 202.809  0.00  0.00    +0.000 C 
ATOM     16  C   UNL     1      16.022  -3.759 202.948  0.00  0.00    +0.000 C 
ATOM     17  C   UNL     1      15.682  -3.916 201.589  0.00  0.00    +0.000 C 
ATOM     18  C   UNL     1      17.571  -2.888 200.360  0.00  0.00    +0.000 C 
ATOM     19  C   UNL     1      19.493  -3.708 201.751  0.00  0.00    +0.000 C 
ATOM     20  C   UNL     1      18.653  -1.318 202.014  0.00  0.00    +0.000 C 
ATOM     21  C   UNL     1      16.507  -5.010 199.534  0.00  0.00    +0.000 C 
BRANCH  14  22
ATOM     22  O   UNL     1      15.347  -2.985 199.495  0.00  0.00    +0.000 OA
ATOM     23  H   UNL     1      15.283  -3.557 198.708  0.00  0.00    +0.000 HD
ENDBRANCH  14  22
BRANCH  16  24
ATOM     24  O   UNL     1      15.822  -4.798 203.848  0.00  0.00    +0.000 OA
BRANCH  24  26
ATOM     25  O   UNL     1      17.018  -6.505 202.770  0.00  0.00    +0.000 OA
ATOM     26  C   UNL     1      16.784  -5.741 203.688  0.00  0.00    +0.000 C 
ATOM     27  C   UNL     1      17.708  -5.870 204.847  0.00  0.00    +0.000 C 
ENDBRANCH  24  26
ENDBRANCH  16  24
ENDBRANCH  11  18
ENDBRANCH   9  12
ENDBRANCH   8   9
ENDBRANCH   6   8
ENDBRANCH   4   7
ENDBRANCH   3   4
ENDBRANCH   2   3
BRANCH   1  28
ATOM     28  C   UNL     1      26.677   0.210 191.483  0.00  0.00    +0.000 C 
BRANCH  28  29
ATOM     29  C   UNL     1      27.184   0.708 190.401  0.00  0.00    +0.000 C 
ATOM     30  C   UNL     1      28.574   0.334 189.982  0.00  0.00    +0.000 C 
BRANCH  29  32
ATOM     31  C   UNL     1      25.813   2.433 188.990  0.00  0.00    +0.000 C 
ATOM     32  C   UNL     1      26.437   1.636 189.636  0.00  0.00    +0.000 C 
BRANCH  31  33
ATOM     33  C   UNL     1      25.027   3.463 188.170  0.00  0.00    +0.000 C 
BRANCH  33  34
ATOM     34  C   UNL     1      24.356   4.329 187.469  0.00  0.00    +0.000 C 
ATOM     35  C   UNL     1      25.010   5.676 187.242  0.00  0.00    +0.000 C 
BRANCH  34  37
ATOM     36  O   UNL     1      22.668   4.134 185.790  0.00  0.00    +0.000 OA
ATOM     37  C   UNL     1      22.987   3.998 186.966  0.00  0.00    +0.000 C 
BRANCH  37  38
ATOM     38  C   UNL     1      21.970   3.493 187.858  0.00  0.00    +0.000 C 
BRANCH  38  40
ATOM     39  O   UNL     1      19.892   3.930 188.923  0.00  0.00    +0.000 OA
ATOM     40  C   UNL     1      20.955   2.954 188.744  0.00  0.00    +0.000 C 
ATOM     41  C   UNL     1      19.521   2.751 188.211  0.00  0.00    +0.000 C 
ATOM     42  C   UNL     1      21.391   2.149 190.020  0.00  0.00    +0.000 C 
ATOM     43  C   UNL     1      18.655   1.911 188.974  0.00  0.00    +0.000 C 
ATOM     44  C   UNL     1      20.191   1.489 190.539  0.00  0.00    +0.000 C 
ATOM     45  C   UNL     1      18.851   1.233 190.190  0.00  0.00    +0.000 C 
ATOM     46  C   UNL     1      19.127   3.019 186.756  0.00  0.00    +0.000 C 
ATOM     47  C   UNL     1      22.426   1.112 189.521  0.00  0.00    +0.000 C 
ATOM     48  C   UNL     1      22.009   3.185 190.985  0.00  0.00    +0.000 C 
BRANCH  45  49
ATOM     49  O   UNL     1      18.258   0.040 190.472  0.00  0.00    +0.000 OA
ATOM     50  H   UNL     1      18.728  -0.453 191.168  0.00  0.00    +0.000 HD
ENDBRANCH  45  49
ENDBRANCH  38  40
ENDBRANCH  37  38
ENDBRANCH  34  37
ENDBRANCH  33  34
ENDBRANCH  31  33
ENDBRANCH  29  32
ENDBRANCH  28  29
ENDBRANCH   1  28
TORSDOF 19
ENDMDL
MODEL 9
REMARK VINA RESULT:      -6.7      7.023     12.648
REMARK  Name = 5281239_Fucoxanthin.pdbqt.pdb
REMARK  19 active torsions:
REMARK  status: ('A' for Active; 'I' for Inactive)
REMARK    1  A    between atoms: C_1  and  C_5
REMARK    2  A    between atoms: C_2  and  C_26
REMARK    3  A    between atoms: C_3  and  C_5
REMARK    4  A    between atoms: C_3  and  C_7
REMARK    5  A    between atoms: C_6  and  C_10
REMARK    6  A    between atoms: C_8  and  C_10
REMARK    7  A    between atoms: C_8  and  C_12
REMARK    8  A    between atoms: C_12  and  C_13
REMARK    9  A    between atoms: C_13  and  C_15
REMARK   10  A    between atoms: C_20  and  O_24
REMARK   11  A    between atoms: C_26  and  C_27
REMARK   12  A    between atoms: C_27  and  C_30
REMARK   13  A    between atoms: C_29  and  C_33
REMARK   14  A    between atoms: C_31  and  C_33
REMARK   15  A    between atoms: C_31  and  C_44
REMARK   16  A    between atoms: C_35  and  O_45
REMARK   17  A    between atoms: C_37  and  O_47
REMARK   18  A    between atoms: C_39  and  C_43
REMARK   19  A    between atoms: O_47  and  C_49
REMARK                            x       y       z     vdW  Elec       q    Type
REMARK                         _______ _______ _______ _____ _____    ______ ____
ROOT
ATOM      1  C   UNL     1      26.178   0.321 191.760  0.00  0.00    +0.000 C 
ATOM      2  C   UNL     1      25.963  -0.365 192.720  0.00  0.00    +0.000 C 
ENDROOT
BRANCH   2   3
ATOM      3  C   UNL     1      25.691  -1.248 193.945  0.00  0.00    +0.000 C 
BRANCH   3   4
ATOM      4  C   UNL     1      25.465  -1.997 194.978  0.00  0.00    +0.000 C 
ATOM      5  C   UNL     1      26.491  -2.997 195.416  0.00  0.00    +0.000 C 
BRANCH   4   7
ATOM      6  C   UNL     1      23.259  -1.693 196.353  0.00  0.00    +0.000 C 
ATOM      7  C   UNL     1      24.271  -1.832 195.720  0.00  0.00    +0.000 C 
BRANCH   6   8
ATOM      8  C   UNL     1      21.971  -1.511 197.163  0.00  0.00    +0.000 C 
BRANCH   8   9
ATOM      9  C   UNL     1      20.877  -1.366 197.844  0.00  0.00    +0.000 C 
ATOM     10  C   UNL     1      19.574  -1.858 197.293  0.00  0.00    +0.000 C 
BRANCH   9  12
ATOM     11  C   UNL     1      20.910  -0.015 200.089  0.00  0.00    +0.000 C 
ATOM     12  C   UNL     1      20.897  -0.638 199.060  0.00  0.00    +0.000 C 
BRANCH  11  18
ATOM     13  C   UNL     1      20.180   2.005 201.379  0.00  0.00    +0.000 C 
ATOM     14  C   UNL     1      21.743   0.199 202.409  0.00  0.00    +0.000 C 
ATOM     15  C   UNL     1      20.110   2.407 202.790  0.00  0.00    +0.000 C 
ATOM     16  C   UNL     1      20.599   1.992 204.044  0.00  0.00    +0.000 C 
ATOM     17  C   UNL     1      21.376   0.886 203.642  0.00  0.00    +0.000 C 
ATOM     18  C   UNL     1      20.927   0.670 201.215  0.00  0.00    +0.000 C 
ATOM     19  C   UNL     1      20.923   3.091 200.555  0.00  0.00    +0.000 C 
ATOM     20  C   UNL     1      18.723   1.843 200.848  0.00  0.00    +0.000 C 
ATOM     21  C   UNL     1      23.244   0.322 202.127  0.00  0.00    +0.000 C 
BRANCH  14  22
ATOM     22  O   UNL     1      21.522  -1.180 202.605  0.00  0.00    +0.000 OA
ATOM     23  H   UNL     1      20.548  -1.220 202.612  0.00  0.00    +0.000 HD
ENDBRANCH  14  22
BRANCH  16  24
ATOM     24  O   UNL     1      21.121   2.940 204.914  0.00  0.00    +0.000 OA
BRANCH  24  26
ATOM     25  O   UNL     1      22.981   3.670 203.685  0.00  0.00    +0.000 OA
ATOM     26  C   UNL     1      21.903   3.813 204.233  0.00  0.00    +0.000 C 
ATOM     27  C   UNL     1      21.350   5.192 204.152  0.00  0.00    +0.000 C 
ENDBRANCH  24  26
ENDBRANCH  16  24
ENDBRANCH  11  18
ENDBRANCH   9  12
ENDBRANCH   8   9
ENDBRANCH   6   8
ENDBRANCH   4   7
ENDBRANCH   3   4
ENDBRANCH   2   3
BRANCH   1  28
ATOM     28  C   UNL     1      26.456   1.189 190.527  0.00  0.00    +0.000 C 
BRANCH  28  29
ATOM     29  C   UNL     1      26.688   1.914 189.479  0.00  0.00    +0.000 C 
ATOM     30  C   UNL     1      28.096   2.257 189.101  0.00  0.00    +0.000 C 
BRANCH  29  32
ATOM     31  C   UNL     1      24.693   2.849 188.068  0.00  0.00    +0.000 C 
ATOM     32  C   UNL     1      25.605   2.413 188.716  0.00  0.00    +0.000 C 
BRANCH  31  33
ATOM     33  C   UNL     1      23.534   3.421 187.242  0.00  0.00    +0.000 C 
BRANCH  33  34
ATOM     34  C   UNL     1      22.549   3.898 186.540  0.00  0.00    +0.000 C 
ATOM     35  C   UNL     1      22.888   4.973 185.528  0.00  0.00    +0.000 C 
BRANCH  34  37
ATOM     36  O   UNL     1      20.280   3.482 185.914  0.00  0.00    +0.000 OA
ATOM     37  C   UNL     1      21.151   3.420 186.776  0.00  0.00    +0.000 C 
BRANCH  37  38
ATOM     38  C   UNL     1      20.765   2.855 188.047  0.00  0.00    +0.000 C 
BRANCH  38  40
ATOM     39  O   UNL     1      19.417   3.108 189.987  0.00  0.00    +0.000 OA
ATOM     40  C   UNL     1      20.382   2.256 189.311  0.00  0.00    +0.000 C 
ATOM     41  C   UNL     1      18.910   1.853 189.539  0.00  0.00    +0.000 C 
ATOM     42  C   UNL     1      21.479   1.587 190.214  0.00  0.00    +0.000 C 
ATOM     43  C   UNL     1      18.636   0.965 190.623  0.00  0.00    +0.000 C 
ATOM     44  C   UNL     1      20.776   0.823 191.247  0.00  0.00    +0.000 C 
ATOM     45  C   UNL     1      19.480   0.391 191.590  0.00  0.00    +0.000 C 
ATOM     46  C   UNL     1      17.833   1.984 188.458  0.00  0.00    +0.000 C 
ATOM     47  C   UNL     1      22.275   0.650 189.272  0.00  0.00    +0.000 C 
ATOM     48  C   UNL     1      22.342   2.745 190.763  0.00  0.00    +0.000 C 
BRANCH  45  49
ATOM     49  O   UNL     1      19.260  -0.844 192.120  0.00  0.00    +0.000 OA
ATOM     50  H   UNL     1      20.067  -1.235 192.499  0.00  0.00    +0.000 HD
ENDBRANCH  45  49
ENDBRANCH  38  40
ENDBRANCH  37  38
ENDBRANCH  34  37
ENDBRANCH  33  34
ENDBRANCH  31  33
ENDBRANCH  29  32
ENDBRANCH  28  29
ENDBRANCH   1  28
TORSDOF 19
ENDMDL
