MODEL 1
REMARK VINA RESULT:      -7.8      0.000      0.000
REMARK  Name = 5281224_Astaxanthin.pdbqt.pdb
REMARK  16 active torsions:
REMARK  status: ('A' for Active; 'I' for Inactive)
REMARK    1  A    between atoms: C_1  and  C_5
REMARK    2  A    between atoms: C_2  and  C_27
REMARK    3  A    between atoms: C_3  and  C_5
REMARK    4  A    between atoms: C_3  and  C_7
REMARK    5  A    between atoms: C_6  and  C_10
REMARK    6  A    between atoms: C_8  and  C_10
REMARK    7  A    between atoms: C_8  and  C_12
REMARK    8  A    between atoms: C_11  and  C_16
REMARK    9  A    between atoms: C_17  and  O_23
REMARK   10  A    between atoms: C_25  and  C_27
REMARK   11  A    between atoms: C_25  and  C_29
REMARK   12  A    between atoms: C_28  and  C_32
REMARK   13  A    between atoms: C_30  and  C_32
REMARK   14  A    between atoms: C_30  and  C_34
REMARK   15  A    between atoms: C_33  and  C_38
REMARK   16  A    between atoms: C_39  and  O_45
REMARK                            x       y       z     vdW  Elec       q    Type
REMARK                         _______ _______ _______ _____ _____    ______ ____
ROOT
ATOM      1  C   UNL     1      22.593  -1.260 196.558  0.00  0.00    +0.000 C 
ATOM      2  C   UNL     1      23.626  -1.848 196.723  0.00  0.00    +0.000 C 
ENDROOT
BRANCH   2   3
ATOM      3  C   UNL     1      24.950  -2.594 196.927  0.00  0.00    +0.000 C 
BRANCH   3   4
ATOM      4  C   UNL     1      26.072  -3.220 197.097  0.00  0.00    +0.000 C 
ATOM      5  C   UNL     1      26.151  -4.366 198.060  0.00  0.00    +0.000 C 
BRANCH   4   7
ATOM      6  C   UNL     1      28.231  -2.395 195.871  0.00  0.00    +0.000 C 
ATOM      7  C   UNL     1      27.239  -2.771 196.434  0.00  0.00    +0.000 C 
BRANCH   6   8
ATOM      8  C   UNL     1      29.497  -1.917 195.150  0.00  0.00    +0.000 C 
BRANCH   8   9
ATOM      9  C   UNL     1      30.571  -1.510 194.548  0.00  0.00    +0.000 C 
ATOM     10  C   UNL     1      31.913  -2.000 194.999  0.00  0.00    +0.000 C 
BRANCH   9  12
ATOM     11  C   UNL     1      30.393  -0.059 192.374  0.00  0.00    +0.000 C 
ATOM     12  C   UNL     1      30.463  -0.725 193.373  0.00  0.00    +0.000 C 
BRANCH  11  16
ATOM     13  O   UNL     1      27.878   1.738 188.570  0.00  0.00    +0.000 OA
ATOM     14  C   UNL     1      31.619   1.480 190.724  0.00  0.00    +0.000 C 
ATOM     15  C   UNL     1      31.254   2.193 189.513  0.00  0.00    +0.000 C 
ATOM     16  C   UNL     1      30.327   0.746 191.170  0.00  0.00    +0.000 C 
ATOM     17  C   UNL     1      30.128   2.370 188.716  0.00  0.00    +0.000 C 
ATOM     18  C   UNL     1      32.038   2.479 191.827  0.00  0.00    +0.000 C 
ATOM     19  C   UNL     1      32.721   0.441 190.421  0.00  0.00    +0.000 C 
ATOM     20  C   UNL     1      29.151   0.837 190.481  0.00  0.00    +0.000 C 
ATOM     21  C   UNL     1      28.927   1.649 189.194  0.00  0.00    +0.000 C 
ATOM     22  C   UNL     1      27.925   0.084 191.016  0.00  0.00    +0.000 C 
BRANCH  17  23
ATOM     23  O   UNL     1      30.124   3.147 187.589  0.00  0.00    +0.000 OA
ATOM     24  H   UNL     1      30.529   4.020 187.768  0.00  0.00    +0.000 HD
ENDBRANCH  17  23
ENDBRANCH  11  16
ENDBRANCH   9  12
ENDBRANCH   8   9
ENDBRANCH   6   8
ENDBRANCH   4   7
ENDBRANCH   3   4
ENDBRANCH   2   3
BRANCH   1  25
ATOM     25  C   UNL     1      21.278  -0.502 196.341  0.00  0.00    +0.000 C 
BRANCH  25  26
ATOM     26  C   UNL     1      20.163   0.134 196.155  0.00  0.00    +0.000 C 
ATOM     27  C   UNL     1      19.242   0.378 197.312  0.00  0.00    +0.000 C 
BRANCH  26  29
ATOM     28  C   UNL     1      19.450   0.844 193.741  0.00  0.00    +0.000 C 
ATOM     29  C   UNL     1      19.778   0.519 194.850  0.00  0.00    +0.000 C 
BRANCH  28  30
ATOM     30  C   UNL     1      19.032   1.255 192.323  0.00  0.00    +0.000 C 
BRANCH  30  31
ATOM     31  C   UNL     1      18.678   1.611 191.129  0.00  0.00    +0.000 C 
ATOM     32  C   UNL     1      17.236   1.545 190.726  0.00  0.00    +0.000 C 
BRANCH  31  34
ATOM     33  C   UNL     1      20.419   2.732 189.524  0.00  0.00    +0.000 C 
ATOM     34  C   UNL     1      19.627   2.208 190.262  0.00  0.00    +0.000 C 
BRANCH  33  38
ATOM     35  O   UNL     1      24.999   3.436 187.928  0.00  0.00    +0.000 OA
ATOM     36  C   UNL     1      20.791   4.371 187.585  0.00  0.00    +0.000 C 
ATOM     37  C   UNL     1      21.946   4.849 186.843  0.00  0.00    +0.000 C 
ATOM     38  C   UNL     1      21.360   3.376 188.628  0.00  0.00    +0.000 C 
ATOM     39  C   UNL     1      23.324   4.651 186.835  0.00  0.00    +0.000 C 
ATOM     40  C   UNL     1      19.825   3.618 186.641  0.00  0.00    +0.000 C 
ATOM     41  C   UNL     1      20.104   5.546 188.315  0.00  0.00    +0.000 C 
ATOM     42  C   UNL     1      22.691   3.087 188.726  0.00  0.00    +0.000 C 
ATOM     43  C   UNL     1      23.803   3.688 187.850  0.00  0.00    +0.000 C 
ATOM     44  C   UNL     1      23.149   2.075 189.784  0.00  0.00    +0.000 C 
BRANCH  39  45
ATOM     45  O   UNL     1      24.164   5.287 185.962  0.00  0.00    +0.000 OA
ATOM     46  H   UNL     1      24.770   5.889 186.441  0.00  0.00    +0.000 HD
ENDBRANCH  39  45
ENDBRANCH  33  38
ENDBRANCH  31  34
ENDBRANCH  30  31
ENDBRANCH  28  30
ENDBRANCH  26  29
ENDBRANCH  25  26
ENDBRANCH   1  25
TORSDOF 16
ENDMDL
MODEL 2
REMARK VINA RESULT:      -7.1      8.204     11.280
REMARK  Name = 5281224_Astaxanthin.pdbqt.pdb
REMARK  16 active torsions:
REMARK  status: ('A' for Active; 'I' for Inactive)
REMARK    1  A    between atoms: C_1  and  C_5
REMARK    2  A    between atoms: C_2  and  C_27
REMARK    3  A    between atoms: C_3  and  C_5
REMARK    4  A    between atoms: C_3  and  C_7
REMARK    5  A    between atoms: C_6  and  C_10
REMARK    6  A    between atoms: C_8  and  C_10
REMARK    7  A    between atoms: C_8  and  C_12
REMARK    8  A    between atoms: C_11  and  C_16
REMARK    9  A    between atoms: C_17  and  O_23
REMARK   10  A    between atoms: C_25  and  C_27
REMARK   11  A    between atoms: C_25  and  C_29
REMARK   12  A    between atoms: C_28  and  C_32
REMARK   13  A    between atoms: C_30  and  C_32
REMARK   14  A    between atoms: C_30  and  C_34
REMARK   15  A    between atoms: C_33  and  C_38
REMARK   16  A    between atoms: C_39  and  O_45
REMARK                            x       y       z     vdW  Elec       q    Type
REMARK                         _______ _______ _______ _____ _____    ______ ____
ROOT
ATOM      1  C   UNL     1      30.767   4.241 191.695  0.00  0.00    +0.000 C 
ATOM      2  C   UNL     1      31.460   4.946 192.376  0.00  0.00    +0.000 C 
ENDROOT
BRANCH   2   3
ATOM      3  C   UNL     1      32.341   5.846 193.252  0.00  0.00    +0.000 C 
BRANCH   3   4
ATOM      4  C   UNL     1      33.090   6.602 193.991  0.00  0.00    +0.000 C 
ATOM      5  C   UNL     1      33.891   6.001 195.106  0.00  0.00    +0.000 C 
BRANCH   4   7
ATOM      6  C   UNL     1      33.085   9.193 193.629  0.00  0.00    +0.000 C 
ATOM      7  C   UNL     1      33.089   8.004 193.796  0.00  0.00    +0.000 C 
BRANCH   6   8
ATOM      8  C   UNL     1      33.077  10.711 193.415  0.00  0.00    +0.000 C 
BRANCH   8   9
ATOM      9  C   UNL     1      33.062  11.996 193.238  0.00  0.00    +0.000 C 
ATOM     10  C   UNL     1      33.874  12.608 192.137  0.00  0.00    +0.000 C 
BRANCH   9  12
ATOM     11  C   UNL     1      31.405  13.495 194.605  0.00  0.00    +0.000 C 
ATOM     12  C   UNL     1      32.165  12.798 193.986  0.00  0.00    +0.000 C 
BRANCH  11  16
ATOM     13  O   UNL     1      26.869  14.622 196.082  0.00  0.00    +0.000 OA
ATOM     14  C   UNL     1      31.091  15.558 196.100  0.00  0.00    +0.000 C 
ATOM     15  C   UNL     1      29.958  16.214 196.730  0.00  0.00    +0.000 C 
ATOM     16  C   UNL     1      30.490  14.348 195.339  0.00  0.00    +0.000 C 
ATOM     17  C   UNL     1      28.580  16.043 196.814  0.00  0.00    +0.000 C 
ATOM     18  C   UNL     1      32.075  15.041 197.176  0.00  0.00    +0.000 C 
ATOM     19  C   UNL     1      31.769  16.513 195.093  0.00  0.00    +0.000 C 
ATOM     20  C   UNL     1      29.155  14.062 195.342  0.00  0.00    +0.000 C 
ATOM     21  C   UNL     1      28.068  14.870 196.071  0.00  0.00    +0.000 C 
ATOM     22  C   UNL     1      28.663  12.831 194.569  0.00  0.00    +0.000 C 
BRANCH  17  23
ATOM     23  O   UNL     1      27.765  16.881 197.527  0.00  0.00    +0.000 OA
ATOM     24  H   UNL     1      27.963  17.817 197.320  0.00  0.00    +0.000 HD
ENDBRANCH  17  23
ENDBRANCH  11  16
ENDBRANCH   9  12
ENDBRANCH   8   9
ENDBRANCH   6   8
ENDBRANCH   4   7
ENDBRANCH   3   4
ENDBRANCH   2   3
BRANCH   1  25
ATOM     25  C   UNL     1      29.875   3.340 190.834  0.00  0.00    +0.000 C 
BRANCH  25  26
ATOM     26  C   UNL     1      29.122   2.574 190.108  0.00  0.00    +0.000 C 
ATOM     27  C   UNL     1      29.597   1.202 189.730  0.00  0.00    +0.000 C 
BRANCH  26  29
ATOM     28  C   UNL     1      26.853   3.478 189.174  0.00  0.00    +0.000 C 
ATOM     29  C   UNL     1      27.895   3.061 189.602  0.00  0.00    +0.000 C 
BRANCH  28  30
ATOM     30  C   UNL     1      25.521   4.011 188.630  0.00  0.00    +0.000 C 
BRANCH  30  31
ATOM     31  C   UNL     1      24.400   4.469 188.170  0.00  0.00    +0.000 C 
ATOM     32  C   UNL     1      24.402   5.591 187.176  0.00  0.00    +0.000 C 
BRANCH  31  34
ATOM     33  C   UNL     1      22.160   3.252 188.773  0.00  0.00    +0.000 C 
ATOM     34  C   UNL     1      23.187   3.807 188.485  0.00  0.00    +0.000 C 
BRANCH  33  38
ATOM     35  O   UNL     1      19.658   0.172 191.650  0.00  0.00    +0.000 OA
ATOM     36  C   UNL     1      19.663   2.901 188.295  0.00  0.00    +0.000 C 
ATOM     37  C   UNL     1      18.600   2.104 188.885  0.00  0.00    +0.000 C 
ATOM     38  C   UNL     1      20.924   2.586 189.139  0.00  0.00    +0.000 C 
ATOM     39  C   UNL     1      18.445   1.202 189.934  0.00  0.00    +0.000 C 
ATOM     40  C   UNL     1      19.333   4.407 188.422  0.00  0.00    +0.000 C 
ATOM     41  C   UNL     1      19.901   2.471 186.831  0.00  0.00    +0.000 C 
ATOM     42  C   UNL     1      20.911   1.724 190.198  0.00  0.00    +0.000 C 
ATOM     43  C   UNL     1      19.683   0.947 190.702  0.00  0.00    +0.000 C 
ATOM     44  C   UNL     1      22.212   1.493 190.977  0.00  0.00    +0.000 C 
BRANCH  39  45
ATOM     45  O   UNL     1      17.251   0.605 190.234  0.00  0.00    +0.000 OA
ATOM     46  H   UNL     1      16.956   0.030 189.498  0.00  0.00    +0.000 HD
ENDBRANCH  39  45
ENDBRANCH  33  38
ENDBRANCH  31  34
ENDBRANCH  30  31
ENDBRANCH  28  30
ENDBRANCH  26  29
ENDBRANCH  25  26
ENDBRANCH   1  25
TORSDOF 16
ENDMDL
MODEL 3
REMARK VINA RESULT:      -6.8     22.892     25.284
REMARK  Name = 5281224_Astaxanthin.pdbqt.pdb
REMARK  16 active torsions:
REMARK  status: ('A' for Active; 'I' for Inactive)
REMARK    1  A    between atoms: C_1  and  C_5
REMARK    2  A    between atoms: C_2  and  C_27
REMARK    3  A    between atoms: C_3  and  C_5
REMARK    4  A    between atoms: C_3  and  C_7
REMARK    5  A    between atoms: C_6  and  C_10
REMARK    6  A    between atoms: C_8  and  C_10
REMARK    7  A    between atoms: C_8  and  C_12
REMARK    8  A    between atoms: C_11  and  C_16
REMARK    9  A    between atoms: C_17  and  O_23
REMARK   10  A    between atoms: C_25  and  C_27
REMARK   11  A    between atoms: C_25  and  C_29
REMARK   12  A    between atoms: C_28  and  C_32
REMARK   13  A    between atoms: C_30  and  C_32
REMARK   14  A    between atoms: C_30  and  C_34
REMARK   15  A    between atoms: C_33  and  C_38
REMARK   16  A    between atoms: C_39  and  O_45
REMARK                            x       y       z     vdW  Elec       q    Type
REMARK                         _______ _______ _______ _____ _____    ______ ____
ROOT
ATOM      1  C   UNL     1      17.709   9.591 169.181  0.00  0.00    +0.000 C 
ATOM      2  C   UNL     1      18.404   8.941 168.451  0.00  0.00    +0.000 C 
ENDROOT
BRANCH   2   3
ATOM      3  C   UNL     1      19.295   8.104 167.523  0.00  0.00    +0.000 C 
BRANCH   3   4
ATOM      4  C   UNL     1      20.051   7.395 166.745  0.00  0.00    +0.000 C 
ATOM      5  C   UNL     1      19.612   6.026 166.321  0.00  0.00    +0.000 C 
BRANCH   4   7
ATOM      6  C   UNL     1      22.401   8.296 166.033  0.00  0.00    +0.000 C 
ATOM      7  C   UNL     1      21.323   7.881 166.361  0.00  0.00    +0.000 C 
BRANCH   6   8
ATOM      8  C   UNL     1      23.776   8.829 165.612  0.00  0.00    +0.000 C 
BRANCH   8   9
ATOM      9  C   UNL     1      24.936   9.287 165.257  0.00  0.00    +0.000 C 
ATOM     10  C   UNL     1      25.473   8.985 163.891  0.00  0.00    +0.000 C 
BRANCH   9  12
ATOM     11  C   UNL     1      26.223  10.955 166.815  0.00  0.00    +0.000 C 
ATOM     12  C   UNL     1      25.622  10.194 166.102  0.00  0.00    +0.000 C 
BRANCH  11  16
ATOM     13  O   UNL     1      29.863  14.162 167.508  0.00  0.00    +0.000 OA
ATOM     14  C   UNL     1      26.488  12.008 169.141  0.00  0.00    +0.000 C 
ATOM     15  C   UNL     1      27.401  12.964 169.743  0.00  0.00    +0.000 C 
ATOM     16  C   UNL     1      26.962  11.861 167.672  0.00  0.00    +0.000 C 
ATOM     17  C   UNL     1      28.505  13.720 169.363  0.00  0.00    +0.000 C 
ATOM     18  C   UNL     1      25.045  12.565 169.153  0.00  0.00    +0.000 C 
ATOM     19  C   UNL     1      26.597  10.642 169.855  0.00  0.00    +0.000 C 
ATOM     20  C   UNL     1      28.029  12.548 167.168  0.00  0.00    +0.000 C 
ATOM     21  C   UNL     1      28.906  13.540 167.950  0.00  0.00    +0.000 C 
ATOM     22  C   UNL     1      28.407  12.343 165.694  0.00  0.00    +0.000 C 
BRANCH  17  23
ATOM     23  O   UNL     1      29.163  14.564 170.217  0.00  0.00    +0.000 OA
ATOM     24  H   UNL     1      28.532  15.161 170.669  0.00  0.00    +0.000 HD
ENDBRANCH  17  23
ENDBRANCH  11  16
ENDBRANCH   9  12
ENDBRANCH   8   9
ENDBRANCH   6   8
ENDBRANCH   4   7
ENDBRANCH   3   4
ENDBRANCH   2   3
BRANCH   1  25
ATOM     25  C   UNL     1      16.823  10.416 170.122  0.00  0.00    +0.000 C 
BRANCH  25  26
ATOM     26  C   UNL     1      16.076  11.117 170.916  0.00  0.00    +0.000 C 
ATOM     27  C   UNL     1      14.584  11.069 170.773  0.00  0.00    +0.000 C 
BRANCH  26  29
ATOM     28  C   UNL     1      17.170  12.735 172.656  0.00  0.00    +0.000 C 
ATOM     29  C   UNL     1      16.668  11.993 171.856  0.00  0.00    +0.000 C 
BRANCH  28  30
ATOM     30  C   UNL     1      17.808  13.681 173.681  0.00  0.00    +0.000 C 
BRANCH  30  31
ATOM     31  C   UNL     1      18.339  14.481 174.551  0.00  0.00    +0.000 C 
ATOM     32  C   UNL     1      19.803  14.795 174.482  0.00  0.00    +0.000 C 
BRANCH  31  34
ATOM     33  C   UNL     1      16.799  15.749 176.249  0.00  0.00    +0.000 C 
ATOM     34  C   UNL     1      17.510  15.177 175.465  0.00  0.00    +0.000 C 
BRANCH  33  38
ATOM     35  O   UNL     1      12.571  16.046 178.710  0.00  0.00    +0.000 OA
ATOM     36  C   UNL     1      16.470  17.715 177.866  0.00  0.00    +0.000 C 
ATOM     37  C   UNL     1      15.406  18.157 178.752  0.00  0.00    +0.000 C 
ATOM     38  C   UNL     1      15.934  16.422 177.199  0.00  0.00    +0.000 C 
ATOM     39  C   UNL     1      14.130  17.743 179.122  0.00  0.00    +0.000 C 
ATOM     40  C   UNL     1      17.738  17.374 178.684  0.00  0.00    +0.000 C 
ATOM     41  C   UNL     1      16.737  18.782 176.781  0.00  0.00    +0.000 C 
ATOM     42  C   UNL     1      14.702  15.904 177.474  0.00  0.00    +0.000 C 
ATOM     43  C   UNL     1      13.678  16.502 178.454  0.00  0.00    +0.000 C 
ATOM     44  C   UNL     1      14.272  14.609 176.771  0.00  0.00    +0.000 C 
BRANCH  39  45
ATOM     45  O   UNL     1      13.359  18.419 180.027  0.00  0.00    +0.000 OA
ATOM     46  H   UNL     1      13.716  19.317 180.184  0.00  0.00    +0.000 HD
ENDBRANCH  39  45
ENDBRANCH  33  38
ENDBRANCH  31  34
ENDBRANCH  30  31
ENDBRANCH  28  30
ENDBRANCH  26  29
ENDBRANCH  25  26
ENDBRANCH   1  25
TORSDOF 16
ENDMDL
MODEL 4
REMARK VINA RESULT:      -6.8      1.765      2.331
REMARK  Name = 5281224_Astaxanthin.pdbqt.pdb
REMARK  16 active torsions:
REMARK  status: ('A' for Active; 'I' for Inactive)
REMARK    1  A    between atoms: C_1  and  C_5
REMARK    2  A    between atoms: C_2  and  C_27
REMARK    3  A    between atoms: C_3  and  C_5
REMARK    4  A    between atoms: C_3  and  C_7
REMARK    5  A    between atoms: C_6  and  C_10
REMARK    6  A    between atoms: C_8  and  C_10
REMARK    7  A    between atoms: C_8  and  C_12
REMARK    8  A    between atoms: C_11  and  C_16
REMARK    9  A    between atoms: C_17  and  O_23
REMARK   10  A    between atoms: C_25  and  C_27
REMARK   11  A    between atoms: C_25  and  C_29
REMARK   12  A    between atoms: C_28  and  C_32
REMARK   13  A    between atoms: C_30  and  C_32
REMARK   14  A    between atoms: C_30  and  C_34
REMARK   15  A    between atoms: C_33  and  C_38
REMARK   16  A    between atoms: C_39  and  O_45
REMARK                            x       y       z     vdW  Elec       q    Type
REMARK                         _______ _______ _______ _____ _____    ______ ____
ROOT
ATOM      1  C   UNL     1      22.896  -1.191 197.330  0.00  0.00    +0.000 C 
ATOM      2  C   UNL     1      23.856  -1.893 197.495  0.00  0.00    +0.000 C 
ENDROOT
BRANCH   2   3
ATOM      3  C   UNL     1      25.087  -2.784 197.700  0.00  0.00    +0.000 C 
BRANCH   3   4
ATOM      4  C   UNL     1      26.131  -3.532 197.871  0.00  0.00    +0.000 C 
ATOM      5  C   UNL     1      25.971  -4.937 198.369  0.00  0.00    +0.000 C 
BRANCH   4   7
ATOM      6  C   UNL     1      28.525  -2.547 197.493  0.00  0.00    +0.000 C 
ATOM      7  C   UNL     1      27.426  -2.999 197.664  0.00  0.00    +0.000 C 
BRANCH   6   8
ATOM      8  C   UNL     1      29.930  -1.973 197.276  0.00  0.00    +0.000 C 
BRANCH   8   9
ATOM      9  C   UNL     1      31.116  -1.480 197.092  0.00  0.00    +0.000 C 
ATOM     10  C   UNL     1      32.065  -1.367 198.246  0.00  0.00    +0.000 C 
BRANCH   9  12
ATOM     11  C   UNL     1      31.961  -0.945 194.671  0.00  0.00    +0.000 C 
ATOM     12  C   UNL     1      31.562  -1.192 195.779  0.00  0.00    +0.000 C 
BRANCH  11  16
ATOM     13  O   UNL     1      31.174  -0.058 189.916  0.00  0.00    +0.000 OA
ATOM     14  C   UNL     1      33.991  -0.483 193.169  0.00  0.00    +0.000 C 
ATOM     15  C   UNL     1      34.187  -0.187 191.760  0.00  0.00    +0.000 C 
ATOM     16  C   UNL     1      32.458  -0.642 193.343  0.00  0.00    +0.000 C 
ATOM     17  C   UNL     1      33.406  -0.025 190.620  0.00  0.00    +0.000 C 
ATOM     18  C   UNL     1      34.477   0.702 194.036  0.00  0.00    +0.000 C 
ATOM     19  C   UNL     1      34.691  -1.809 193.539  0.00  0.00    +0.000 C 
ATOM     20  C   UNL     1      31.578  -0.504 192.308  0.00  0.00    +0.000 C 
ATOM     21  C   UNL     1      31.953  -0.185 190.851  0.00  0.00    +0.000 C 
ATOM     22  C   UNL     1      30.078  -0.666 192.589  0.00  0.00    +0.000 C 
BRANCH  17  23
ATOM     23  O   UNL     1      33.932   0.264 189.389  0.00  0.00    +0.000 OA
ATOM     24  H   UNL     1      34.569   1.005 189.450  0.00  0.00    +0.000 HD
ENDBRANCH  17  23
ENDBRANCH  11  16
ENDBRANCH   9  12
ENDBRANCH   8   9
ENDBRANCH   6   8
ENDBRANCH   4   7
ENDBRANCH   3   4
ENDBRANCH   2   3
BRANCH   1  25
ATOM     25  C   UNL     1      21.676  -0.289 197.114  0.00  0.00    +0.000 C 
BRANCH  25  26
ATOM     26  C   UNL     1      20.641   0.470 196.930  0.00  0.00    +0.000 C 
ATOM     27  C   UNL     1      19.822   0.914 198.104  0.00  0.00    +0.000 C 
BRANCH  26  29
ATOM     28  C   UNL     1      19.891   1.089 194.502  0.00  0.00    +0.000 C 
ATOM     29  C   UNL     1      20.236   0.806 195.617  0.00  0.00    +0.000 C 
BRANCH  28  30
ATOM     30  C   UNL     1      19.451   1.447 193.076  0.00  0.00    +0.000 C 
BRANCH  30  31
ATOM     31  C   UNL     1      19.078   1.758 191.875  0.00  0.00    +0.000 C 
ATOM     32  C   UNL     1      17.651   1.561 191.460  0.00  0.00    +0.000 C 
BRANCH  31  34
ATOM     33  C   UNL     1      20.729   3.010 190.271  0.00  0.00    +0.000 C 
ATOM     34  C   UNL     1      19.980   2.427 191.010  0.00  0.00    +0.000 C 
BRANCH  33  38
ATOM     35  O   UNL     1      25.238   4.368 188.913  0.00  0.00    +0.000 OA
ATOM     36  C   UNL     1      20.976   4.494 188.192  0.00  0.00    +0.000 C 
ATOM     37  C   UNL     1      22.090   5.097 187.480  0.00  0.00    +0.000 C 
ATOM     38  C   UNL     1      21.618   3.723 189.374  0.00  0.00    +0.000 C 
ATOM     39  C   UNL     1      23.477   5.151 187.585  0.00  0.00    +0.000 C 
ATOM     40  C   UNL     1      20.237   3.492 187.275  0.00  0.00    +0.000 C 
ATOM     41  C   UNL     1      20.039   5.592 188.742  0.00  0.00    +0.000 C 
ATOM     42  C   UNL     1      22.965   3.689 189.591  0.00  0.00    +0.000 C 
ATOM     43  C   UNL     1      24.027   4.392 188.729  0.00  0.00    +0.000 C 
ATOM     44  C   UNL     1      23.500   2.882 190.781  0.00  0.00    +0.000 C 
BRANCH  39  45
ATOM     45  O   UNL     1      24.266   5.840 186.705  0.00  0.00    +0.000 OA
ATOM     46  H   UNL     1      24.717   6.584 187.154  0.00  0.00    +0.000 HD
ENDBRANCH  39  45
ENDBRANCH  33  38
ENDBRANCH  31  34
ENDBRANCH  30  31
ENDBRANCH  28  30
ENDBRANCH  26  29
ENDBRANCH  25  26
ENDBRANCH   1  25
TORSDOF 16
ENDMDL
MODEL 5
REMARK VINA RESULT:      -6.6     31.610     35.367
REMARK  Name = 5281224_Astaxanthin.pdbqt.pdb
REMARK  16 active torsions:
REMARK  status: ('A' for Active; 'I' for Inactive)
REMARK    1  A    between atoms: C_1  and  C_5
REMARK    2  A    between atoms: C_2  and  C_27
REMARK    3  A    between atoms: C_3  and  C_5
REMARK    4  A    between atoms: C_3  and  C_7
REMARK    5  A    between atoms: C_6  and  C_10
REMARK    6  A    between atoms: C_8  and  C_10
REMARK    7  A    between atoms: C_8  and  C_12
REMARK    8  A    between atoms: C_11  and  C_16
REMARK    9  A    between atoms: C_17  and  O_23
REMARK   10  A    between atoms: C_25  and  C_27
REMARK   11  A    between atoms: C_25  and  C_29
REMARK   12  A    between atoms: C_28  and  C_32
REMARK   13  A    between atoms: C_30  and  C_32
REMARK   14  A    between atoms: C_30  and  C_34
REMARK   15  A    between atoms: C_33  and  C_38
REMARK   16  A    between atoms: C_39  and  O_45
REMARK                            x       y       z     vdW  Elec       q    Type
REMARK                         _______ _______ _______ _____ _____    ______ ____
ROOT
ATOM      1  C   UNL     1      40.323 -21.294 172.124  0.00  0.00    +0.000 C 
ATOM      2  C   UNL     1      40.332 -20.898 170.991  0.00  0.00    +0.000 C 
ENDROOT
BRANCH   2   3
ATOM      3  C   UNL     1      40.348 -20.385 169.545  0.00  0.00    +0.000 C 
BRANCH   3   4
ATOM      4  C   UNL     1      40.364 -19.957 168.322  0.00  0.00    +0.000 C 
ATOM      5  C   UNL     1      41.525 -19.147 167.829  0.00  0.00    +0.000 C 
BRANCH   4   7
ATOM      6  C   UNL     1      38.307 -20.375 166.761  0.00  0.00    +0.000 C 
ATOM      7  C   UNL     1      39.251 -20.185 167.478  0.00  0.00    +0.000 C 
BRANCH   6   8
ATOM      8  C   UNL     1      37.102 -20.614 165.844  0.00  0.00    +0.000 C 
BRANCH   8   9
ATOM      9  C   UNL     1      36.081 -20.809 165.068  0.00  0.00    +0.000 C 
ATOM     10  C   UNL     1      36.007 -22.046 164.226  0.00  0.00    +0.000 C 
BRANCH   9  12
ATOM     11  C   UNL     1      34.044 -19.166 165.190  0.00  0.00    +0.000 C 
ATOM     12  C   UNL     1      34.972 -19.930 165.132  0.00  0.00    +0.000 C 
BRANCH  11  16
ATOM     13  O   UNL     1      31.860 -15.010 163.782  0.00  0.00    +0.000 OA
ATOM     14  C   UNL     1      31.770 -18.577 166.225  0.00  0.00    +0.000 C 
ATOM     15  C   UNL     1      30.826 -17.482 166.088  0.00  0.00    +0.000 C 
ATOM     16  C   UNL     1      32.937 -18.232 165.264  0.00  0.00    +0.000 C 
ATOM     17  C   UNL     1      30.715 -16.296 165.368  0.00  0.00    +0.000 C 
ATOM     18  C   UNL     1      31.118 -19.904 165.772  0.00  0.00    +0.000 C 
ATOM     19  C   UNL     1      32.301 -18.646 167.674  0.00  0.00    +0.000 C 
ATOM     20  C   UNL     1      32.953 -17.103 164.496  0.00  0.00    +0.000 C 
ATOM     21  C   UNL     1      31.857 -16.025 164.466  0.00  0.00    +0.000 C 
ATOM     22  C   UNL     1      34.149 -16.863 163.565  0.00  0.00    +0.000 C 
BRANCH  17  23
ATOM     23  O   UNL     1      29.642 -15.453 165.477  0.00  0.00    +0.000 OA
ATOM     24  H   UNL     1      29.913 -14.525 165.325  0.00  0.00    +0.000 HD
ENDBRANCH  17  23
ENDBRANCH  11  16
ENDBRANCH   9  12
ENDBRANCH   8   9
ENDBRANCH   6   8
ENDBRANCH   4   7
ENDBRANCH   3   4
ENDBRANCH   2   3
BRANCH   1  25
ATOM     25  C   UNL     1      40.315 -21.790 173.574  0.00  0.00    +0.000 C 
BRANCH  25  26
ATOM     26  C   UNL     1      40.303 -22.207 174.801  0.00  0.00    +0.000 C 
ATOM     27  C   UNL     1      41.305 -21.673 175.781  0.00  0.00    +0.000 C 
BRANCH  26  29
ATOM     28  C   UNL     1      38.642 -24.093 175.525  0.00  0.00    +0.000 C 
ATOM     29  C   UNL     1      39.405 -23.227 175.194  0.00  0.00    +0.000 C 
BRANCH  28  30
ATOM     30  C   UNL     1      37.664 -25.199 175.944  0.00  0.00    +0.000 C 
BRANCH  30  31
ATOM     31  C   UNL     1      36.834 -26.126 176.303  0.00  0.00    +0.000 C 
ATOM     32  C   UNL     1      36.663 -26.456 177.755  0.00  0.00    +0.000 C 
BRANCH  31  34
ATOM     33  C   UNL     1      35.255 -27.198 174.508  0.00  0.00    +0.000 C 
ATOM     34  C   UNL     1      35.977 -26.714 175.340  0.00  0.00    +0.000 C 
BRANCH  33  38
ATOM     35  O   UNL     1      31.073 -29.403 173.216  0.00  0.00    +0.000 OA
ATOM     36  C   UNL     1      34.879 -27.730 172.026  0.00  0.00    +0.000 C 
ATOM     37  C   UNL     1      33.819 -28.355 171.252  0.00  0.00    +0.000 C 
ATOM     38  C   UNL     1      34.385 -27.764 173.495  0.00  0.00    +0.000 C 
ATOM     39  C   UNL     1      32.572 -28.928 171.482  0.00  0.00    +0.000 C 
ATOM     40  C   UNL     1      35.063 -26.258 171.587  0.00  0.00    +0.000 C 
ATOM     41  C   UNL     1      36.183 -28.550 171.902  0.00  0.00    +0.000 C 
ATOM     42  C   UNL     1      33.180 -28.293 173.859  0.00  0.00    +0.000 C 
ATOM     43  C   UNL     1      32.156 -28.926 172.902  0.00  0.00    +0.000 C 
ATOM     44  C   UNL     1      32.779 -28.263 175.339  0.00  0.00    +0.000 C 
BRANCH  39  45
ATOM     45  O   UNL     1      31.793 -29.446 170.483  0.00  0.00    +0.000 OA
ATOM     46  H   UNL     1      31.120 -30.056 170.850  0.00  0.00    +0.000 HD
ENDBRANCH  39  45
ENDBRANCH  33  38
ENDBRANCH  31  34
ENDBRANCH  30  31
ENDBRANCH  28  30
ENDBRANCH  26  29
ENDBRANCH  25  26
ENDBRANCH   1  25
TORSDOF 16
ENDMDL
MODEL 6
REMARK VINA RESULT:      -6.3     22.812     25.463
REMARK  Name = 5281224_Astaxanthin.pdbqt.pdb
REMARK  16 active torsions:
REMARK  status: ('A' for Active; 'I' for Inactive)
REMARK    1  A    between atoms: C_1  and  C_5
REMARK    2  A    between atoms: C_2  and  C_27
REMARK    3  A    between atoms: C_3  and  C_5
REMARK    4  A    between atoms: C_3  and  C_7
REMARK    5  A    between atoms: C_6  and  C_10
REMARK    6  A    between atoms: C_8  and  C_10
REMARK    7  A    between atoms: C_8  and  C_12
REMARK    8  A    between atoms: C_11  and  C_16
REMARK    9  A    between atoms: C_17  and  O_23
REMARK   10  A    between atoms: C_25  and  C_27
REMARK   11  A    between atoms: C_25  and  C_29
REMARK   12  A    between atoms: C_28  and  C_32
REMARK   13  A    between atoms: C_30  and  C_32
REMARK   14  A    between atoms: C_30  and  C_34
REMARK   15  A    between atoms: C_33  and  C_38
REMARK   16  A    between atoms: C_39  and  O_45
REMARK                            x       y       z     vdW  Elec       q    Type
REMARK                         _______ _______ _______ _____ _____    ______ ____
ROOT
ATOM      1  C   UNL     1      17.626   9.109 168.768  0.00  0.00    +0.000 C 
ATOM      2  C   UNL     1      18.378   8.480 168.076  0.00  0.00    +0.000 C 
ENDROOT
BRANCH   2   3
ATOM      3  C   UNL     1      19.341   7.671 167.199  0.00  0.00    +0.000 C 
BRANCH   3   4
ATOM      4  C   UNL     1      20.159   6.987 166.462  0.00  0.00    +0.000 C 
ATOM      5  C   UNL     1      19.857   5.554 166.143  0.00  0.00    +0.000 C 
BRANCH   4   7
ATOM      6  C   UNL     1      22.406   8.057 165.656  0.00  0.00    +0.000 C 
ATOM      7  C   UNL     1      21.374   7.568 166.027  0.00  0.00    +0.000 C 
BRANCH   6   8
ATOM      8  C   UNL     1      23.723   8.680 165.180  0.00  0.00    +0.000 C 
BRANCH   8   9
ATOM      9  C   UNL     1      24.837   9.213 164.781  0.00  0.00    +0.000 C 
ATOM     10  C   UNL     1      25.302   9.006 163.372  0.00  0.00    +0.000 C 
BRANCH   9  12
ATOM     11  C   UNL     1      26.132  10.877 166.336  0.00  0.00    +0.000 C 
ATOM     12  C   UNL     1      25.529  10.112 165.630  0.00  0.00    +0.000 C 
BRANCH  11  16
ATOM     13  O   UNL     1      27.493  12.467 170.767  0.00  0.00    +0.000 OA
ATOM     14  C   UNL     1      27.717  12.892 166.470  0.00  0.00    +0.000 C 
ATOM     15  C   UNL     1      28.336  13.649 167.544  0.00  0.00    +0.000 C 
ATOM     16  C   UNL     1      26.874  11.798 167.175  0.00  0.00    +0.000 C 
ATOM     17  C   UNL     1      28.360  13.639 168.935  0.00  0.00    +0.000 C 
ATOM     18  C   UNL     1      28.802  12.212 165.601  0.00  0.00    +0.000 C 
ATOM     19  C   UNL     1      26.786  13.805 165.642  0.00  0.00    +0.000 C 
ATOM     20  C   UNL     1      26.812  11.674 168.533  0.00  0.00    +0.000 C 
ATOM     21  C   UNL     1      27.540  12.571 169.549  0.00  0.00    +0.000 C 
ATOM     22  C   UNL     1      25.960  10.546 169.132  0.00  0.00    +0.000 C 
BRANCH  17  23
ATOM     23  O   UNL     1      29.083  14.534 169.677  0.00  0.00    +0.000 OA
ATOM     24  H   UNL     1      28.799  15.451 169.486  0.00  0.00    +0.000 HD
ENDBRANCH  17  23
ENDBRANCH  11  16
ENDBRANCH   9  12
ENDBRANCH   8   9
ENDBRANCH   6   8
ENDBRANCH   4   7
ENDBRANCH   3   4
ENDBRANCH   2   3
BRANCH   1  25
ATOM     25  C   UNL     1      16.670   9.909 169.661  0.00  0.00    +0.000 C 
BRANCH  25  26
ATOM     26  C   UNL     1      15.861  10.588 170.412  0.00  0.00    +0.000 C 
ATOM     27  C   UNL     1      14.382  10.510 170.178  0.00  0.00    +0.000 C 
BRANCH  26  29
ATOM     28  C   UNL     1      16.811  12.215 172.226  0.00  0.00    +0.000 C 
ATOM     29  C   UNL     1      16.376  11.469 171.391  0.00  0.00    +0.000 C 
BRANCH  28  30
ATOM     30  C   UNL     1      17.365  13.168 173.293  0.00  0.00    +0.000 C 
BRANCH  30  31
ATOM     31  C   UNL     1      17.825  13.975 174.196  0.00  0.00    +0.000 C 
ATOM     32  C   UNL     1      19.263  14.396 174.161  0.00  0.00    +0.000 C 
BRANCH  31  34
ATOM     33  C   UNL     1      16.160  15.090 175.885  0.00  0.00    +0.000 C 
ATOM     34  C   UNL     1      16.933  14.580 175.117  0.00  0.00    +0.000 C 
BRANCH  33  38
ATOM     35  O   UNL     1      15.080  18.418 179.317  0.00  0.00    +0.000 OA
ATOM     36  C   UNL     1      13.771  15.139 176.820  0.00  0.00    +0.000 C 
ATOM     37  C   UNL     1      13.065  15.935 177.810  0.00  0.00    +0.000 C 
ATOM     38  C   UNL     1      15.215  15.702 176.798  0.00  0.00    +0.000 C 
ATOM     39  C   UNL     1      13.339  16.992 178.673  0.00  0.00    +0.000 C 
ATOM     40  C   UNL     1      13.131  15.333 175.425  0.00  0.00    +0.000 C 
ATOM     41  C   UNL     1      13.803  13.657 177.253  0.00  0.00    +0.000 C 
ATOM     42  C   UNL     1      15.616  16.740 177.590  0.00  0.00    +0.000 C 
ATOM     43  C   UNL     1      14.731  17.487 178.602  0.00  0.00    +0.000 C 
ATOM     44  C   UNL     1      17.065  17.233 177.481  0.00  0.00    +0.000 C 
BRANCH  39  45
ATOM     45  O   UNL     1      12.403  17.531 179.513  0.00  0.00    +0.000 OA
ATOM     46  H   UNL     1      11.654  17.904 179.004  0.00  0.00    +0.000 HD
ENDBRANCH  39  45
ENDBRANCH  33  38
ENDBRANCH  31  34
ENDBRANCH  30  31
ENDBRANCH  28  30
ENDBRANCH  26  29
ENDBRANCH  25  26
ENDBRANCH   1  25
TORSDOF 16
ENDMDL
MODEL 7
REMARK VINA RESULT:      -6.3     33.211     36.685
REMARK  Name = 5281224_Astaxanthin.pdbqt.pdb
REMARK  16 active torsions:
REMARK  status: ('A' for Active; 'I' for Inactive)
REMARK    1  A    between atoms: C_1  and  C_5
REMARK    2  A    between atoms: C_2  and  C_27
REMARK    3  A    between atoms: C_3  and  C_5
REMARK    4  A    between atoms: C_3  and  C_7
REMARK    5  A    between atoms: C_6  and  C_10
REMARK    6  A    between atoms: C_8  and  C_10
REMARK    7  A    between atoms: C_8  and  C_12
REMARK    8  A    between atoms: C_11  and  C_16
REMARK    9  A    between atoms: C_17  and  O_23
REMARK   10  A    between atoms: C_25  and  C_27
REMARK   11  A    between atoms: C_25  and  C_29
REMARK   12  A    between atoms: C_28  and  C_32
REMARK   13  A    between atoms: C_30  and  C_32
REMARK   14  A    between atoms: C_30  and  C_34
REMARK   15  A    between atoms: C_33  and  C_38
REMARK   16  A    between atoms: C_39  and  O_45
REMARK                            x       y       z     vdW  Elec       q    Type
REMARK                         _______ _______ _______ _____ _____    ______ ____
ROOT
ATOM      1  C   UNL     1      34.114 -27.583 174.650  0.00  0.00    +0.000 C 
ATOM      2  C   UNL     1      33.381 -28.070 173.834  0.00  0.00    +0.000 C 
ENDROOT
BRANCH   2   3
ATOM      3  C   UNL     1      32.450 -28.696 172.789  0.00  0.00    +0.000 C 
BRANCH   3   4
ATOM      4  C   UNL     1      31.658 -29.224 171.909  0.00  0.00    +0.000 C 
ATOM      5  C   UNL     1      31.647 -28.701 170.504  0.00  0.00    +0.000 C 
BRANCH   4   7
ATOM      6  C   UNL     1      29.976 -31.095 172.624  0.00  0.00    +0.000 C 
ATOM      7  C   UNL     1      30.748 -30.237 172.294  0.00  0.00    +0.000 C 
BRANCH   6   8
ATOM      8  C   UNL     1      28.989 -32.189 173.048  0.00  0.00    +0.000 C 
BRANCH   8   9
ATOM      9  C   UNL     1      28.154 -33.118 173.399  0.00  0.00    +0.000 C 
ATOM     10  C   UNL     1      28.636 -34.525 173.583  0.00  0.00    +0.000 C 
BRANCH   9  12
ATOM     11  C   UNL     1      25.693 -32.489 174.038  0.00  0.00    +0.000 C 
ATOM     12  C   UNL     1      26.827 -32.772 173.755  0.00  0.00    +0.000 C 
BRANCH  11  16
ATOM     13  O   UNL     1      22.262 -31.243 177.309  0.00  0.00    +0.000 OA
ATOM     14  C   UNL     1      23.291 -32.130 173.204  0.00  0.00    +0.000 C 
ATOM     15  C   UNL     1      22.027 -31.769 173.821  0.00  0.00    +0.000 C 
ATOM     16  C   UNL     1      24.320 -32.154 174.364  0.00  0.00    +0.000 C 
ATOM     17  C   UNL     1      21.546 -31.464 175.091  0.00  0.00    +0.000 C 
ATOM     18  C   UNL     1      23.712 -31.052 172.178  0.00  0.00    +0.000 C 
ATOM     19  C   UNL     1      23.195 -33.537 172.573  0.00  0.00    +0.000 C 
ATOM     20  C   UNL     1      23.982 -31.871 175.657  0.00  0.00    +0.000 C 
ATOM     21  C   UNL     1      22.575 -31.500 176.154  0.00  0.00    +0.000 C 
ATOM     22  C   UNL     1      25.080 -31.907 176.729  0.00  0.00    +0.000 C 
BRANCH  17  23
ATOM     23  O   UNL     1      20.237 -31.152 175.339  0.00  0.00    +0.000 OA
ATOM     24  H   UNL     1      20.168 -30.494 176.061  0.00  0.00    +0.000 HD
ENDBRANCH  17  23
ENDBRANCH  11  16
ENDBRANCH   9  12
ENDBRANCH   8   9
ENDBRANCH   6   8
ENDBRANCH   4   7
ENDBRANCH   3   4
ENDBRANCH   2   3
BRANCH   1  25
ATOM     25  C   UNL     1      35.060 -26.967 175.688  0.00  0.00    +0.000 C 
BRANCH  25  26
ATOM     26  C   UNL     1      35.859 -26.442 176.562  0.00  0.00    +0.000 C 
ATOM     27  C   UNL     1      35.379 -26.200 177.962  0.00  0.00    +0.000 C 
BRANCH  26  29
ATOM     28  C   UNL     1      38.250 -25.660 175.848  0.00  0.00    +0.000 C 
ATOM     29  C   UNL     1      37.152 -26.018 176.175  0.00  0.00    +0.000 C 
BRANCH  28  30
ATOM     30  C   UNL     1      39.655 -25.204 175.433  0.00  0.00    +0.000 C 
BRANCH  30  31
ATOM     31  C   UNL     1      40.845 -24.827 175.085  0.00  0.00    +0.000 C 
ATOM     32  C   UNL     1      42.022 -25.712 175.362  0.00  0.00    +0.000 C 
BRANCH  31  34
ATOM     33  C   UNL     1      41.165 -22.654 173.656  0.00  0.00    +0.000 C 
ATOM     34  C   UNL     1      41.011 -23.656 174.304  0.00  0.00    +0.000 C 
BRANCH  33  38
ATOM     35  O   UNL     1      43.174 -20.265 169.877  0.00  0.00    +0.000 OA
ATOM     36  C   UNL     1      40.635 -20.159 173.376  0.00  0.00    +0.000 C 
ATOM     37  C   UNL     1      41.012 -19.122 172.430  0.00  0.00    +0.000 C 
ATOM     38  C   UNL     1      41.362 -21.439 172.889  0.00  0.00    +0.000 C 
ATOM     39  C   UNL     1      41.799 -19.001 171.288  0.00  0.00    +0.000 C 
ATOM     40  C   UNL     1      39.107 -20.395 173.327  0.00  0.00    +0.000 C 
ATOM     41  C   UNL     1      41.130 -19.793 174.793  0.00  0.00    +0.000 C 
ATOM     42  C   UNL     1      42.160 -21.461 171.782  0.00  0.00    +0.000 C 
ATOM     43  C   UNL     1      42.461 -20.257 170.873  0.00  0.00    +0.000 C 
ATOM     44  C   UNL     1      42.821 -22.784 171.376  0.00  0.00    +0.000 C 
BRANCH  39  45
ATOM     45  O   UNL     1      41.945 -17.826 170.603  0.00  0.00    +0.000 OA
ATOM     46  H   UNL     1      41.873 -17.060 171.210  0.00  0.00    +0.000 HD
ENDBRANCH  39  45
ENDBRANCH  33  38
ENDBRANCH  31  34
ENDBRANCH  30  31
ENDBRANCH  28  30
ENDBRANCH  26  29
ENDBRANCH  25  26
ENDBRANCH   1  25
TORSDOF 16
ENDMDL
MODEL 8
REMARK VINA RESULT:      -6.3      7.965     12.810
REMARK  Name = 5281224_Astaxanthin.pdbqt.pdb
REMARK  16 active torsions:
REMARK  status: ('A' for Active; 'I' for Inactive)
REMARK    1  A    between atoms: C_1  and  C_5
REMARK    2  A    between atoms: C_2  and  C_27
REMARK    3  A    between atoms: C_3  and  C_5
REMARK    4  A    between atoms: C_3  and  C_7
REMARK    5  A    between atoms: C_6  and  C_10
REMARK    6  A    between atoms: C_8  and  C_10
REMARK    7  A    between atoms: C_8  and  C_12
REMARK    8  A    between atoms: C_11  and  C_16
REMARK    9  A    between atoms: C_17  and  O_23
REMARK   10  A    between atoms: C_25  and  C_27
REMARK   11  A    between atoms: C_25  and  C_29
REMARK   12  A    between atoms: C_28  and  C_32
REMARK   13  A    between atoms: C_30  and  C_32
REMARK   14  A    between atoms: C_30  and  C_34
REMARK   15  A    between atoms: C_33  and  C_38
REMARK   16  A    between atoms: C_39  and  O_45
REMARK                            x       y       z     vdW  Elec       q    Type
REMARK                         _______ _______ _______ _____ _____    ______ ____
ROOT
ATOM      1  C   UNL     1      26.669  -3.920 196.205  0.00  0.00    +0.000 C 
ATOM      2  C   UNL     1      26.675  -4.706 197.112  0.00  0.00    +0.000 C 
ENDROOT
BRANCH   2   3
ATOM      3  C   UNL     1      26.686  -5.716 198.266  0.00  0.00    +0.000 C 
BRANCH   3   4
ATOM      4  C   UNL     1      26.699  -6.574 199.237  0.00  0.00    +0.000 C 
ATOM      5  C   UNL     1      28.000  -6.971 199.867  0.00  0.00    +0.000 C 
BRANCH   4   7
ATOM      6  C   UNL     1      24.475  -7.723 199.995  0.00  0.00    +0.000 C 
ATOM      7  C   UNL     1      25.496  -7.195 199.649  0.00  0.00    +0.000 C 
BRANCH   6   8
ATOM      8  C   UNL     1      23.171  -8.401 200.434  0.00  0.00    +0.000 C 
BRANCH   8   9
ATOM      9  C   UNL     1      22.065  -8.974 200.797  0.00  0.00    +0.000 C 
ATOM     10  C   UNL     1      20.893  -8.996 199.864  0.00  0.00    +0.000 C 
BRANCH   9  12
ATOM     11  C   UNL     1      21.995 -10.341 203.030  0.00  0.00    +0.000 C 
ATOM     12  C   UNL     1      22.019  -9.706 202.009  0.00  0.00    +0.000 C 
BRANCH  11  16
ATOM     13  O   UNL     1      22.977 -14.470 205.482  0.00  0.00    +0.000 OA
ATOM     14  C   UNL     1      21.382 -10.451 205.521  0.00  0.00    +0.000 C 
ATOM     15  C   UNL     1      21.498 -11.449 206.570  0.00  0.00    +0.000 C 
ATOM     16  C   UNL     1      21.977 -11.119 204.254  0.00  0.00    +0.000 C 
ATOM     17  C   UNL     1      21.970 -12.750 206.711  0.00  0.00    +0.000 C 
ATOM     18  C   UNL     1      22.224  -9.203 205.877  0.00  0.00    +0.000 C 
ATOM     19  C   UNL     1      19.897 -10.108 205.272  0.00  0.00    +0.000 C 
ATOM     20  C   UNL     1      22.479 -12.389 204.255  0.00  0.00    +0.000 C 
ATOM     21  C   UNL     1      22.529 -13.331 205.469  0.00  0.00    +0.000 C 
ATOM     22  C   UNL     1      23.060 -12.952 202.951  0.00  0.00    +0.000 C 
BRANCH  17  23
ATOM     23  O   UNL     1      21.930 -13.436 207.895  0.00  0.00    +0.000 OA
ATOM     24  H   UNL     1      21.838 -14.397 207.736  0.00  0.00    +0.000 HD
ENDBRANCH  17  23
ENDBRANCH  11  16
ENDBRANCH   9  12
ENDBRANCH   8   9
ENDBRANCH   6   8
ENDBRANCH   4   7
ENDBRANCH   3   4
ENDBRANCH   2   3
BRANCH   1  25
ATOM     25  C   UNL     1      26.662  -2.924 195.040  0.00  0.00    +0.000 C 
BRANCH  25  26
ATOM     26  C   UNL     1      26.658  -2.078 194.058  0.00  0.00    +0.000 C 
ATOM     27  C   UNL     1      27.955  -1.637 193.447  0.00  0.00    +0.000 C 
BRANCH  26  29
ATOM     28  C   UNL     1      24.408  -1.017 193.252  0.00  0.00    +0.000 C 
ATOM     29  C   UNL     1      25.441  -1.505 193.622  0.00  0.00    +0.000 C 
BRANCH  28  30
ATOM     30  C   UNL     1      23.089  -0.390 192.781  0.00  0.00    +0.000 C 
BRANCH  30  31
ATOM     31  C   UNL     1      21.972   0.136 192.389  0.00  0.00    +0.000 C 
ATOM     32  C   UNL     1      20.829   0.267 193.351  0.00  0.00    +0.000 C 
BRANCH  31  34
ATOM     33  C   UNL     1      21.824   1.214 190.006  0.00  0.00    +0.000 C 
ATOM     34  C   UNL     1      21.885   0.727 191.104  0.00  0.00    +0.000 C 
BRANCH  33  38
ATOM     35  O   UNL     1      19.266   3.143 186.297  0.00  0.00    +0.000 OA
ATOM     36  C   UNL     1      23.099   1.945 187.902  0.00  0.00    +0.000 C 
ATOM     37  C   UNL     1      22.733   2.538 186.626  0.00  0.00    +0.000 C 
ATOM     38  C   UNL     1      21.764   1.789 188.676  0.00  0.00    +0.000 C 
ATOM     39  C   UNL     1      21.578   2.966 185.978  0.00  0.00    +0.000 C 
ATOM     40  C   UNL     1      24.030   2.900 188.686  0.00  0.00    +0.000 C 
ATOM     41  C   UNL     1      23.731   0.553 187.681  0.00  0.00    +0.000 C 
ATOM     42  C   UNL     1      20.560   2.173 188.160  0.00  0.00    +0.000 C 
ATOM     43  C   UNL     1      20.340   2.795 186.770  0.00  0.00    +0.000 C 
ATOM     44  C   UNL     1      19.299   1.989 189.015  0.00  0.00    +0.000 C 
BRANCH  39  45
ATOM     45  O   UNL     1      21.584   3.504 184.720  0.00  0.00    +0.000 OA
ATOM     46  H   UNL     1      21.977   4.401 184.729  0.00  0.00    +0.000 HD
ENDBRANCH  39  45
ENDBRANCH  33  38
ENDBRANCH  31  34
ENDBRANCH  30  31
ENDBRANCH  28  30
ENDBRANCH  26  29
ENDBRANCH  25  26
ENDBRANCH   1  25
TORSDOF 16
ENDMDL
MODEL 9
REMARK VINA RESULT:      -6.3     33.750     40.080
REMARK  Name = 5281224_Astaxanthin.pdbqt.pdb
REMARK  16 active torsions:
REMARK  status: ('A' for Active; 'I' for Inactive)
REMARK    1  A    between atoms: C_1  and  C_5
REMARK    2  A    between atoms: C_2  and  C_27
REMARK    3  A    between atoms: C_3  and  C_5
REMARK    4  A    between atoms: C_3  and  C_7
REMARK    5  A    between atoms: C_6  and  C_10
REMARK    6  A    between atoms: C_8  and  C_10
REMARK    7  A    between atoms: C_8  and  C_12
REMARK    8  A    between atoms: C_11  and  C_16
REMARK    9  A    between atoms: C_17  and  O_23
REMARK   10  A    between atoms: C_25  and  C_27
REMARK   11  A    between atoms: C_25  and  C_29
REMARK   12  A    between atoms: C_28  and  C_32
REMARK   13  A    between atoms: C_30  and  C_32
REMARK   14  A    between atoms: C_30  and  C_34
REMARK   15  A    between atoms: C_33  and  C_38
REMARK   16  A    between atoms: C_39  and  O_45
REMARK                            x       y       z     vdW  Elec       q    Type
REMARK                         _______ _______ _______ _____ _____    ______ ____
ROOT
ATOM      1  C   UNL     1      50.323 -21.858 170.520  0.00  0.00    +0.000 C 
ATOM      2  C   UNL     1      49.715 -22.060 169.505  0.00  0.00    +0.000 C 
ENDROOT
BRANCH   2   3
ATOM      3  C   UNL     1      48.944 -22.312 168.203  0.00  0.00    +0.000 C 
BRANCH   3   4
ATOM      4  C   UNL     1      48.288 -22.529 167.107  0.00  0.00    +0.000 C 
ATOM      5  C   UNL     1      49.017 -22.983 165.877  0.00  0.00    +0.000 C 
BRANCH   4   7
ATOM      6  C   UNL     1      45.721 -22.038 167.001  0.00  0.00    +0.000 C 
ATOM      7  C   UNL     1      46.900 -22.263 167.048  0.00  0.00    +0.000 C 
BRANCH   6   8
ATOM      8  C   UNL     1      44.216 -21.753 166.946  0.00  0.00    +0.000 C 
BRANCH   8   9
ATOM      9  C   UNL     1      42.944 -21.503 166.895  0.00  0.00    +0.000 C 
ATOM     10  C   UNL     1      42.215 -21.602 165.589  0.00  0.00    +0.000 C 
BRANCH   9  12
ATOM     11  C   UNL     1      41.619 -21.088 169.116  0.00  0.00    +0.000 C 
ATOM     12  C   UNL     1      42.221 -21.289 168.094  0.00  0.00    +0.000 C 
BRANCH  11  16
ATOM     13  O   UNL     1      40.917 -18.428 173.172  0.00  0.00    +0.000 OA
ATOM     14  C   UNL     1      39.743 -21.790 170.721  0.00  0.00    +0.000 C 
ATOM     15  C   UNL     1      39.224 -21.294 171.984  0.00  0.00    +0.000 C 
ATOM     16  C   UNL     1      40.904 -20.832 170.351  0.00  0.00    +0.000 C 
ATOM     17  C   UNL     1      39.488 -20.258 172.873  0.00  0.00    +0.000 C 
ATOM     18  C   UNL     1      38.652 -21.708 169.627  0.00  0.00    +0.000 C 
ATOM     19  C   UNL     1      40.294 -23.223 170.896  0.00  0.00    +0.000 C 
ATOM     20  C   UNL     1      41.264 -19.772 171.134  0.00  0.00    +0.000 C 
ATOM     21  C   UNL     1      40.603 -19.376 172.464  0.00  0.00    +0.000 C 
ATOM     22  C   UNL     1      42.419 -18.874 170.670  0.00  0.00    +0.000 C 
BRANCH  17  23
ATOM     23  O   UNL     1      38.775 -20.063 174.026  0.00  0.00    +0.000 OA
ATOM     24  H   UNL     1      38.876 -20.827 174.630  0.00  0.00    +0.000 HD
ENDBRANCH  17  23
ENDBRANCH  11  16
ENDBRANCH   9  12
ENDBRANCH   8   9
ENDBRANCH   6   8
ENDBRANCH   4   7
ENDBRANCH   3   4
ENDBRANCH   2   3
BRANCH   1  25
ATOM     25  C   UNL     1      51.104 -21.592 171.812  0.00  0.00    +0.000 C 
BRANCH  25  26
ATOM     26  C   UNL     1      51.761 -21.362 172.905  0.00  0.00    +0.000 C 
ATOM     27  C   UNL     1      51.179 -21.770 174.226  0.00  0.00    +0.000 C 
BRANCH  26  29
ATOM     28  C   UNL     1      54.021 -20.048 172.819  0.00  0.00    +0.000 C 
ATOM     29  C   UNL     1      52.984 -20.652 172.860  0.00  0.00    +0.000 C 
BRANCH  28  30
ATOM     30  C   UNL     1      55.346 -19.277 172.763  0.00  0.00    +0.000 C 
BRANCH  30  31
ATOM     31  C   UNL     1      56.460 -18.618 172.712  0.00  0.00    +0.000 C 
ATOM     32  C   UNL     1      57.642 -19.085 173.507  0.00  0.00    +0.000 C 
BRANCH  31  34
ATOM     33  C   UNL     1      56.722 -16.639 171.015  0.00  0.00    +0.000 C 
ATOM     34  C   UNL     1      56.607 -17.555 171.786  0.00  0.00    +0.000 C 
BRANCH  33  38
ATOM     35  O   UNL     1      56.370 -14.764 166.501  0.00  0.00    +0.000 OA
ATOM     36  C   UNL     1      57.321 -14.166 170.677  0.00  0.00    +0.000 C 
ATOM     37  C   UNL     1      57.352 -13.257 169.544  0.00  0.00    +0.000 C 
ATOM     38  C   UNL     1      56.849 -15.524 170.096  0.00  0.00    +0.000 C 
ATOM     39  C   UNL     1      57.086 -13.297 168.178  0.00  0.00    +0.000 C 
ATOM     40  C   UNL     1      56.291 -13.679 171.724  0.00  0.00    +0.000 C 
ATOM     41  C   UNL     1      58.737 -14.325 171.272  0.00  0.00    +0.000 C 
ATOM     42  C   UNL     1      56.550 -15.701 168.776  0.00  0.00    +0.000 C 
ATOM     43  C   UNL     1      56.636 -14.618 167.687  0.00  0.00    +0.000 C 
ATOM     44  C   UNL     1      56.077 -17.082 168.305  0.00  0.00    +0.000 C 
BRANCH  39  45
ATOM     45  O   UNL     1      57.222 -12.209 167.359  0.00  0.00    +0.000 OA
ATOM     46  H   UNL     1      56.703 -12.327 166.537  0.00  0.00    +0.000 HD
ENDBRANCH  39  45
ENDBRANCH  33  38
ENDBRANCH  31  34
ENDBRANCH  30  31
ENDBRANCH  28  30
ENDBRANCH  26  29
ENDBRANCH  25  26
ENDBRANCH   1  25
TORSDOF 16
ENDMDL
