MODEL 1
REMARK VINA RESULT:      -6.8      0.000      0.000
REMARK  Name = 5281416_Esculetin.pdbqt.pdb
REMARK  2 active torsions:
REMARK  status: ('A' for Active; 'I' for Inactive)
REMARK    1  A    between atoms: C_7  and  O_12
REMARK    2  A    between atoms: C_8  and  O_14
REMARK                            x       y       z     vdW  Elec       q    Type
REMARK                         _______ _______ _______ _____ _____    ______ ____
ROOT
ATOM      1  O   UNL     1      21.759   2.602 187.691  0.00  0.00    +0.000 OA
ATOM      2  O   UNL     1      22.973   3.528 185.909  0.00  0.00    +0.000 OA
ATOM      3  C   UNL     1      19.277   2.593 187.449  0.00  0.00    +0.000 A 
ATOM      4  C   UNL     1      20.443   2.286 188.203  0.00  0.00    +0.000 A 
ATOM      5  C   UNL     1      18.014   2.293 187.934  0.00  0.00    +0.000 A 
ATOM      6  C   UNL     1      20.361   1.679 189.448  0.00  0.00    +0.000 A 
ATOM      7  C   UNL     1      17.935   1.683 189.184  0.00  0.00    +0.000 A 
ATOM      8  C   UNL     1      19.089   1.383 189.925  0.00  0.00    +0.000 A 
ATOM      9  C   UNL     1      19.541   3.211 186.202  0.00  0.00    +0.000 A 
ATOM     10  C   UNL     1      20.635   3.463 185.797  0.00  0.00    +0.000 A 
ATOM     11  C   UNL     1      21.908   3.225 186.421  0.00  0.00    +0.000 A 
ENDROOT
BRANCH   7  12
ATOM     12  O   UNL     1      16.723   1.356 189.732  0.00  0.00    +0.000 OA
ATOM     13  H   UNL     1      16.746   0.408 189.963  0.00  0.00    +0.000 HD
ENDBRANCH   7  12
BRANCH   8  14
ATOM     14  O   UNL     1      18.964   0.783 191.148  0.00  0.00    +0.000 OA
ATOM     15  H   UNL     1      19.871   0.513 191.396  0.00  0.00    +0.000 HD
ENDBRANCH   8  14
TORSDOF 2
ENDMDL
MODEL 2
REMARK VINA RESULT:      -5.4      3.273      4.042
REMARK  Name = 5281416_Esculetin.pdbqt.pdb
REMARK  2 active torsions:
REMARK  status: ('A' for Active; 'I' for Inactive)
REMARK    1  A    between atoms: C_7  and  O_12
REMARK    2  A    between atoms: C_8  and  O_14
REMARK                            x       y       z     vdW  Elec       q    Type
REMARK                         _______ _______ _______ _____ _____    ______ ____
ROOT
ATOM      1  O   UNL     1      24.173   3.385 189.122  0.00  0.00    +0.000 OA
ATOM      2  O   UNL     1      26.452   3.624 188.617  0.00  0.00    +0.000 OA
ATOM      3  C   UNL     1      22.664   5.194 188.306  0.00  0.00    +0.000 A 
ATOM      4  C   UNL     1      22.853   3.964 188.994  0.00  0.00    +0.000 A 
ATOM      5  C   UNL     1      21.404   5.755 188.180  0.00  0.00    +0.000 A 
ATOM      6  C   UNL     1      21.788   3.282 189.564  0.00  0.00    +0.000 A 
ATOM      7  C   UNL     1      20.336   5.068 188.752  0.00  0.00    +0.000 A 
ATOM      8  C   UNL     1      20.527   3.855 189.431  0.00  0.00    +0.000 A 
ATOM      9  C   UNL     1      23.857   5.756 187.787  0.00  0.00    +0.000 A 
ATOM     10  C   UNL     1      24.937   5.261 187.903  0.00  0.00    +0.000 A 
ATOM     11  C   UNL     1      25.305   4.036 188.560  0.00  0.00    +0.000 A 
ENDROOT
BRANCH   7  12
ATOM     12  O   UNL     1      19.059   5.557 188.671  0.00  0.00    +0.000 OA
ATOM     13  H   UNL     1      18.724   5.371 187.774  0.00  0.00    +0.000 HD
ENDBRANCH   7  12
BRANCH   8  14
ATOM     14  O   UNL     1      19.450   3.214 189.978  0.00  0.00    +0.000 OA
ATOM     15  H   UNL     1      18.951   2.852 189.218  0.00  0.00    +0.000 HD
ENDBRANCH   8  14
TORSDOF 2
ENDMDL
MODEL 3
REMARK VINA RESULT:      -5.4     30.292     32.624
REMARK  Name = 5281416_Esculetin.pdbqt.pdb
REMARK  2 active torsions:
REMARK  status: ('A' for Active; 'I' for Inactive)
REMARK    1  A    between atoms: C_7  and  O_12
REMARK    2  A    between atoms: C_8  and  O_14
REMARK                            x       y       z     vdW  Elec       q    Type
REMARK                         _______ _______ _______ _____ _____    ______ ____
ROOT
ATOM      1  O   UNL     1      40.165  -8.767 164.106  0.00  0.00    +0.000 OA
ATOM      2  O   UNL     1      40.891 -10.500 162.700  0.00  0.00    +0.000 OA
ATOM      3  C   UNL     1      41.779  -8.009 165.850  0.00  0.00    +0.000 A 
ATOM      4  C   UNL     1      40.509  -7.906 165.217  0.00  0.00    +0.000 A 
ATOM      5  C   UNL     1      42.116  -7.188 166.913  0.00  0.00    +0.000 A 
ATOM      6  C   UNL     1      39.563  -6.983 165.639  0.00  0.00    +0.000 A 
ATOM      7  C   UNL     1      41.164  -6.263 167.335  0.00  0.00    +0.000 A 
ATOM      8  C   UNL     1      39.912  -6.164 166.708  0.00  0.00    +0.000 A 
ATOM      9  C   UNL     1      42.623  -9.002 165.293  0.00  0.00    +0.000 A 
ATOM     10  C   UNL     1      42.319  -9.703 164.376  0.00  0.00    +0.000 A 
ATOM     11  C   UNL     1      41.092  -9.733 163.628  0.00  0.00    +0.000 A 
ENDROOT
BRANCH   7  12
ATOM     12  O   UNL     1      41.420  -5.415 168.380  0.00  0.00    +0.000 OA
ATOM     13  H   UNL     1      40.757  -4.700 168.355  0.00  0.00    +0.000 HD
ENDBRANCH   7  12
BRANCH   8  14
ATOM     14  O   UNL     1      39.007  -5.240 167.155  0.00  0.00    +0.000 OA
ATOM     15  H   UNL     1      39.528  -4.430 167.325  0.00  0.00    +0.000 HD
ENDBRANCH   8  14
TORSDOF 2
ENDMDL
MODEL 4
REMARK VINA RESULT:      -5.2      4.446      5.475
REMARK  Name = 5281416_Esculetin.pdbqt.pdb
REMARK  2 active torsions:
REMARK  status: ('A' for Active; 'I' for Inactive)
REMARK    1  A    between atoms: C_7  and  O_12
REMARK    2  A    between atoms: C_8  and  O_14
REMARK                            x       y       z     vdW  Elec       q    Type
REMARK                         _______ _______ _______ _____ _____    ______ ____
ROOT
ATOM      1  O   UNL     1      23.315   3.559 186.565  0.00  0.00    +0.000 OA
ATOM      2  O   UNL     1      23.139   5.470 185.216  0.00  0.00    +0.000 OA
ATOM      3  C   UNL     1      24.969   3.669 188.428  0.00  0.00    +0.000 A 
ATOM      4  C   UNL     1      23.978   2.954 187.700  0.00  0.00    +0.000 A 
ATOM      5  C   UNL     1      25.608   3.097 189.516  0.00  0.00    +0.000 A 
ATOM      6  C   UNL     1      23.616   1.662 188.050  0.00  0.00    +0.000 A 
ATOM      7  C   UNL     1      25.241   1.799 189.864  0.00  0.00    +0.000 A 
ATOM      8  C   UNL     1      24.263   1.097 189.144  0.00  0.00    +0.000 A 
ATOM      9  C   UNL     1      25.217   4.975 187.936  0.00  0.00    +0.000 A 
ATOM     10  C   UNL     1      24.658   5.455 186.997  0.00  0.00    +0.000 A 
ATOM     11  C   UNL     1      23.644   4.881 186.157  0.00  0.00    +0.000 A 
ENDROOT
BRANCH   7  12
ATOM     12  O   UNL     1      25.827   1.164 190.928  0.00  0.00    +0.000 OA
ATOM     13  H   UNL     1      26.295   1.836 191.457  0.00  0.00    +0.000 HD
ENDBRANCH   7  12
BRANCH   8  14
ATOM     14  O   UNL     1      23.934  -0.176 189.521  0.00  0.00    +0.000 OA
ATOM     15  H   UNL     1      23.427  -0.076 190.352  0.00  0.00    +0.000 HD
ENDBRANCH   8  14
TORSDOF 2
ENDMDL
MODEL 5
REMARK VINA RESULT:      -5.2     24.339     25.150
REMARK  Name = 5281416_Esculetin.pdbqt.pdb
REMARK  2 active torsions:
REMARK  status: ('A' for Active; 'I' for Inactive)
REMARK    1  A    between atoms: C_7  and  O_12
REMARK    2  A    between atoms: C_8  and  O_14
REMARK                            x       y       z     vdW  Elec       q    Type
REMARK                         _______ _______ _______ _____ _____    ______ ____
ROOT
ATOM      1  O   UNL     1      23.397  -7.390 164.932  0.00  0.00    +0.000 OA
ATOM      2  O   UNL     1      22.380  -6.067 163.282  0.00  0.00    +0.000 OA
ATOM      3  C   UNL     1      25.769  -6.847 165.477  0.00  0.00    +0.000 A 
ATOM      4  C   UNL     1      24.606  -7.638 165.687  0.00  0.00    +0.000 A 
ATOM      5  C   UNL     1      26.929  -7.078 166.197  0.00  0.00    +0.000 A 
ATOM      6  C   UNL     1      24.589  -8.668 166.617  0.00  0.00    +0.000 A 
ATOM      7  C   UNL     1      26.910  -8.113 167.130  0.00  0.00    +0.000 A 
ATOM      8  C   UNL     1      25.760  -8.892 167.334  0.00  0.00    +0.000 A 
ATOM      9  C   UNL     1      25.613  -5.840 164.493  0.00  0.00    +0.000 A 
ATOM     10  C   UNL     1      24.606  -5.651 163.880  0.00  0.00    +0.000 A 
ATOM     11  C   UNL     1      23.352  -6.348 163.964  0.00  0.00    +0.000 A 
ENDROOT
BRANCH   7  12
ATOM     12  O   UNL     1      28.017  -8.405 167.881  0.00  0.00    +0.000 OA
ATOM     13  H   UNL     1      28.502  -9.122 167.432  0.00  0.00    +0.000 HD
ENDBRANCH   7  12
BRANCH   8  14
ATOM     14  O   UNL     1      25.785  -9.897 168.260  0.00  0.00    +0.000 OA
ATOM     15  H   UNL     1      25.546  -9.473 169.109  0.00  0.00    +0.000 HD
ENDBRANCH   8  14
TORSDOF 2
ENDMDL
MODEL 6
REMARK VINA RESULT:      -5.1     32.350     34.083
REMARK  Name = 5281416_Esculetin.pdbqt.pdb
REMARK  2 active torsions:
REMARK  status: ('A' for Active; 'I' for Inactive)
REMARK    1  A    between atoms: C_7  and  O_12
REMARK    2  A    between atoms: C_8  and  O_14
REMARK                            x       y       z     vdW  Elec       q    Type
REMARK                         _______ _______ _______ _____ _____    ______ ____
ROOT
ATOM      1  O   UNL     1      46.023  -4.054 164.762  0.00  0.00    +0.000 OA
ATOM      2  O   UNL     1      46.273  -1.957 163.738  0.00  0.00    +0.000 OA
ATOM      3  C   UNL     1      43.965  -4.376 166.133  0.00  0.00    +0.000 A 
ATOM      4  C   UNL     1      45.187  -4.878 165.608  0.00  0.00    +0.000 A 
ATOM      5  C   UNL     1      43.160  -5.160 166.943  0.00  0.00    +0.000 A 
ATOM      6  C   UNL     1      45.618  -6.167 165.886  0.00  0.00    +0.000 A 
ATOM      7  C   UNL     1      43.596  -6.453 167.220  0.00  0.00    +0.000 A 
ATOM      8  C   UNL     1      44.803  -6.946 166.700  0.00  0.00    +0.000 A 
ATOM      9  C   UNL     1      43.677  -3.042 165.751  0.00  0.00    +0.000 A 
ATOM     10  C   UNL     1      44.380  -2.378 165.051  0.00  0.00    +0.000 A 
ATOM     11  C   UNL     1      45.635  -2.724 164.441  0.00  0.00    +0.000 A 
ENDROOT
BRANCH   7  12
ATOM     12  O   UNL     1      42.856  -7.290 168.014  0.00  0.00    +0.000 OA
ATOM     13  H   UNL     1      43.470  -7.752 168.614  0.00  0.00    +0.000 HD
ENDBRANCH   7  12
BRANCH   8  14
ATOM     14  O   UNL     1      45.192  -8.222 166.998  0.00  0.00    +0.000 OA
ATOM     15  H   UNL     1      45.894  -8.436 166.352  0.00  0.00    +0.000 HD
ENDBRANCH   8  14
TORSDOF 2
ENDMDL
MODEL 7
REMARK VINA RESULT:      -4.8     21.214     22.073
REMARK  Name = 5281416_Esculetin.pdbqt.pdb
REMARK  2 active torsions:
REMARK  status: ('A' for Active; 'I' for Inactive)
REMARK    1  A    between atoms: C_7  and  O_12
REMARK    2  A    between atoms: C_8  and  O_14
REMARK                            x       y       z     vdW  Elec       q    Type
REMARK                         _______ _______ _______ _____ _____    ______ ____
ROOT
ATOM      1  O   UNL     1      17.614  -8.876 167.392  0.00  0.00    +0.000 OA
ATOM      2  O   UNL     1      18.577  -7.406 165.838  0.00  0.00    +0.000 OA
ATOM      3  C   UNL     1      16.954  -7.889 169.585  0.00  0.00    +0.000 A 
ATOM      4  C   UNL     1      17.048  -9.012 168.717  0.00  0.00    +0.000 A 
ATOM      5  C   UNL     1      16.413  -8.011 170.854  0.00  0.00    +0.000 A 
ATOM      6  C   UNL     1      16.603 -10.267 169.107  0.00  0.00    +0.000 A 
ATOM      7  C   UNL     1      15.968  -9.272 171.243  0.00  0.00    +0.000 A 
ATOM      8  C   UNL     1      16.062 -10.378 170.383  0.00  0.00    +0.000 A 
ATOM      9  C   UNL     1      17.454  -6.685 169.029  0.00  0.00    +0.000 A 
ATOM     10  C   UNL     1      17.917  -6.595 167.932  0.00  0.00    +0.000 A 
ATOM     11  C   UNL     1      18.086  -7.615 166.935  0.00  0.00    +0.000 A 
ENDROOT
BRANCH   7  12
ATOM     12  O   UNL     1      15.421  -9.475 172.482  0.00  0.00    +0.000 OA
ATOM     13  H   UNL     1      14.453  -9.531 172.376  0.00  0.00    +0.000 HD
ENDBRANCH   7  12
BRANCH   8  14
ATOM     14  O   UNL     1      15.613 -11.598 170.806  0.00  0.00    +0.000 OA
ATOM     15  H   UNL     1      15.056 -11.411 171.589  0.00  0.00    +0.000 HD
ENDBRANCH   8  14
TORSDOF 2
ENDMDL
MODEL 8
REMARK VINA RESULT:      -4.8     34.606     36.260
REMARK  Name = 5281416_Esculetin.pdbqt.pdb
REMARK  2 active torsions:
REMARK  status: ('A' for Active; 'I' for Inactive)
REMARK    1  A    between atoms: C_7  and  O_12
REMARK    2  A    between atoms: C_8  and  O_14
REMARK                            x       y       z     vdW  Elec       q    Type
REMARK                         _______ _______ _______ _____ _____    ______ ____
ROOT
ATOM      1  O   UNL     1      42.269 -19.378 169.088  0.00  0.00    +0.000 OA
ATOM      2  O   UNL     1      43.035 -20.063 166.978  0.00  0.00    +0.000 OA
ATOM      3  C   UNL     1      43.069 -20.709 171.039  0.00  0.00    +0.000 A 
ATOM      4  C   UNL     1      42.303 -19.632 170.512  0.00  0.00    +0.000 A 
ATOM      5  C   UNL     1      43.106 -20.959 172.402  0.00  0.00    +0.000 A 
ATOM      6  C   UNL     1      41.567 -18.795 171.338  0.00  0.00    +0.000 A 
ATOM      7  C   UNL     1      42.366 -20.116 173.228  0.00  0.00    +0.000 A 
ATOM      8  C   UNL     1      41.612 -19.055 172.704  0.00  0.00    +0.000 A 
ATOM      9  C   UNL     1      43.759 -21.462 170.058  0.00  0.00    +0.000 A 
ATOM     10  C   UNL     1      43.717 -21.235 168.887  0.00  0.00    +0.000 A 
ATOM     11  C   UNL     1      43.003 -20.201 168.190  0.00  0.00    +0.000 A 
ENDROOT
BRANCH   7  12
ATOM     12  O   UNL     1      42.351 -20.298 174.586  0.00  0.00    +0.000 OA
ATOM     13  H   UNL     1      41.828 -21.098 174.775  0.00  0.00    +0.000 HD
ENDBRANCH   7  12
BRANCH   8  14
ATOM     14  O   UNL     1      40.900 -18.253 173.552  0.00  0.00    +0.000 OA
ATOM     15  H   UNL     1      40.654 -18.827 174.306  0.00  0.00    +0.000 HD
ENDBRANCH   8  14
TORSDOF 2
ENDMDL
MODEL 9
REMARK VINA RESULT:      -4.7     21.216     22.209
REMARK  Name = 5281416_Esculetin.pdbqt.pdb
REMARK  2 active torsions:
REMARK  status: ('A' for Active; 'I' for Inactive)
REMARK    1  A    between atoms: C_7  and  O_12
REMARK    2  A    between atoms: C_8  and  O_14
REMARK                            x       y       z     vdW  Elec       q    Type
REMARK                         _______ _______ _______ _____ _____    ______ ____
ROOT
ATOM      1  O   UNL     1      17.126  -5.899 168.147  0.00  0.00    +0.000 OA
ATOM      2  O   UNL     1      17.415  -4.691 166.157  0.00  0.00    +0.000 OA
ATOM      3  C   UNL     1      17.166  -8.384 167.948  0.00  0.00    +0.000 A 
ATOM      4  C   UNL     1      17.043  -7.214 168.746  0.00  0.00    +0.000 A 
ATOM      5  C   UNL     1      17.088  -9.646 168.514  0.00  0.00    +0.000 A 
ATOM      6  C   UNL     1      16.841  -7.290 170.117  0.00  0.00    +0.000 A 
ATOM      7  C   UNL     1      16.885  -9.720 169.890  0.00  0.00    +0.000 A 
ATOM      8  C   UNL     1      16.764  -8.562 170.675  0.00  0.00    +0.000 A 
ATOM      9  C   UNL     1      17.368  -8.125 166.570  0.00  0.00    +0.000 A 
ATOM     10  C   UNL     1      17.434  -7.032 166.095  0.00  0.00    +0.000 A 
ATOM     11  C   UNL     1      17.332  -5.755 166.748  0.00  0.00    +0.000 A 
ENDROOT
BRANCH   7  12
ATOM     12  O   UNL     1      16.796 -10.930 170.525  0.00  0.00    +0.000 OA
ATOM     13  H   UNL     1      16.907 -11.629 169.854  0.00  0.00    +0.000 HD
ENDBRANCH   7  12
BRANCH   8  14
ATOM     14  O   UNL     1      16.566  -8.681 172.023  0.00  0.00    +0.000 OA
ATOM     15  H   UNL     1      17.397  -8.368 172.434  0.00  0.00    +0.000 HD
ENDBRANCH   8  14
TORSDOF 2
ENDMDL
