MODEL 1
REMARK VINA RESULT:      -8.0      0.000      0.000
REMARK  Name = 5281698_sexangularetin.pdbqt.pdb
REMARK  6 active torsions:
REMARK  status: ('A' for Active; 'I' for Inactive)
REMARK    1  A    between atoms: C_5  and  C_12
REMARK    2  A    between atoms: C_6  and  O_20
REMARK    3  A    between atoms: C_8  and  O_22
REMARK    4  A    between atoms: C_9  and  O_24
REMARK    5  A    between atoms: C_10  and  O_26
REMARK    6  A    between atoms: C_17  and  O_18
REMARK                            x       y       z     vdW  Elec       q    Type
REMARK                         _______ _______ _______ _____ _____    ______ ____
ROOT
ATOM      1  O   UNL     1      20.962   3.136 189.521  0.00  0.00    +0.000 OA
ATOM      2  O   UNL     1      17.276   1.465 189.705  0.00  0.00    +0.000 OA
ATOM      3  C   UNL     1      19.290   1.959 190.819  0.00  0.00    +0.000 A 
ATOM      4  C   UNL     1      20.550   2.541 190.687  0.00  0.00    +0.000 A 
ATOM      5  C   UNL     1      20.132   3.117 188.406  0.00  0.00    +0.000 A 
ATOM      6  C   UNL     1      21.428   2.543 191.780  0.00  0.00    +0.000 A 
ATOM      7  C   UNL     1      18.401   1.958 189.656  0.00  0.00    +0.000 A 
ATOM      8  C   UNL     1      18.898   2.580 188.409  0.00  0.00    +0.000 A 
ATOM      9  C   UNL     1      18.892   1.401 192.040  0.00  0.00    +0.000 A 
ATOM     10  C   UNL     1      21.006   2.019 193.007  0.00  0.00    +0.000 A 
ATOM     11  C   UNL     1      19.747   1.439 193.137  0.00  0.00    +0.000 A 
ENDROOT
BRANCH   5  12
ATOM     12  C   UNL     1      20.740   3.767 187.227  0.00  0.00    +0.000 A 
ATOM     13  C   UNL     1      21.415   4.984 187.377  0.00  0.00    +0.000 A 
ATOM     14  C   UNL     1      20.726   3.171 185.962  0.00  0.00    +0.000 A 
ATOM     15  C   UNL     1      22.037   5.602 186.295  0.00  0.00    +0.000 A 
ATOM     16  C   UNL     1      21.342   3.779 184.870  0.00  0.00    +0.000 A 
ATOM     17  C   UNL     1      21.994   4.993 185.047  0.00  0.00    +0.000 A 
BRANCH  17  18
ATOM     18  O   UNL     1      22.593   5.572 183.966  0.00  0.00    +0.000 OA
ATOM     19  H   UNL     1      22.108   5.298 183.168  0.00  0.00    +0.000 HD
ENDBRANCH  17  18
ENDBRANCH   5  12
BRANCH   6  20
ATOM     20  O   UNL     1      22.665   3.133 191.700  0.00  0.00    +0.000 OA
ATOM     21  C   UNL     1      23.642   2.209 191.280  0.00  0.00    +0.000 C 
ENDBRANCH   6  20
BRANCH   8  22
ATOM     22  O   UNL     1      18.040   2.584 187.326  0.00  0.00    +0.000 OA
ATOM     23  H   UNL     1      18.127   1.698 186.914  0.00  0.00    +0.000 HD
ENDBRANCH   8  22
BRANCH   9  24
ATOM     24  O   UNL     1      17.671   0.819 192.236  0.00  0.00    +0.000 OA
ATOM     25  H   UNL     1      17.773  -0.159 192.189  0.00  0.00    +0.000 HD
ENDBRANCH   9  24
BRANCH  10  26
ATOM     26  O   UNL     1      21.828   2.092 194.097  0.00  0.00    +0.000 OA
ATOM     27  H   UNL     1      21.288   2.298 194.882  0.00  0.00    +0.000 HD
ENDBRANCH  10  26
TORSDOF 6
ENDMDL
MODEL 2
REMARK VINA RESULT:      -7.7      2.070      6.534
REMARK  Name = 5281698_sexangularetin.pdbqt.pdb
REMARK  6 active torsions:
REMARK  status: ('A' for Active; 'I' for Inactive)
REMARK    1  A    between atoms: C_5  and  C_12
REMARK    2  A    between atoms: C_6  and  O_20
REMARK    3  A    between atoms: C_8  and  O_22
REMARK    4  A    between atoms: C_9  and  O_24
REMARK    5  A    between atoms: C_10  and  O_26
REMARK    6  A    between atoms: C_17  and  O_18
REMARK                            x       y       z     vdW  Elec       q    Type
REMARK                         _______ _______ _______ _____ _____    ______ ____
ROOT
ATOM      1  O   UNL     1      20.729   1.281 190.456  0.00  0.00    +0.000 OA
ATOM      2  O   UNL     1      17.632   2.167 187.999  0.00  0.00    +0.000 OA
ATOM      3  C   UNL     1      19.955   2.243 188.372  0.00  0.00    +0.000 A 
ATOM      4  C   UNL     1      20.974   1.920 189.267  0.00  0.00    +0.000 A 
ATOM      5  C   UNL     1      19.421   0.988 190.824  0.00  0.00    +0.000 A 
ATOM      6  C   UNL     1      22.301   2.236 188.944  0.00  0.00    +0.000 A 
ATOM      7  C   UNL     1      18.577   1.914 188.742  0.00  0.00    +0.000 A 
ATOM      8  C   UNL     1      18.354   1.256 190.048  0.00  0.00    +0.000 A 
ATOM      9  C   UNL     1      20.253   2.855 187.150  0.00  0.00    +0.000 A 
ATOM     10  C   UNL     1      22.594   2.812 187.702  0.00  0.00    +0.000 A 
ATOM     11  C   UNL     1      21.574   3.133 186.811  0.00  0.00    +0.000 A 
ENDROOT
BRANCH   5  12
ATOM     12  C   UNL     1      19.330   0.334 192.146  0.00  0.00    +0.000 A 
ATOM     13  C   UNL     1      19.918  -0.922 192.340  0.00  0.00    +0.000 A 
ATOM     14  C   UNL     1      18.730   0.960 193.243  0.00  0.00    +0.000 A 
ATOM     15  C   UNL     1      19.888  -1.547 193.584  0.00  0.00    +0.000 A 
ATOM     16  C   UNL     1      18.692   0.345 194.493  0.00  0.00    +0.000 A 
ATOM     17  C   UNL     1      19.273  -0.907 194.653  0.00  0.00    +0.000 A 
BRANCH  17  18
ATOM     18  O   UNL     1      19.227  -1.492 195.885  0.00  0.00    +0.000 OA
ATOM     19  H   UNL     1      19.942  -1.115 196.426  0.00  0.00    +0.000 HD
ENDBRANCH  17  18
ENDBRANCH   5  12
BRANCH   6  20
ATOM     20  O   UNL     1      23.337   1.908 189.784  0.00  0.00    +0.000 OA
ATOM     21  C   UNL     1      23.619   2.960 190.678  0.00  0.00    +0.000 C 
ENDBRANCH   6  20
BRANCH   8  22
ATOM     22  O   UNL     1      17.050   0.939 190.376  0.00  0.00    +0.000 OA
ATOM     23  H   UNL     1      16.608   1.793 190.567  0.00  0.00    +0.000 HD
ENDBRANCH   8  22
BRANCH   9  24
ATOM     24  O   UNL     1      19.301   3.194 186.228  0.00  0.00    +0.000 OA
ATOM     25  H   UNL     1      19.184   2.446 185.600  0.00  0.00    +0.000 HD
ENDBRANCH   9  24
BRANCH  10  26
ATOM     26  O   UNL     1      23.893   3.048 187.351  0.00  0.00    +0.000 OA
ATOM     27  H   UNL     1      24.465   2.846 188.115  0.00  0.00    +0.000 HD
ENDBRANCH  10  26
TORSDOF 6
ENDMDL
MODEL 3
REMARK VINA RESULT:      -7.0      1.426      3.745
REMARK  Name = 5281698_sexangularetin.pdbqt.pdb
REMARK  6 active torsions:
REMARK  status: ('A' for Active; 'I' for Inactive)
REMARK    1  A    between atoms: C_5  and  C_12
REMARK    2  A    between atoms: C_6  and  O_20
REMARK    3  A    between atoms: C_8  and  O_22
REMARK    4  A    between atoms: C_9  and  O_24
REMARK    5  A    between atoms: C_10  and  O_26
REMARK    6  A    between atoms: C_17  and  O_18
REMARK                            x       y       z     vdW  Elec       q    Type
REMARK                         _______ _______ _______ _____ _____    ______ ____
ROOT
ATOM      1  O   UNL     1      20.879   2.971 189.066  0.00  0.00    +0.000 OA
ATOM      2  O   UNL     1      22.701   3.143 192.681  0.00  0.00    +0.000 OA
ATOM      3  C   UNL     1      20.804   2.505 191.442  0.00  0.00    +0.000 A 
ATOM      4  C   UNL     1      20.228   2.486 190.173  0.00  0.00    +0.000 A 
ATOM      5  C   UNL     1      22.132   3.557 189.205  0.00  0.00    +0.000 A 
ATOM      6  C   UNL     1      18.949   1.937 190.003  0.00  0.00    +0.000 A 
ATOM      7  C   UNL     1      22.134   3.097 191.591  0.00  0.00    +0.000 A 
ATOM      8  C   UNL     1      22.786   3.639 190.379  0.00  0.00    +0.000 A 
ATOM      9  C   UNL     1      20.123   1.959 192.536  0.00  0.00    +0.000 A 
ATOM     10  C   UNL     1      18.293   1.358 191.095  0.00  0.00    +0.000 A 
ATOM     11  C   UNL     1      18.871   1.379 192.362  0.00  0.00    +0.000 A 
ENDROOT
BRANCH   5  12
ATOM     12  C   UNL     1      22.675   4.059 187.927  0.00  0.00    +0.000 A 
ATOM     13  C   UNL     1      22.014   3.763 186.728  0.00  0.00    +0.000 A 
ATOM     14  C   UNL     1      23.802   4.886 187.873  0.00  0.00    +0.000 A 
ATOM     15  C   UNL     1      22.474   4.257 185.510  0.00  0.00    +0.000 A 
ATOM     16  C   UNL     1      24.275   5.384 186.661  0.00  0.00    +0.000 A 
ATOM     17  C   UNL     1      23.605   5.065 185.487  0.00  0.00    +0.000 A 
BRANCH  17  18
ATOM     18  O   UNL     1      24.082   5.564 184.310  0.00  0.00    +0.000 OA
ATOM     19  H   UNL     1      24.889   6.074 184.501  0.00  0.00    +0.000 HD
ENDBRANCH  17  18
ENDBRANCH   5  12
BRANCH   6  20
ATOM     20  O   UNL     1      18.359   1.872 188.764  0.00  0.00    +0.000 OA
ATOM     21  C   UNL     1      18.197   3.157 188.210  0.00  0.00    +0.000 C 
ENDBRANCH   6  20
BRANCH   8  22
ATOM     22  O   UNL     1      24.048   4.182 190.534  0.00  0.00    +0.000 OA
ATOM     23  H   UNL     1      24.673   3.490 190.231  0.00  0.00    +0.000 HD
ENDBRANCH   8  22
BRANCH   9  24
ATOM     24  O   UNL     1      20.634   1.944 193.805  0.00  0.00    +0.000 OA
ATOM     25  H   UNL     1      19.964   1.558 194.414  0.00  0.00    +0.000 HD
ENDBRANCH   9  24
BRANCH  10  26
ATOM     26  O   UNL     1      17.082   0.751 190.918  0.00  0.00    +0.000 OA
ATOM     27  H   UNL     1      16.416   1.436 190.721  0.00  0.00    +0.000 HD
ENDBRANCH  10  26
TORSDOF 6
ENDMDL
MODEL 4
REMARK VINA RESULT:      -6.8      2.114      6.147
REMARK  Name = 5281698_sexangularetin.pdbqt.pdb
REMARK  6 active torsions:
REMARK  status: ('A' for Active; 'I' for Inactive)
REMARK    1  A    between atoms: C_5  and  C_12
REMARK    2  A    between atoms: C_6  and  O_20
REMARK    3  A    between atoms: C_8  and  O_22
REMARK    4  A    between atoms: C_9  and  O_24
REMARK    5  A    between atoms: C_10  and  O_26
REMARK    6  A    between atoms: C_17  and  O_18
REMARK                            x       y       z     vdW  Elec       q    Type
REMARK                         _______ _______ _______ _____ _____    ______ ____
ROOT
ATOM      1  O   UNL     1      22.796   2.381 188.717  0.00  0.00    +0.000 OA
ATOM      2  O   UNL     1      19.067   1.563 190.075  0.00  0.00    +0.000 OA
ATOM      3  C   UNL     1      20.407   2.367 188.314  0.00  0.00    +0.000 A 
ATOM      4  C   UNL     1      21.714   2.636 187.912  0.00  0.00    +0.000 A 
ATOM      5  C   UNL     1      22.597   1.891 190.003  0.00  0.00    +0.000 A 
ATOM      6  C   UNL     1      21.948   3.167 186.635  0.00  0.00    +0.000 A 
ATOM      7  C   UNL     1      20.193   1.826 189.658  0.00  0.00    +0.000 A 
ATOM      8  C   UNL     1      21.383   1.599 190.506  0.00  0.00    +0.000 A 
ATOM      9  C   UNL     1      19.336   2.600 187.445  0.00  0.00    +0.000 A 
ATOM     10  C   UNL     1      20.874   3.359 185.758  0.00  0.00    +0.000 A 
ATOM     11  C   UNL     1      19.570   3.089 186.163  0.00  0.00    +0.000 A 
ENDROOT
BRANCH   5  12
ATOM     12  C   UNL     1      23.860   1.708 190.748  0.00  0.00    +0.000 A 
ATOM     13  C   UNL     1      24.508   0.467 190.719  0.00  0.00    +0.000 A 
ATOM     14  C   UNL     1      24.475   2.759 191.435  0.00  0.00    +0.000 A 
ATOM     15  C   UNL     1      25.721   0.271 191.374  0.00  0.00    +0.000 A 
ATOM     16  C   UNL     1      25.688   2.576 192.097  0.00  0.00    +0.000 A 
ATOM     17  C   UNL     1      26.302   1.331 192.060  0.00  0.00    +0.000 A 
BRANCH  17  18
ATOM     18  O   UNL     1      27.489   1.173 192.713  0.00  0.00    +0.000 OA
ATOM     19  H   UNL     1      28.117   0.747 192.102  0.00  0.00    +0.000 HD
ENDBRANCH  17  18
ENDBRANCH   5  12
BRANCH   6  20
ATOM     20  O   UNL     1      23.222   3.418 186.189  0.00  0.00    +0.000 OA
ATOM     21  C   UNL     1      23.590   4.756 186.427  0.00  0.00    +0.000 C 
ENDBRANCH   6  20
BRANCH   8  22
ATOM     22  O   UNL     1      21.165   1.074 191.766  0.00  0.00    +0.000 OA
ATOM     23  H   UNL     1      20.426   1.595 192.145  0.00  0.00    +0.000 HD
ENDBRANCH   8  22
BRANCH   9  24
ATOM     24  O   UNL     1      18.032   2.354 187.777  0.00  0.00    +0.000 OA
ATOM     25  H   UNL     1      17.523   2.169 186.956  0.00  0.00    +0.000 HD
ENDBRANCH   9  24
BRANCH  10  26
ATOM     26  O   UNL     1      21.105   3.801 184.486  0.00  0.00    +0.000 OA
ATOM     27  H   UNL     1      20.733   4.697 184.394  0.00  0.00    +0.000 HD
ENDBRANCH  10  26
TORSDOF 6
ENDMDL
MODEL 5
REMARK VINA RESULT:      -6.7      2.673      4.326
REMARK  Name = 5281698_sexangularetin.pdbqt.pdb
REMARK  6 active torsions:
REMARK  status: ('A' for Active; 'I' for Inactive)
REMARK    1  A    between atoms: C_5  and  C_12
REMARK    2  A    between atoms: C_6  and  O_20
REMARK    3  A    between atoms: C_8  and  O_22
REMARK    4  A    between atoms: C_9  and  O_24
REMARK    5  A    between atoms: C_10  and  O_26
REMARK    6  A    between atoms: C_17  and  O_18
REMARK                            x       y       z     vdW  Elec       q    Type
REMARK                         _______ _______ _______ _____ _____    ______ ____
ROOT
ATOM      1  O   UNL     1      22.389   1.847 189.362  0.00  0.00    +0.000 OA
ATOM      2  O   UNL     1      26.004   0.287 190.317  0.00  0.00    +0.000 OA
ATOM      3  C   UNL     1      23.704   0.408 190.801  0.00  0.00    +0.000 A 
ATOM      4  C   UNL     1      22.492   0.989 190.428  0.00  0.00    +0.000 A 
ATOM      5  C   UNL     1      23.530   2.208 188.655  0.00  0.00    +0.000 A 
ATOM      6  C   UNL     1      21.328   0.677 191.144  0.00  0.00    +0.000 A 
ATOM      7  C   UNL     1      24.905   0.764 190.044  0.00  0.00    +0.000 A 
ATOM      8  C   UNL     1      24.756   1.720 188.924  0.00  0.00    +0.000 A 
ATOM      9  C   UNL     1      23.756  -0.497 191.866  0.00  0.00    +0.000 A 
ATOM     10  C   UNL     1      21.383  -0.260 192.182  0.00  0.00    +0.000 A 
ATOM     11  C   UNL     1      22.595  -0.838 192.552  0.00  0.00    +0.000 A 
ENDROOT
BRANCH   5  12
ATOM     12  C   UNL     1      23.251   3.166 187.566  0.00  0.00    +0.000 A 
ATOM     13  C   UNL     1      24.001   4.345 187.470  0.00  0.00    +0.000 A 
ATOM     14  C   UNL     1      22.300   2.906 186.574  0.00  0.00    +0.000 A 
ATOM     15  C   UNL     1      23.794   5.249 186.431  0.00  0.00    +0.000 A 
ATOM     16  C   UNL     1      22.081   3.803 185.530  0.00  0.00    +0.000 A 
ATOM     17  C   UNL     1      22.832   4.970 185.468  0.00  0.00    +0.000 A 
BRANCH  17  18
ATOM     18  O   UNL     1      22.605   5.835 184.438  0.00  0.00    +0.000 OA
ATOM     19  H   UNL     1      23.091   5.513 183.659  0.00  0.00    +0.000 HD
ENDBRANCH  17  18
ENDBRANCH   5  12
BRANCH   6  20
ATOM     20  O   UNL     1      20.110   1.203 190.789  0.00  0.00    +0.000 OA
ATOM     21  C   UNL     1      19.863   2.414 191.466  0.00  0.00    +0.000 C 
ENDBRANCH   6  20
BRANCH   8  22
ATOM     22  O   UNL     1      25.897   2.033 188.211  0.00  0.00    +0.000 OA
ATOM     23  H   UNL     1      26.646   1.869 188.822  0.00  0.00    +0.000 HD
ENDBRANCH   8  22
BRANCH   9  24
ATOM     24  O   UNL     1      24.911  -1.102 192.280  0.00  0.00    +0.000 OA
ATOM     25  H   UNL     1      24.835  -2.072 192.129  0.00  0.00    +0.000 HD
ENDBRANCH   9  24
BRANCH  10  26
ATOM     26  O   UNL     1      20.238  -0.627 192.830  0.00  0.00    +0.000 OA
ATOM     27  H   UNL     1      20.374  -1.505 193.231  0.00  0.00    +0.000 HD
ENDBRANCH  10  26
TORSDOF 6
ENDMDL
MODEL 6
REMARK VINA RESULT:      -6.7     30.826     34.255
REMARK  Name = 5281698_sexangularetin.pdbqt.pdb
REMARK  6 active torsions:
REMARK  status: ('A' for Active; 'I' for Inactive)
REMARK    1  A    between atoms: C_5  and  C_12
REMARK    2  A    between atoms: C_6  and  O_20
REMARK    3  A    between atoms: C_8  and  O_22
REMARK    4  A    between atoms: C_9  and  O_24
REMARK    5  A    between atoms: C_10  and  O_26
REMARK    6  A    between atoms: C_17  and  O_18
REMARK                            x       y       z     vdW  Elec       q    Type
REMARK                         _______ _______ _______ _____ _____    ______ ____
ROOT
ATOM      1  O   UNL     1      42.028  -8.144 164.983  0.00  0.00    +0.000 OA
ATOM      2  O   UNL     1      38.286  -6.591 164.963  0.00  0.00    +0.000 OA
ATOM      3  C   UNL     1      40.330  -6.831 166.106  0.00  0.00    +0.000 A 
ATOM      4  C   UNL     1      41.600  -7.402 166.056  0.00  0.00    +0.000 A 
ATOM      5  C   UNL     1      41.159  -8.393 163.927  0.00  0.00    +0.000 A 
ATOM      6  C   UNL     1      42.489  -7.204 167.122  0.00  0.00    +0.000 A 
ATOM      7  C   UNL     1      39.418  -7.067 164.985  0.00  0.00    +0.000 A 
ATOM      8  C   UNL     1      39.907  -7.901 163.864  0.00  0.00    +0.000 A 
ATOM      9  C   UNL     1      39.950  -6.044 167.199  0.00  0.00    +0.000 A 
ATOM     10  C   UNL     1      42.115  -6.383 168.192  0.00  0.00    +0.000 A 
ATOM     11  C   UNL     1      40.845  -5.814 168.239  0.00  0.00    +0.000 A 
ENDROOT
BRANCH   5  12
ATOM     12  C   UNL     1      41.762  -9.235 162.874  0.00  0.00    +0.000 A 
ATOM     13  C   UNL     1      41.456 -10.601 162.819  0.00  0.00    +0.000 A 
ATOM     14  C   UNL     1      42.584  -8.701 161.876  0.00  0.00    +0.000 A 
ATOM     15  C   UNL     1      41.972 -11.415 161.814  0.00  0.00    +0.000 A 
ATOM     16  C   UNL     1      43.109  -9.505 160.866  0.00  0.00    +0.000 A 
ATOM     17  C   UNL     1      42.797 -10.859 160.844  0.00  0.00    +0.000 A 
BRANCH  17  18
ATOM     18  O   UNL     1      43.320 -11.629 159.846  0.00  0.00    +0.000 OA
ATOM     19  H   UNL     1      42.758 -12.418 159.747  0.00  0.00    +0.000 HD
ENDBRANCH  17  18
ENDBRANCH   5  12
BRANCH   6  20
ATOM     20  O   UNL     1      43.761  -7.724 167.097  0.00  0.00    +0.000 OA
ATOM     21  C   UNL     1      44.654  -6.849 166.449  0.00  0.00    +0.000 C 
ENDBRANCH   6  20
BRANCH   8  22
ATOM     22  O   UNL     1      39.040  -8.102 162.808  0.00  0.00    +0.000 OA
ATOM     23  H   UNL     1      39.579  -7.992 161.997  0.00  0.00    +0.000 HD
ENDBRANCH   8  22
BRANCH   9  24
ATOM     24  O   UNL     1      38.721  -5.454 167.307  0.00  0.00    +0.000 OA
ATOM     25  H   UNL     1      38.526  -4.969 166.474  0.00  0.00    +0.000 HD
ENDBRANCH   9  24
BRANCH  10  26
ATOM     26  O   UNL     1      43.007  -6.122 169.193  0.00  0.00    +0.000 OA
ATOM     27  H   UNL     1      42.591  -6.346 170.047  0.00  0.00    +0.000 HD
ENDBRANCH  10  26
TORSDOF 6
ENDMDL
MODEL 7
REMARK VINA RESULT:      -6.7     30.641     33.037
REMARK  Name = 5281698_sexangularetin.pdbqt.pdb
REMARK  6 active torsions:
REMARK  status: ('A' for Active; 'I' for Inactive)
REMARK    1  A    between atoms: C_5  and  C_12
REMARK    2  A    between atoms: C_6  and  O_20
REMARK    3  A    between atoms: C_8  and  O_22
REMARK    4  A    between atoms: C_9  and  O_24
REMARK    5  A    between atoms: C_10  and  O_26
REMARK    6  A    between atoms: C_17  and  O_18
REMARK                            x       y       z     vdW  Elec       q    Type
REMARK                         _______ _______ _______ _____ _____    ______ ____
ROOT
ATOM      1  O   UNL     1      40.027  -7.924 164.600  0.00  0.00    +0.000 OA
ATOM      2  O   UNL     1      38.791  -5.365 167.488  0.00  0.00    +0.000 OA
ATOM      3  C   UNL     1      40.549  -6.649 166.593  0.00  0.00    +0.000 A 
ATOM      4  C   UNL     1      40.907  -7.535 165.578  0.00  0.00    +0.000 A 
ATOM      5  C   UNL     1      38.712  -7.474 164.639  0.00  0.00    +0.000 A 
ATOM      6  C   UNL     1      42.215  -8.039 165.532  0.00  0.00    +0.000 A 
ATOM      7  C   UNL     1      39.173  -6.151 166.624  0.00  0.00    +0.000 A 
ATOM      8  C   UNL     1      38.246  -6.621 165.571  0.00  0.00    +0.000 A 
ATOM      9  C   UNL     1      41.491  -6.244 167.545  0.00  0.00    +0.000 A 
ATOM     10  C   UNL     1      43.161  -7.598 166.464  0.00  0.00    +0.000 A 
ATOM     11  C   UNL     1      42.799  -6.712 167.476  0.00  0.00    +0.000 A 
ENDROOT
BRANCH   5  12
ATOM     12  C   UNL     1      37.888  -8.014 163.538  0.00  0.00    +0.000 A 
ATOM     13  C   UNL     1      38.451  -8.176 162.266  0.00  0.00    +0.000 A 
ATOM     14  C   UNL     1      36.571  -8.439 163.736  0.00  0.00    +0.000 A 
ATOM     15  C   UNL     1      37.717  -8.722 161.216  0.00  0.00    +0.000 A 
ATOM     16  C   UNL     1      35.824  -8.985 162.694  0.00  0.00    +0.000 A 
ATOM     17  C   UNL     1      36.405  -9.122 161.440  0.00  0.00    +0.000 A 
BRANCH  17  18
ATOM     18  O   UNL     1      35.658  -9.661 160.433  0.00  0.00    +0.000 OA
ATOM     19  H   UNL     1      34.759  -9.815 160.772  0.00  0.00    +0.000 HD
ENDBRANCH  17  18
ENDBRANCH   5  12
BRANCH   6  20
ATOM     20  O   UNL     1      42.617  -8.890 164.532  0.00  0.00    +0.000 OA
ATOM     21  C   UNL     1      42.364 -10.233 164.875  0.00  0.00    +0.000 C 
ENDBRANCH   6  20
BRANCH   8  22
ATOM     22  O   UNL     1      36.955  -6.130 165.606  0.00  0.00    +0.000 OA
ATOM     23  H   UNL     1      36.816  -5.685 164.744  0.00  0.00    +0.000 HD
ENDBRANCH   8  22
BRANCH   9  24
ATOM     24  O   UNL     1      41.204  -5.375 168.562  0.00  0.00    +0.000 OA
ATOM     25  H   UNL     1      41.182  -4.460 168.203  0.00  0.00    +0.000 HD
ENDBRANCH   9  24
BRANCH  10  26
ATOM     26  O   UNL     1      44.456  -8.024 166.374  0.00  0.00    +0.000 OA
ATOM     27  H   UNL     1      44.640  -8.267 165.448  0.00  0.00    +0.000 HD
ENDBRANCH  10  26
TORSDOF 6
ENDMDL
MODEL 8
REMARK VINA RESULT:      -6.7     32.930     34.289
REMARK  Name = 5281698_sexangularetin.pdbqt.pdb
REMARK  6 active torsions:
REMARK  status: ('A' for Active; 'I' for Inactive)
REMARK    1  A    between atoms: C_5  and  C_12
REMARK    2  A    between atoms: C_6  and  O_20
REMARK    3  A    between atoms: C_8  and  O_22
REMARK    4  A    between atoms: C_9  and  O_24
REMARK    5  A    between atoms: C_10  and  O_26
REMARK    6  A    between atoms: C_17  and  O_18
REMARK                            x       y       z     vdW  Elec       q    Type
REMARK                         _______ _______ _______ _____ _____    ______ ____
ROOT
ATOM      1  O   UNL     1      41.981  -5.648 164.776  0.00  0.00    +0.000 OA
ATOM      2  O   UNL     1      42.371  -9.562 165.748  0.00  0.00    +0.000 OA
ATOM      3  C   UNL     1      40.992  -7.856 164.895  0.00  0.00    +0.000 A 
ATOM      4  C   UNL     1      40.919  -6.497 164.592  0.00  0.00    +0.000 A 
ATOM      5  C   UNL     1      43.160  -6.129 165.336  0.00  0.00    +0.000 A 
ATOM      6  C   UNL     1      39.733  -5.970 164.062  0.00  0.00    +0.000 A 
ATOM      7  C   UNL     1      42.238  -8.374 165.462  0.00  0.00    +0.000 A 
ATOM      8  C   UNL     1      43.347  -7.419 165.676  0.00  0.00    +0.000 A 
ATOM      9  C   UNL     1      39.899  -8.695 164.651  0.00  0.00    +0.000 A 
ATOM     10  C   UNL     1      38.660  -6.824 163.784  0.00  0.00    +0.000 A 
ATOM     11  C   UNL     1      38.736  -8.181 164.087  0.00  0.00    +0.000 A 
ENDROOT
BRANCH   5  12
ATOM     12  C   UNL     1      44.187  -5.081 165.500  0.00  0.00    +0.000 A 
ATOM     13  C   UNL     1      45.451  -5.253 164.921  0.00  0.00    +0.000 A 
ATOM     14  C   UNL     1      43.922  -3.878 166.162  0.00  0.00    +0.000 A 
ATOM     15  C   UNL     1      46.429  -4.266 165.018  0.00  0.00    +0.000 A 
ATOM     16  C   UNL     1      44.892  -2.883 166.269  0.00  0.00    +0.000 A 
ATOM     17  C   UNL     1      46.140  -3.087 165.694  0.00  0.00    +0.000 A 
BRANCH  17  18
ATOM     18  O   UNL     1      47.076  -2.100 165.808  0.00  0.00    +0.000 OA
ATOM     19  H   UNL     1      47.951  -2.520 165.886  0.00  0.00    +0.000 HD
ENDBRANCH  17  18
ENDBRANCH   5  12
BRANCH   6  20
ATOM     20  O   UNL     1      39.631  -4.643 163.722  0.00  0.00    +0.000 OA
ATOM     21  C   UNL     1      40.090  -4.420 162.409  0.00  0.00    +0.000 C 
ENDBRANCH   6  20
BRANCH   8  22
ATOM     22  O   UNL     1      44.521  -7.927 166.197  0.00  0.00    +0.000 OA
ATOM     23  H   UNL     1      44.714  -8.737 165.678  0.00  0.00    +0.000 HD
ENDBRANCH   8  22
BRANCH   9  24
ATOM     24  O   UNL     1      39.907 -10.035 164.922  0.00  0.00    +0.000 OA
ATOM     25  H   UNL     1      39.456 -10.512 164.190  0.00  0.00    +0.000 HD
ENDBRANCH   9  24
BRANCH  10  26
ATOM     26  O   UNL     1      37.532  -6.330 163.192  0.00  0.00    +0.000 OA
ATOM     27  H   UNL     1      36.944  -5.978 163.887  0.00  0.00    +0.000 HD
ENDBRANCH  10  26
TORSDOF 6
ENDMDL
MODEL 9
REMARK VINA RESULT:      -6.6     30.148     33.005
REMARK  Name = 5281698_sexangularetin.pdbqt.pdb
REMARK  6 active torsions:
REMARK  status: ('A' for Active; 'I' for Inactive)
REMARK    1  A    between atoms: C_5  and  C_12
REMARK    2  A    between atoms: C_6  and  O_20
REMARK    3  A    between atoms: C_8  and  O_22
REMARK    4  A    between atoms: C_9  and  O_24
REMARK    5  A    between atoms: C_10  and  O_26
REMARK    6  A    between atoms: C_17  and  O_18
REMARK                            x       y       z     vdW  Elec       q    Type
REMARK                         _______ _______ _______ _____ _____    ______ ____
ROOT
ATOM      1  O   UNL     1      40.934  -6.414 164.948  0.00  0.00    +0.000 OA
ATOM      2  O   UNL     1      38.711  -5.857 168.289  0.00  0.00    +0.000 OA
ATOM      3  C   UNL     1      38.751  -6.396 165.998  0.00  0.00    +0.000 A 
ATOM      4  C   UNL     1      39.571  -6.562 164.883  0.00  0.00    +0.000 A 
ATOM      5  C   UNL     1      41.530  -6.029 166.144  0.00  0.00    +0.000 A 
ATOM      6  C   UNL     1      38.999  -6.912 163.652  0.00  0.00    +0.000 A 
ATOM      7  C   UNL     1      39.375  -6.016 167.267  0.00  0.00    +0.000 A 
ATOM      8  C   UNL     1      40.843  -5.833 167.285  0.00  0.00    +0.000 A 
ATOM      9  C   UNL     1      37.371  -6.601 165.899  0.00  0.00    +0.000 A 
ATOM     10  C   UNL     1      37.623  -7.154 163.571  0.00  0.00    +0.000 A 
ATOM     11  C   UNL     1      36.807  -6.987 164.687  0.00  0.00    +0.000 A 
ENDROOT
BRANCH   5  12
ATOM     12  C   UNL     1      42.995  -5.879 166.033  0.00  0.00    +0.000 A 
ATOM     13  C   UNL     1      43.540  -4.638 165.681  0.00  0.00    +0.000 A 
ATOM     14  C   UNL     1      43.873  -6.924 166.335  0.00  0.00    +0.000 A 
ATOM     15  C   UNL     1      44.918  -4.449 165.609  0.00  0.00    +0.000 A 
ATOM     16  C   UNL     1      45.254  -6.750 166.265  0.00  0.00    +0.000 A 
ATOM     17  C   UNL     1      45.766  -5.511 165.902  0.00  0.00    +0.000 A 
BRANCH  17  18
ATOM     18  O   UNL     1      47.120  -5.360 165.841  0.00  0.00    +0.000 OA
ATOM     19  H   UNL     1      47.391  -4.761 166.560  0.00  0.00    +0.000 HD
ENDBRANCH  17  18
ENDBRANCH   5  12
BRANCH   6  20
ATOM     20  O   UNL     1      39.776  -7.115 162.537  0.00  0.00    +0.000 OA
ATOM     21  C   UNL     1      40.226  -8.448 162.468  0.00  0.00    +0.000 C 
ENDBRANCH   6  20
BRANCH   8  22
ATOM     22  O   UNL     1      41.417  -5.489 168.494  0.00  0.00    +0.000 OA
ATOM     23  H   UNL     1      41.687  -4.550 168.402  0.00  0.00    +0.000 HD
ENDBRANCH   8  22
BRANCH   9  24
ATOM     24  O   UNL     1      36.513  -6.457 166.955  0.00  0.00    +0.000 OA
ATOM     25  H   UNL     1      36.634  -5.561 167.344  0.00  0.00    +0.000 HD
ENDBRANCH   9  24
BRANCH  10  26
ATOM     26  O   UNL     1      37.074  -7.573 162.393  0.00  0.00    +0.000 OA
ATOM     27  H   UNL     1      36.383  -6.938 162.127  0.00  0.00    +0.000 HD
ENDBRANCH  10  26
TORSDOF 6
ENDMDL
