MODEL 1
REMARK VINA RESULT:      -8.2      0.000      0.000
REMARK  Name = 5289155_Peridinin.pdbqt.pdb
REMARK  13 active torsions:
REMARK  status: ('A' for Active; 'I' for Inactive)
REMARK    1  A    between atoms: C_1  and  C_3
REMARK    2  A    between atoms: C_3  and  C_25
REMARK    3  A    between atoms: C_6  and  C_12
REMARK    4  A    between atoms: C_11  and  C_14
REMARK    5  A    between atoms: C_19  and  O_23
REMARK    6  A    between atoms: C_26  and  C_28
REMARK    7  A    between atoms: C_27  and  C_31
REMARK    8  A    between atoms: C_29  and  C_31
REMARK    9  A    between atoms: C_29  and  C_42
REMARK   10  A    between atoms: C_33  and  O_43
REMARK   11  A    between atoms: C_35  and  O_45
REMARK   12  A    between atoms: C_37  and  C_41
REMARK   13  A    between atoms: O_45  and  C_47
REMARK                            x       y       z     vdW  Elec       q    Type
REMARK                         _______ _______ _______ _____ _____    ______ ____
ROOT
ATOM      1  C   UNL     1      11.931 -10.803 178.892  0.00  0.00    +0.000 C 
ENDROOT
BRANCH   1   2
ATOM      2  C   UNL     1      12.347 -11.837 178.231  0.00  0.00    +0.000 C 
ATOM      3  C   UNL     1      12.433 -11.791 176.736  0.00  0.00    +0.000 C 
ATOM      4  O   UNL     1      12.584 -14.362 180.792  0.00  0.00    +0.000 OA
ATOM      5  O   UNL     1      12.604 -16.374 181.944  0.00  0.00    +0.000 OA
ATOM      6  C   UNL     1      13.589 -16.181 179.747  0.00  0.00    +0.000 C 
ATOM      7  C   UNL     1      13.698 -15.185 178.945  0.00  0.00    +0.000 C 
ATOM      8  C   UNL     1      12.886 -15.709 180.963  0.00  0.00    +0.000 C 
ATOM      9  C   UNL     1      13.134 -14.065 179.549  0.00  0.00    +0.000 C 
ATOM     10  C   UNL     1      12.757 -13.000 178.921  0.00  0.00    +0.000 C 
BRANCH   6  12
ATOM     11  C   UNL     1      14.460 -18.586 179.235  0.00  0.00    +0.000 C 
ATOM     12  C   UNL     1      14.055 -17.479 179.467  0.00  0.00    +0.000 C 
BRANCH  11  14
ATOM     13  O   UNL     1      15.156 -20.648 180.207  0.00  0.00    +0.000 OA
ATOM     14  C   UNL     1      14.961 -19.923 178.959  0.00  0.00    +0.000 C 
ATOM     15  C   UNL     1      14.116 -21.147 179.370  0.00  0.00    +0.000 C 
ATOM     16  C   UNL     1      16.057 -20.123 177.855  0.00  0.00    +0.000 C 
ATOM     17  C   UNL     1      14.453 -22.403 178.780  0.00  0.00    +0.000 C 
ATOM     18  C   UNL     1      16.136 -21.561 177.583  0.00  0.00    +0.000 C 
ATOM     19  C   UNL     1      15.471 -22.766 177.880  0.00  0.00    +0.000 C 
ATOM     20  C   UNL     1      12.722 -21.040 179.995  0.00  0.00    +0.000 C 
ATOM     21  C   UNL     1      15.541 -19.357 176.608  0.00  0.00    +0.000 C 
ATOM     22  C   UNL     1      17.366 -19.530 178.421  0.00  0.00    +0.000 C 
BRANCH  19  23
ATOM     23  O   UNL     1      15.309 -23.739 176.941  0.00  0.00    +0.000 OA
ATOM     24  H   UNL     1      14.440 -24.175 177.004  0.00  0.00    +0.000 HD
ENDBRANCH  19  23
ENDBRANCH  11  14
ENDBRANCH   6  12
ENDBRANCH   1   2
BRANCH   1  25
ATOM     25  C   UNL     1      11.439  -9.579 179.673  0.00  0.00    +0.000 C 
ATOM     26  C   UNL     1      11.050  -8.625 180.287  0.00  0.00    +0.000 C 
BRANCH  26  28
ATOM     27  C   UNL     1      10.150  -6.457 181.684  0.00  0.00    +0.000 C 
ATOM     28  C   UNL     1      10.547  -7.410 181.073  0.00  0.00    +0.000 C 
BRANCH  27  29
ATOM     29  C   UNL     1       9.641  -5.235 182.459  0.00  0.00    +0.000 C 
BRANCH  29  30
ATOM     30  C   UNL     1       9.216  -4.197 183.106  0.00  0.00    +0.000 C 
ATOM     31  C   UNL     1       8.654  -3.021 182.366  0.00  0.00    +0.000 C 
BRANCH  30  33
ATOM     32  C   UNL     1       9.429  -4.105 185.716  0.00  0.00    +0.000 C 
ATOM     33  C   UNL     1       9.333  -4.147 184.518  0.00  0.00    +0.000 C 
BRANCH  32  39
ATOM     34  C   UNL     1       8.338  -4.354 187.959  0.00  0.00    +0.000 C 
ATOM     35  C   UNL     1      10.832  -3.660 187.704  0.00  0.00    +0.000 C 
ATOM     36  C   UNL     1       8.780  -4.542 189.348  0.00  0.00    +0.000 C 
ATOM     37  C   UNL     1       9.959  -4.446 190.116  0.00  0.00    +0.000 C 
ATOM     38  C   UNL     1      10.855  -4.005 189.121  0.00  0.00    +0.000 C 
ATOM     39  C   UNL     1       9.530  -4.062 187.030  0.00  0.00    +0.000 C 
ATOM     40  C   UNL     1       7.638  -5.668 187.495  0.00  0.00    +0.000 C 
ATOM     41  C   UNL     1       7.343  -3.165 187.877  0.00  0.00    +0.000 C 
ATOM     42  C   UNL     1      11.125  -2.173 187.487  0.00  0.00    +0.000 C 
BRANCH  35  43
ATOM     43  O   UNL     1      11.903  -4.337 187.082  0.00  0.00    +0.000 OA
ATOM     44  H   UNL     1      12.627  -3.693 187.192  0.00  0.00    +0.000 HD
ENDBRANCH  35  43
BRANCH  37  45
ATOM     45  O   UNL     1       9.911  -3.811 191.350  0.00  0.00    +0.000 OA
BRANCH  45  47
ATOM     46  O   UNL     1      11.705  -5.085 192.162  0.00  0.00    +0.000 OA
ATOM     47  C   UNL     1      11.045  -4.070 192.046  0.00  0.00    +0.000 C 
ATOM     48  C   UNL     1      11.567  -2.906 192.813  0.00  0.00    +0.000 C 
ENDBRANCH  45  47
ENDBRANCH  37  45
ENDBRANCH  32  39
ENDBRANCH  30  33
ENDBRANCH  29  30
ENDBRANCH  27  29
ENDBRANCH  26  28
ENDBRANCH   1  25
TORSDOF 13
ENDMDL
MODEL 2
REMARK VINA RESULT:      -7.7     37.706     39.848
REMARK  Name = 5289155_Peridinin.pdbqt.pdb
REMARK  13 active torsions:
REMARK  status: ('A' for Active; 'I' for Inactive)
REMARK    1  A    between atoms: C_1  and  C_3
REMARK    2  A    between atoms: C_3  and  C_25
REMARK    3  A    between atoms: C_6  and  C_12
REMARK    4  A    between atoms: C_11  and  C_14
REMARK    5  A    between atoms: C_19  and  O_23
REMARK    6  A    between atoms: C_26  and  C_28
REMARK    7  A    between atoms: C_27  and  C_31
REMARK    8  A    between atoms: C_29  and  C_31
REMARK    9  A    between atoms: C_29  and  C_42
REMARK   10  A    between atoms: C_33  and  O_43
REMARK   11  A    between atoms: C_35  and  O_45
REMARK   12  A    between atoms: C_37  and  C_41
REMARK   13  A    between atoms: O_45  and  C_47
REMARK                            x       y       z     vdW  Elec       q    Type
REMARK                         _______ _______ _______ _____ _____    ______ ____
ROOT
ATOM      1  C   UNL     1      48.909  -2.064 179.849  0.00  0.00    +0.000 C 
ENDROOT
BRANCH   1   2
ATOM      2  C   UNL     1      49.555  -3.130 180.203  0.00  0.00    +0.000 C 
ATOM      3  C   UNL     1      48.830  -4.273 180.843  0.00  0.00    +0.000 C 
ATOM      4  O   UNL     1      52.990  -2.180 179.662  0.00  0.00    +0.000 OA
ATOM      5  O   UNL     1      55.295  -1.981 179.799  0.00  0.00    +0.000 OA
ATOM      6  C   UNL     1      54.210  -4.129 180.010  0.00  0.00    +0.000 C 
ATOM      7  C   UNL     1      52.974  -4.470 179.960  0.00  0.00    +0.000 C 
ATOM      8  C   UNL     1      54.286  -2.662 179.815  0.00  0.00    +0.000 C 
ATOM      9  C   UNL     1      52.210  -3.331 179.721  0.00  0.00    +0.000 C 
ATOM     10  C   UNL     1      50.942  -3.232 179.952  0.00  0.00    +0.000 C 
BRANCH   6  12
ATOM     11  C   UNL     1      56.182  -5.789 180.414  0.00  0.00    +0.000 C 
ATOM     12  C   UNL     1      55.271  -5.027 180.232  0.00  0.00    +0.000 C 
BRANCH  11  14
ATOM     13  O   UNL     1      58.051  -6.858 179.392  0.00  0.00    +0.000 OA
ATOM     14  C   UNL     1      57.288  -6.710 180.624  0.00  0.00    +0.000 C 
ATOM     15  C   UNL     1      58.736  -6.203 180.456  0.00  0.00    +0.000 C 
ATOM     16  C   UNL     1      57.057  -8.014 181.464  0.00  0.00    +0.000 C 
ATOM     17  C   UNL     1      59.778  -7.010 181.005  0.00  0.00    +0.000 C 
ATOM     18  C   UNL     1      58.379  -8.570 181.767  0.00  0.00    +0.000 C 
ATOM     19  C   UNL     1      59.746  -8.248 181.670  0.00  0.00    +0.000 C 
ATOM     20  C   UNL     1      59.091  -4.745 180.153  0.00  0.00    +0.000 C 
ATOM     21  C   UNL     1      56.345  -7.554 182.764  0.00  0.00    +0.000 C 
ATOM     22  C   UNL     1      56.179  -8.945 180.600  0.00  0.00    +0.000 C 
BRANCH  19  23
ATOM     23  O   UNL     1      60.625  -8.575 182.659  0.00  0.00    +0.000 OA
ATOM     24  H   UNL     1      60.178  -8.774 183.501  0.00  0.00    +0.000 HD
ENDBRANCH  19  23
ENDBRANCH  11  14
ENDBRANCH   6  12
ENDBRANCH   1   2
BRANCH   1  25
ATOM     25  C   UNL     1      48.144  -0.802 179.431  0.00  0.00    +0.000 C 
ATOM     26  C   UNL     1      47.544   0.185 179.110  0.00  0.00    +0.000 C 
BRANCH  26  28
ATOM     27  C   UNL     1      46.174   2.438 178.395  0.00  0.00    +0.000 C 
ATOM     28  C   UNL     1      46.774   1.447 178.706  0.00  0.00    +0.000 C 
BRANCH  27  29
ATOM     29  C   UNL     1      45.406   3.706 178.004  0.00  0.00    +0.000 C 
BRANCH  29  30
ATOM     30  C   UNL     1      44.764   4.784 177.680  0.00  0.00    +0.000 C 
ATOM     31  C   UNL     1      45.043   6.074 178.390  0.00  0.00    +0.000 C 
BRANCH  30  33
ATOM     32  C   UNL     1      42.897   4.688 175.844  0.00  0.00    +0.000 C 
ATOM     33  C   UNL     1      43.753   4.733 176.687  0.00  0.00    +0.000 C 
BRANCH  32  39
ATOM     34  C   UNL     1      41.840   3.461 173.931  0.00  0.00    +0.000 C 
ATOM     35  C   UNL     1      40.958   5.767 174.751  0.00  0.00    +0.000 C 
ATOM     36  C   UNL     1      40.550   3.487 173.227  0.00  0.00    +0.000 C 
ATOM     37  C   UNL     1      39.413   4.312 173.110  0.00  0.00    +0.000 C 
ATOM     38  C   UNL     1      39.808   5.380 173.942  0.00  0.00    +0.000 C 
ATOM     39  C   UNL     1      41.956   4.633 174.923  0.00  0.00    +0.000 C 
ATOM     40  C   UNL     1      41.932   2.116 174.716  0.00  0.00    +0.000 C 
ATOM     41  C   UNL     1      43.003   3.559 172.908  0.00  0.00    +0.000 C 
ATOM     42  C   UNL     1      41.642   7.017 174.188  0.00  0.00    +0.000 C 
BRANCH  35  43
ATOM     43  O   UNL     1      40.477   6.156 176.020  0.00  0.00    +0.000 OA
ATOM     44  H   UNL     1      39.733   6.736 175.773  0.00  0.00    +0.000 HD
ENDBRANCH  35  43
BRANCH  37  45
ATOM     45  O   UNL     1      38.886   4.562 171.849  0.00  0.00    +0.000 OA
BRANCH  45  47
ATOM     46  O   UNL     1      36.626   4.276 172.405  0.00  0.00    +0.000 OA
ATOM     47  C   UNL     1      37.575   4.889 171.953  0.00  0.00    +0.000 C 
ATOM     48  C   UNL     1      37.236   6.230 171.406  0.00  0.00    +0.000 C 
ENDBRANCH  45  47
ENDBRANCH  37  45
ENDBRANCH  32  39
ENDBRANCH  30  33
ENDBRANCH  29  30
ENDBRANCH  27  29
ENDBRANCH  26  28
ENDBRANCH   1  25
TORSDOF 13
ENDMDL
MODEL 3
REMARK VINA RESULT:      -7.5     20.576     24.518
REMARK  Name = 5289155_Peridinin.pdbqt.pdb
REMARK  13 active torsions:
REMARK  status: ('A' for Active; 'I' for Inactive)
REMARK    1  A    between atoms: C_1  and  C_3
REMARK    2  A    between atoms: C_3  and  C_25
REMARK    3  A    between atoms: C_6  and  C_12
REMARK    4  A    between atoms: C_11  and  C_14
REMARK    5  A    between atoms: C_19  and  O_23
REMARK    6  A    between atoms: C_26  and  C_28
REMARK    7  A    between atoms: C_27  and  C_31
REMARK    8  A    between atoms: C_29  and  C_31
REMARK    9  A    between atoms: C_29  and  C_42
REMARK   10  A    between atoms: C_33  and  O_43
REMARK   11  A    between atoms: C_35  and  O_45
REMARK   12  A    between atoms: C_37  and  C_41
REMARK   13  A    between atoms: O_45  and  C_47
REMARK                            x       y       z     vdW  Elec       q    Type
REMARK                         _______ _______ _______ _____ _____    ______ ____
ROOT
ATOM      1  C   UNL     1      31.898   0.971 190.310  0.00  0.00    +0.000 C 
ENDROOT
BRANCH   1   2
ATOM      2  C   UNL     1      33.177   0.969 190.513  0.00  0.00    +0.000 C 
ATOM      3  C   UNL     1      33.999   2.168 190.150  0.00  0.00    +0.000 C 
ATOM      4  O   UNL     1      33.809  -2.436 191.511  0.00  0.00    +0.000 OA
ATOM      5  O   UNL     1      34.785  -4.506 191.879  0.00  0.00    +0.000 OA
ATOM      6  C   UNL     1      36.041  -2.463 192.164  0.00  0.00    +0.000 C 
ATOM      7  C   UNL     1      35.710  -1.231 192.026  0.00  0.00    +0.000 C 
ATOM      8  C   UNL     1      34.852  -3.290 191.854  0.00  0.00    +0.000 C 
ATOM      9  C   UNL     1      34.367  -1.171 191.664  0.00  0.00    +0.000 C 
ATOM     10  C   UNL     1      33.797  -0.150 191.113  0.00  0.00    +0.000 C 
BRANCH   6  12
ATOM     11  C   UNL     1      38.422  -3.282 192.849  0.00  0.00    +0.000 C 
ATOM     12  C   UNL     1      37.327  -2.902 192.529  0.00  0.00    +0.000 C 
BRANCH  11  14
ATOM     13  O   UNL     1      40.208  -2.988 194.399  0.00  0.00    +0.000 OA
ATOM     14  C   UNL     1      39.742  -3.745 193.245  0.00  0.00    +0.000 C 
ATOM     15  C   UNL     1      39.937  -4.366 194.645  0.00  0.00    +0.000 C 
ATOM     16  C   UNL     1      40.810  -4.067 192.142  0.00  0.00    +0.000 C 
ATOM     17  C   UNL     1      41.129  -5.120 194.865  0.00  0.00    +0.000 C 
ATOM     18  C   UNL     1      41.901  -4.791 192.799  0.00  0.00    +0.000 C 
ATOM     19  C   UNL     1      42.226  -5.394 194.029  0.00  0.00    +0.000 C 
ATOM     20  C   UNL     1      38.790  -4.599 195.633  0.00  0.00    +0.000 C 
ATOM     21  C   UNL     1      40.088  -4.978 191.114  0.00  0.00    +0.000 C 
ATOM     22  C   UNL     1      41.243  -2.712 191.540  0.00  0.00    +0.000 C 
BRANCH  19  23
ATOM     23  O   UNL     1      42.919  -6.565 194.086  0.00  0.00    +0.000 OA
ATOM     24  H   UNL     1      43.828  -6.443 194.415  0.00  0.00    +0.000 HD
ENDBRANCH  19  23
ENDBRANCH  11  14
ENDBRANCH   6  12
ENDBRANCH   1   2
BRANCH   1  25
ATOM     25  C   UNL     1      30.383   0.971 190.069  0.00  0.00    +0.000 C 
ATOM     26  C   UNL     1      29.198   0.971 189.886  0.00  0.00    +0.000 C 
BRANCH  26  28
ATOM     27  C   UNL     1      26.496   0.965 189.485  0.00  0.00    +0.000 C 
ATOM     28  C   UNL     1      27.682   0.971 189.661  0.00  0.00    +0.000 C 
BRANCH  27  29
ATOM     29  C   UNL     1      24.979   0.950 189.258  0.00  0.00    +0.000 C 
BRANCH  29  30
ATOM     30  C   UNL     1      23.700   0.934 189.056  0.00  0.00    +0.000 C 
ATOM     31  C   UNL     1      23.145   1.217 187.692  0.00  0.00    +0.000 C 
BRANCH  30  33
ATOM     32  C   UNL     1      22.064   0.504 191.057  0.00  0.00    +0.000 C 
ATOM     33  C   UNL     1      22.816   0.701 190.140  0.00  0.00    +0.000 C 
BRANCH  32  39
ATOM     34  C   UNL     1      20.063   1.218 192.386  0.00  0.00    +0.000 C 
ATOM     35  C   UNL     1      21.446  -0.899 192.998  0.00  0.00    +0.000 C 
ATOM     36  C   UNL     1      19.133   0.593 193.337  0.00  0.00    +0.000 C 
ATOM     37  C   UNL     1      19.031  -0.573 194.122  0.00  0.00    +0.000 C 
ATOM     38  C   UNL     1      20.266  -1.178 193.809  0.00  0.00    +0.000 C 
ATOM     39  C   UNL     1      21.240   0.281 192.061  0.00  0.00    +0.000 C 
ATOM     40  C   UNL     1      19.276   1.524 191.075  0.00  0.00    +0.000 C 
ATOM     41  C   UNL     1      20.627   2.534 192.985  0.00  0.00    +0.000 C 
ATOM     42  C   UNL     1      22.687  -0.693 193.872  0.00  0.00    +0.000 C 
BRANCH  35  43
ATOM     43  O   UNL     1      21.723  -2.053 192.236  0.00  0.00    +0.000 OA
ATOM     44  H   UNL     1      21.513  -2.760 192.874  0.00  0.00    +0.000 HD
ENDBRANCH  35  43
BRANCH  37  45
ATOM     45  O   UNL     1      18.618  -0.464 195.444  0.00  0.00    +0.000 OA
BRANCH  45  47
ATOM     46  O   UNL     1      20.356   0.668 196.540  0.00  0.00    +0.000 OA
ATOM     47  C   UNL     1      19.694  -0.313 196.254  0.00  0.00    +0.000 C 
ATOM     48  C   UNL     1      20.155  -1.574 196.896  0.00  0.00    +0.000 C 
ENDBRANCH  45  47
ENDBRANCH  37  45
ENDBRANCH  32  39
ENDBRANCH  30  33
ENDBRANCH  29  30
ENDBRANCH  27  29
ENDBRANCH  26  28
ENDBRANCH   1  25
TORSDOF 13
ENDMDL
MODEL 4
REMARK VINA RESULT:      -7.4     19.376     26.052
REMARK  Name = 5289155_Peridinin.pdbqt.pdb
REMARK  13 active torsions:
REMARK  status: ('A' for Active; 'I' for Inactive)
REMARK    1  A    between atoms: C_1  and  C_3
REMARK    2  A    between atoms: C_3  and  C_25
REMARK    3  A    between atoms: C_6  and  C_12
REMARK    4  A    between atoms: C_11  and  C_14
REMARK    5  A    between atoms: C_19  and  O_23
REMARK    6  A    between atoms: C_26  and  C_28
REMARK    7  A    between atoms: C_27  and  C_31
REMARK    8  A    between atoms: C_29  and  C_31
REMARK    9  A    between atoms: C_29  and  C_42
REMARK   10  A    between atoms: C_33  and  O_43
REMARK   11  A    between atoms: C_35  and  O_45
REMARK   12  A    between atoms: C_37  and  C_41
REMARK   13  A    between atoms: O_45  and  C_47
REMARK                            x       y       z     vdW  Elec       q    Type
REMARK                         _______ _______ _______ _____ _____    ______ ____
ROOT
ATOM      1  C   UNL     1      30.769  -0.189 192.060  0.00  0.00    +0.000 C 
ENDROOT
BRANCH   1   2
ATOM      2  C   UNL     1      30.074   0.762 191.518  0.00  0.00    +0.000 C 
ATOM      3  C   UNL     1      30.731   2.054 191.143  0.00  0.00    +0.000 C 
ATOM      4  O   UNL     1      26.703  -0.488 191.771  0.00  0.00    +0.000 OA
ATOM      5  O   UNL     1      24.400  -0.664 191.966  0.00  0.00    +0.000 OA
ATOM      6  C   UNL     1      25.412   1.031 190.573  0.00  0.00    +0.000 C 
ATOM      7  C   UNL     1      26.638   1.303 190.315  0.00  0.00    +0.000 C 
ATOM      8  C   UNL     1      25.388  -0.124 191.502  0.00  0.00    +0.000 C 
ATOM      9  C   UNL     1      27.446   0.393 190.991  0.00  0.00    +0.000 C 
ATOM     10  C   UNL     1      28.702   0.568 191.245  0.00  0.00    +0.000 C 
BRANCH   6  12
ATOM     11  C   UNL     1      23.373   2.351 189.620  0.00  0.00    +0.000 C 
ATOM     12  C   UNL     1      24.315   1.745 190.055  0.00  0.00    +0.000 C 
BRANCH  11  14
ATOM     13  O   UNL     1      21.167   2.140 188.743  0.00  0.00    +0.000 OA
ATOM     14  C   UNL     1      22.226   3.075 189.097  0.00  0.00    +0.000 C 
ATOM     15  C   UNL     1      20.878   2.998 189.843  0.00  0.00    +0.000 C 
ATOM     16  C   UNL     1      22.455   4.276 188.114  0.00  0.00    +0.000 C 
ATOM     17  C   UNL     1      19.893   3.980 189.518  0.00  0.00    +0.000 C 
ATOM     18  C   UNL     1      21.181   4.992 188.006  0.00  0.00    +0.000 C 
ATOM     19  C   UNL     1      19.899   5.032 188.586  0.00  0.00    +0.000 C 
ATOM     20  C   UNL     1      20.687   2.254 191.168  0.00  0.00    +0.000 C 
ATOM     21  C   UNL     1      23.530   5.170 188.788  0.00  0.00    +0.000 C 
ATOM     22  C   UNL     1      22.936   3.668 186.779  0.00  0.00    +0.000 C 
BRANCH  19  23
ATOM     23  O   UNL     1      19.254   6.212 188.806  0.00  0.00    +0.000 OA
ATOM     24  H   UNL     1      18.478   6.109 189.384  0.00  0.00    +0.000 HD
ENDBRANCH  19  23
ENDBRANCH  11  14
ENDBRANCH   6  12
ENDBRANCH   1   2
BRANCH   1  25
ATOM     25  C   UNL     1      31.590  -1.313 192.701  0.00  0.00    +0.000 C 
ATOM     26  C   UNL     1      32.229  -2.197 193.202  0.00  0.00    +0.000 C 
BRANCH  26  28
ATOM     27  C   UNL     1      33.670  -4.218 194.340  0.00  0.00    +0.000 C 
ATOM     28  C   UNL     1      33.040  -3.330 193.838  0.00  0.00    +0.000 C 
BRANCH  27  29
ATOM     29  C   UNL     1      34.474  -5.352 194.989  0.00  0.00    +0.000 C 
BRANCH  29  30
ATOM     30  C   UNL     1      35.157  -6.303 195.544  0.00  0.00    +0.000 C 
ATOM     31  C   UNL     1      36.574  -6.067 195.972  0.00  0.00    +0.000 C 
BRANCH  30  33
ATOM     32  C   UNL     1      34.095  -8.681 195.833  0.00  0.00    +0.000 C 
ATOM     33  C   UNL     1      34.581  -7.589 195.699  0.00  0.00    +0.000 C 
BRANCH  32  39
ATOM     34  C   UNL     1      34.411 -11.137 196.221  0.00  0.00    +0.000 C 
ATOM     35  C   UNL     1      32.058 -10.082 195.876  0.00  0.00    +0.000 C 
ATOM     36  C   UNL     1      33.578 -12.265 196.659  0.00  0.00    +0.000 C 
ATOM     37  C   UNL     1      32.216 -12.579 196.845  0.00  0.00    +0.000 C 
ATOM     38  C   UNL     1      31.633 -11.372 196.411  0.00  0.00    +0.000 C 
ATOM     39  C   UNL     1      33.560  -9.876 195.985  0.00  0.00    +0.000 C 
ATOM     40  C   UNL     1      35.456 -10.846 197.341  0.00  0.00    +0.000 C 
ATOM     41  C   UNL     1      35.138 -11.499 194.898  0.00  0.00    +0.000 C 
ATOM     42  C   UNL     1      31.582  -9.893 194.433  0.00  0.00    +0.000 C 
BRANCH  35  43
ATOM     43  O   UNL     1      31.397  -9.076 196.613  0.00  0.00    +0.000 OA
ATOM     44  H   UNL     1      31.956  -9.024 197.411  0.00  0.00    +0.000 HD
ENDBRANCH  35  43
BRANCH  37  45
ATOM     45  O   UNL     1      31.735 -13.798 196.384  0.00  0.00    +0.000 OA
BRANCH  45  47
ATOM     46  O   UNL     1      29.464 -14.052 196.911  0.00  0.00    +0.000 OA
ATOM     47  C   UNL     1      30.657 -14.175 197.114  0.00  0.00    +0.000 C 
ATOM     48  C   UNL     1      30.996 -14.847 198.398  0.00  0.00    +0.000 C 
ENDBRANCH  45  47
ENDBRANCH  37  45
ENDBRANCH  32  39
ENDBRANCH  30  33
ENDBRANCH  29  30
ENDBRANCH  27  29
ENDBRANCH  26  28
ENDBRANCH   1  25
TORSDOF 13
ENDMDL
MODEL 5
REMARK VINA RESULT:      -7.4     29.036     32.029
REMARK  Name = 5289155_Peridinin.pdbqt.pdb
REMARK  13 active torsions:
REMARK  status: ('A' for Active; 'I' for Inactive)
REMARK    1  A    between atoms: C_1  and  C_3
REMARK    2  A    between atoms: C_3  and  C_25
REMARK    3  A    between atoms: C_6  and  C_12
REMARK    4  A    between atoms: C_11  and  C_14
REMARK    5  A    between atoms: C_19  and  O_23
REMARK    6  A    between atoms: C_26  and  C_28
REMARK    7  A    between atoms: C_27  and  C_31
REMARK    8  A    between atoms: C_29  and  C_31
REMARK    9  A    between atoms: C_29  and  C_42
REMARK   10  A    between atoms: C_33  and  O_43
REMARK   11  A    between atoms: C_35  and  O_45
REMARK   12  A    between atoms: C_37  and  C_41
REMARK   13  A    between atoms: O_45  and  C_47
REMARK                            x       y       z     vdW  Elec       q    Type
REMARK                         _______ _______ _______ _____ _____    ______ ____
ROOT
ATOM      1  C   UNL     1      36.799 -28.298 175.813  0.00  0.00    +0.000 C 
ENDROOT
BRANCH   1   2
ATOM      2  C   UNL     1      37.338 -27.752 174.768  0.00  0.00    +0.000 C 
ATOM      3  C   UNL     1      37.471 -28.529 173.496  0.00  0.00    +0.000 C 
ATOM      4  O   UNL     1      38.563 -24.620 176.066  0.00  0.00    +0.000 OA
ATOM      5  O   UNL     1      39.792 -22.690 176.439  0.00  0.00    +0.000 OA
ATOM      6  C   UNL     1      39.303 -23.448 174.198  0.00  0.00    +0.000 C 
ATOM      7  C   UNL     1      38.648 -24.462 173.764  0.00  0.00    +0.000 C 
ATOM      8  C   UNL     1      39.276 -23.490 175.679  0.00  0.00    +0.000 C 
ATOM      9  C   UNL     1      38.160 -25.175 174.855  0.00  0.00    +0.000 C 
ATOM     10  C   UNL     1      37.768 -26.406 174.816  0.00  0.00    +0.000 C 
BRANCH   6  12
ATOM     11  C   UNL     1      40.471 -21.695 172.659  0.00  0.00    +0.000 C 
ATOM     12  C   UNL     1      39.935 -22.500 173.372  0.00  0.00    +0.000 C 
BRANCH  11  14
ATOM     13  O   UNL     1      41.748 -21.412 170.667  0.00  0.00    +0.000 OA
ATOM     14  C   UNL     1      41.117 -20.727 171.787  0.00  0.00    +0.000 C 
ATOM     15  C   UNL     1      40.638 -20.585 170.327  0.00  0.00    +0.000 C 
ATOM     16  C   UNL     1      41.918 -19.535 172.418  0.00  0.00    +0.000 C 
ATOM     17  C   UNL     1      41.035 -19.410 169.620  0.00  0.00    +0.000 C 
ATOM     18  C   UNL     1      42.182 -18.577 171.341  0.00  0.00    +0.000 C 
ATOM     19  C   UNL     1      41.841 -18.323 169.999  0.00  0.00    +0.000 C 
ATOM     20  C   UNL     1      39.450 -21.360 169.749  0.00  0.00    +0.000 C 
ATOM     21  C   UNL     1      40.975 -18.915 173.484  0.00  0.00    +0.000 C 
ATOM     22  C   UNL     1      43.198 -20.140 173.034  0.00  0.00    +0.000 C 
BRANCH  19  23
ATOM     23  O   UNL     1      41.625 -17.055 169.548  0.00  0.00    +0.000 OA
ATOM     24  H   UNL     1      41.850 -16.953 168.606  0.00  0.00    +0.000 HD
ENDBRANCH  19  23
ENDBRANCH  11  14
ENDBRANCH   6  12
ENDBRANCH   1   2
BRANCH   1  25
ATOM     25  C   UNL     1      36.163 -28.945 177.048  0.00  0.00    +0.000 C 
ATOM     26  C   UNL     1      35.662 -29.455 178.012  0.00  0.00    +0.000 C 
BRANCH  26  28
ATOM     27  C   UNL     1      34.516 -30.631 180.195  0.00  0.00    +0.000 C 
ATOM     28  C   UNL     1      35.019 -30.112 179.238  0.00  0.00    +0.000 C 
BRANCH  27  29
ATOM     29  C   UNL     1      33.869 -31.300 181.414  0.00  0.00    +0.000 C 
BRANCH  29  30
ATOM     30  C   UNL     1      33.332 -31.864 182.449  0.00  0.00    +0.000 C 
ATOM     31  C   UNL     1      32.304 -32.942 182.277  0.00  0.00    +0.000 C 
BRANCH  30  33
ATOM     32  C   UNL     1      33.969 -31.054 184.858  0.00  0.00    +0.000 C 
ATOM     33  C   UNL     1      33.677 -31.424 183.752  0.00  0.00    +0.000 C 
BRANCH  32  39
ATOM     34  C   UNL     1      35.239 -31.456 186.982  0.00  0.00    +0.000 C 
ATOM     35  C   UNL     1      33.697 -29.385 186.663  0.00  0.00    +0.000 C 
ATOM     36  C   UNL     1      35.676 -30.655 188.134  0.00  0.00    +0.000 C 
ATOM     37  C   UNL     1      35.423 -29.397 188.718  0.00  0.00    +0.000 C 
ATOM     38  C   UNL     1      34.425 -28.925 187.841  0.00  0.00    +0.000 C 
ATOM     39  C   UNL     1      34.293 -30.652 186.071  0.00  0.00    +0.000 C 
ATOM     40  C   UNL     1      36.507 -31.862 186.170  0.00  0.00    +0.000 C 
ATOM     41  C   UNL     1      34.494 -32.726 187.472  0.00  0.00    +0.000 C 
ATOM     42  C   UNL     1      32.207 -29.571 186.966  0.00  0.00    +0.000 C 
BRANCH  35  43
ATOM     43  O   UNL     1      33.748 -28.355 185.700  0.00  0.00    +0.000 OA
ATOM     44  H   UNL     1      34.153 -28.819 184.944  0.00  0.00    +0.000 HD
ENDBRANCH  35  43
BRANCH  37  45
ATOM     45  O   UNL     1      35.246 -29.315 190.093  0.00  0.00    +0.000 OA
BRANCH  45  47
ATOM     46  O   UNL     1      37.348 -28.932 191.062  0.00  0.00    +0.000 OA
ATOM     47  C   UNL     1      36.255 -28.597 190.645  0.00  0.00    +0.000 C 
ATOM     48  C   UNL     1      35.967 -27.142 190.775  0.00  0.00    +0.000 C 
ENDBRANCH  45  47
ENDBRANCH  37  45
ENDBRANCH  32  39
ENDBRANCH  30  33
ENDBRANCH  29  30
ENDBRANCH  27  29
ENDBRANCH  26  28
ENDBRANCH   1  25
TORSDOF 13
ENDMDL
MODEL 6
REMARK VINA RESULT:      -7.3      3.446      5.853
REMARK  Name = 5289155_Peridinin.pdbqt.pdb
REMARK  13 active torsions:
REMARK  status: ('A' for Active; 'I' for Inactive)
REMARK    1  A    between atoms: C_1  and  C_3
REMARK    2  A    between atoms: C_3  and  C_25
REMARK    3  A    between atoms: C_6  and  C_12
REMARK    4  A    between atoms: C_11  and  C_14
REMARK    5  A    between atoms: C_19  and  O_23
REMARK    6  A    between atoms: C_26  and  C_28
REMARK    7  A    between atoms: C_27  and  C_31
REMARK    8  A    between atoms: C_29  and  C_31
REMARK    9  A    between atoms: C_29  and  C_42
REMARK   10  A    between atoms: C_33  and  O_43
REMARK   11  A    between atoms: C_35  and  O_45
REMARK   12  A    between atoms: C_37  and  C_41
REMARK   13  A    between atoms: O_45  and  C_47
REMARK                            x       y       z     vdW  Elec       q    Type
REMARK                         _______ _______ _______ _____ _____    ______ ____
ROOT
ATOM      1  C   UNL     1      11.999 -10.731 179.382  0.00  0.00    +0.000 C 
ENDROOT
BRANCH   1   2
ATOM      2  C   UNL     1      12.413 -11.728 178.665  0.00  0.00    +0.000 C 
ATOM      3  C   UNL     1      12.570 -11.577 177.184  0.00  0.00    +0.000 C 
ATOM      4  O   UNL     1      12.452 -14.439 181.041  0.00  0.00    +0.000 OA
ATOM      5  O   UNL     1      12.354 -16.528 182.041  0.00  0.00    +0.000 OA
ATOM      6  C   UNL     1      13.447 -16.210 179.909  0.00  0.00    +0.000 C 
ATOM      7  C   UNL     1      13.624 -15.164 179.189  0.00  0.00    +0.000 C 
ATOM      8  C   UNL     1      12.703 -15.804 181.125  0.00  0.00    +0.000 C 
ATOM      9  C   UNL     1      13.068 -14.072 179.849  0.00  0.00    +0.000 C 
ATOM     10  C   UNL     1      12.753 -12.952 179.285  0.00  0.00    +0.000 C 
BRANCH   6  12
ATOM     11  C   UNL     1      14.264 -18.602 179.261  0.00  0.00    +0.000 C 
ATOM     12  C   UNL     1      13.884 -17.500 179.556  0.00  0.00    +0.000 C 
BRANCH  11  14
ATOM     13  O   UNL     1      14.890 -20.737 180.116  0.00  0.00    +0.000 OA
ATOM     14  C   UNL     1      14.734 -19.933 178.911  0.00  0.00    +0.000 C 
ATOM     15  C   UNL     1      13.850 -21.156 179.235  0.00  0.00    +0.000 C 
ATOM     16  C   UNL     1      15.842 -20.096 177.813  0.00  0.00    +0.000 C 
ATOM     17  C   UNL     1      14.164 -22.382 178.574  0.00  0.00    +0.000 C 
ATOM     18  C   UNL     1      15.887 -21.516 177.455  0.00  0.00    +0.000 C 
ATOM     19  C   UNL     1      15.185 -22.718 177.669  0.00  0.00    +0.000 C 
ATOM     20  C   UNL     1      12.449 -21.048 179.845  0.00  0.00    +0.000 C 
ATOM     21  C   UNL     1      15.367 -19.241 176.608  0.00  0.00    +0.000 C 
ATOM     22  C   UNL     1      17.157 -19.574 178.433  0.00  0.00    +0.000 C 
BRANCH  19  23
ATOM     23  O   UNL     1      15.013 -23.628 176.670  0.00  0.00    +0.000 OA
ATOM     24  H   UNL     1      14.337 -23.349 176.027  0.00  0.00    +0.000 HD
ENDBRANCH  19  23
ENDBRANCH  11  14
ENDBRANCH   6  12
ENDBRANCH   1   2
BRANCH   1  25
ATOM     25  C   UNL     1      11.509  -9.552 180.230  0.00  0.00    +0.000 C 
ATOM     26  C   UNL     1      11.125  -8.633 180.899  0.00  0.00    +0.000 C 
BRANCH  26  28
ATOM     27  C   UNL     1      10.252  -6.544 182.427  0.00  0.00    +0.000 C 
ATOM     28  C   UNL     1      10.635  -7.463 181.758  0.00  0.00    +0.000 C 
BRANCH  27  29
ATOM     29  C   UNL     1       9.764  -5.364 183.277  0.00  0.00    +0.000 C 
BRANCH  29  30
ATOM     30  C   UNL     1       9.348  -4.375 184.002  0.00  0.00    +0.000 C 
ATOM     31  C   UNL     1       9.096  -4.563 185.467  0.00  0.00    +0.000 C 
BRANCH  30  33
ATOM     32  C   UNL     1       8.845  -2.057 182.888  0.00  0.00    +0.000 C 
ATOM     33  C   UNL     1       9.076  -3.121 183.397  0.00  0.00    +0.000 C 
BRANCH  32  39
ATOM     34  C   UNL     1       7.681   0.161 182.983  0.00  0.00    +0.000 C 
ATOM     35  C   UNL     1       9.169  -0.534 180.966  0.00  0.00    +0.000 C 
ATOM     36  C   UNL     1       7.817   1.468 182.326  0.00  0.00    +0.000 C 
ATOM     37  C   UNL     1       8.465   2.043 181.214  0.00  0.00    +0.000 C 
ATOM     38  C   UNL     1       9.083   0.894 180.680  0.00  0.00    +0.000 C 
ATOM     39  C   UNL     1       8.599  -0.888 182.330  0.00  0.00    +0.000 C 
ATOM     40  C   UNL     1       8.084   0.331 184.480  0.00  0.00    +0.000 C 
ATOM     41  C   UNL     1       6.213  -0.332 182.882  0.00  0.00    +0.000 C 
ATOM     42  C   UNL     1       8.507  -1.365 179.862  0.00  0.00    +0.000 C 
BRANCH  35  43
ATOM     43  O   UNL     1      10.532  -0.896 180.926  0.00  0.00    +0.000 OA
ATOM     44  H   UNL     1      10.500  -1.709 180.387  0.00  0.00    +0.000 HD
ENDBRANCH  35  43
BRANCH  37  45
ATOM     45  O   UNL     1       7.754   2.906 180.389  0.00  0.00    +0.000 OA
BRANCH  45  47
ATOM     46  O   UNL     1       9.566   4.267 179.785  0.00  0.00    +0.000 OA
ATOM     47  C   UNL     1       8.605   3.556 179.558  0.00  0.00    +0.000 C 
ATOM     48  C   UNL     1       8.301   3.376 178.113  0.00  0.00    +0.000 C 
ENDBRANCH  45  47
ENDBRANCH  37  45
ENDBRANCH  32  39
ENDBRANCH  30  33
ENDBRANCH  29  30
ENDBRANCH  27  29
ENDBRANCH  26  28
ENDBRANCH   1  25
TORSDOF 13
ENDMDL
MODEL 7
REMARK VINA RESULT:      -7.2     27.555     31.422
REMARK  Name = 5289155_Peridinin.pdbqt.pdb
REMARK  13 active torsions:
REMARK  status: ('A' for Active; 'I' for Inactive)
REMARK    1  A    between atoms: C_1  and  C_3
REMARK    2  A    between atoms: C_3  and  C_25
REMARK    3  A    between atoms: C_6  and  C_12
REMARK    4  A    between atoms: C_11  and  C_14
REMARK    5  A    between atoms: C_19  and  O_23
REMARK    6  A    between atoms: C_26  and  C_28
REMARK    7  A    between atoms: C_27  and  C_31
REMARK    8  A    between atoms: C_29  and  C_31
REMARK    9  A    between atoms: C_29  and  C_42
REMARK   10  A    between atoms: C_33  and  O_43
REMARK   11  A    between atoms: C_35  and  O_45
REMARK   12  A    between atoms: C_37  and  C_41
REMARK   13  A    between atoms: O_45  and  C_47
REMARK                            x       y       z     vdW  Elec       q    Type
REMARK                         _______ _______ _______ _____ _____    ______ ____
ROOT
ATOM      1  C   UNL     1      35.578 -27.559 175.955  0.00  0.00    +0.000 C 
ENDROOT
BRANCH   1   2
ATOM      2  C   UNL     1      35.799 -26.754 174.964  0.00  0.00    +0.000 C 
ATOM      3  C   UNL     1      34.860 -26.720 173.798  0.00  0.00    +0.000 C 
ATOM      4  O   UNL     1      39.055 -25.421 175.747  0.00  0.00    +0.000 OA
ATOM      5  O   UNL     1      41.189 -24.527 175.609  0.00  0.00    +0.000 OA
ATOM      6  C   UNL     1      39.415 -23.755 174.164  0.00  0.00    +0.000 C 
ATOM      7  C   UNL     1      38.181 -24.094 174.072  0.00  0.00    +0.000 C 
ATOM      8  C   UNL     1      40.031 -24.571 175.236  0.00  0.00    +0.000 C 
ATOM      9  C   UNL     1      37.916 -25.071 175.028  0.00  0.00    +0.000 C 
ATOM     10  C   UNL     1      36.906 -25.876 174.999  0.00  0.00    +0.000 C 
BRANCH   6  12
ATOM     11  C   UNL     1      40.553 -21.956 172.656  0.00  0.00    +0.000 C 
ATOM     12  C   UNL     1      40.033 -22.786 173.353  0.00  0.00    +0.000 C 
BRANCH  11  14
ATOM     13  O   UNL     1      41.756 -21.591 170.631  0.00  0.00    +0.000 OA
ATOM     14  C   UNL     1      41.174 -20.954 171.804  0.00  0.00    +0.000 C 
ATOM     15  C   UNL     1      40.640 -20.743 170.372  0.00  0.00    +0.000 C 
ATOM     16  C   UNL     1      42.007 -19.797 172.457  0.00  0.00    +0.000 C 
ATOM     17  C   UNL     1      41.020 -19.539 169.704  0.00  0.00    +0.000 C 
ATOM     18  C   UNL     1      42.238 -18.793 171.415  0.00  0.00    +0.000 C 
ATOM     19  C   UNL     1      41.849 -18.475 170.100  0.00  0.00    +0.000 C 
ATOM     20  C   UNL     1      39.425 -21.483 169.805  0.00  0.00    +0.000 C 
ATOM     21  C   UNL     1      41.111 -19.220 173.585  0.00  0.00    +0.000 C 
ATOM     22  C   UNL     1      43.305 -20.437 172.995  0.00  0.00    +0.000 C 
BRANCH  19  23
ATOM     23  O   UNL     1      41.626 -17.187 169.716  0.00  0.00    +0.000 OA
ATOM     24  H   UNL     1      40.685 -16.941 169.771  0.00  0.00    +0.000 HD
ENDBRANCH  19  23
ENDBRANCH  11  14
ENDBRANCH   6  12
ENDBRANCH   1   2
BRANCH   1  25
ATOM     25  C   UNL     1      35.318 -28.513 177.127  0.00  0.00    +0.000 C 
ATOM     26  C   UNL     1      35.112 -29.255 178.047  0.00  0.00    +0.000 C 
BRANCH  26  28
ATOM     27  C   UNL     1      34.636 -30.929 180.152  0.00  0.00    +0.000 C 
ATOM     28  C   UNL     1      34.846 -30.196 179.226  0.00  0.00    +0.000 C 
BRANCH  27  29
ATOM     29  C   UNL     1      34.368 -31.860 181.342  0.00  0.00    +0.000 C 
BRANCH  29  30
ATOM     30  C   UNL     1      34.145 -32.638 182.353  0.00  0.00    +0.000 C 
ATOM     31  C   UNL     1      34.437 -34.105 182.258  0.00  0.00    +0.000 C 
BRANCH  30  33
ATOM     32  C   UNL     1      33.084 -31.667 184.543  0.00  0.00    +0.000 C 
ATOM     33  C   UNL     1      33.570 -32.111 183.537  0.00  0.00    +0.000 C 
BRANCH  32  39
ATOM     34  C   UNL     1      32.795 -29.729 186.106  0.00  0.00    +0.000 C 
ATOM     35  C   UNL     1      31.721 -32.053 186.571  0.00  0.00    +0.000 C 
ATOM     36  C   UNL     1      31.864 -29.351 187.179  0.00  0.00    +0.000 C 
ATOM     37  C   UNL     1      30.873 -29.939 187.990  0.00  0.00    +0.000 C 
ATOM     38  C   UNL     1      30.950 -31.271 187.531  0.00  0.00    +0.000 C 
ATOM     39  C   UNL     1      32.557 -31.179 185.648  0.00  0.00    +0.000 C 
ATOM     40  C   UNL     1      32.557 -28.767 184.902  0.00  0.00    +0.000 C 
ATOM     41  C   UNL     1      34.259 -29.601 186.606  0.00  0.00    +0.000 C 
ATOM     42  C   UNL     1      32.593 -33.097 187.274  0.00  0.00    +0.000 C 
BRANCH  35  43
ATOM     43  O   UNL     1      30.808 -32.801 185.798  0.00  0.00    +0.000 OA
ATOM     44  H   UNL     1      31.349 -33.015 185.015  0.00  0.00    +0.000 HD
ENDBRANCH  35  43
BRANCH  37  45
ATOM     45  O   UNL     1      30.863 -29.665 189.351  0.00  0.00    +0.000 OA
BRANCH  45  47
ATOM     46  O   UNL     1      28.600 -29.065 189.211  0.00  0.00    +0.000 OA
ATOM     47  C   UNL     1      29.588 -29.492 189.778  0.00  0.00    +0.000 C 
ATOM     48  C   UNL     1      29.362 -29.884 191.196  0.00  0.00    +0.000 C 
ENDBRANCH  45  47
ENDBRANCH  37  45
ENDBRANCH  32  39
ENDBRANCH  30  33
ENDBRANCH  29  30
ENDBRANCH  27  29
ENDBRANCH  26  28
ENDBRANCH   1  25
TORSDOF 13
ENDMDL
MODEL 8
REMARK VINA RESULT:      -7.1     24.549     30.113
REMARK  Name = 5289155_Peridinin.pdbqt.pdb
REMARK  13 active torsions:
REMARK  status: ('A' for Active; 'I' for Inactive)
REMARK    1  A    between atoms: C_1  and  C_3
REMARK    2  A    between atoms: C_3  and  C_25
REMARK    3  A    between atoms: C_6  and  C_12
REMARK    4  A    between atoms: C_11  and  C_14
REMARK    5  A    between atoms: C_19  and  O_23
REMARK    6  A    between atoms: C_26  and  C_28
REMARK    7  A    between atoms: C_27  and  C_31
REMARK    8  A    between atoms: C_29  and  C_31
REMARK    9  A    between atoms: C_29  and  C_42
REMARK   10  A    between atoms: C_33  and  O_43
REMARK   11  A    between atoms: C_35  and  O_45
REMARK   12  A    between atoms: C_37  and  C_41
REMARK   13  A    between atoms: O_45  and  C_47
REMARK                            x       y       z     vdW  Elec       q    Type
REMARK                         _______ _______ _______ _____ _____    ______ ____
ROOT
ATOM      1  C   UNL     1      33.725 -20.141 164.489  0.00  0.00    +0.000 C 
ENDROOT
BRANCH   1   2
ATOM      2  C   UNL     1      32.586 -20.172 163.871  0.00  0.00    +0.000 C 
ATOM      3  C   UNL     1      32.476 -19.654 162.470  0.00  0.00    +0.000 C 
ATOM      4  O   UNL     1      30.312 -21.214 166.465  0.00  0.00    +0.000 OA
ATOM      5  O   UNL     1      28.436 -21.533 167.789  0.00  0.00    +0.000 OA
ATOM      6  C   UNL     1      28.286 -21.564 165.378  0.00  0.00    +0.000 C 
ATOM      7  C   UNL     1      29.176 -21.421 164.465  0.00  0.00    +0.000 C 
ATOM      8  C   UNL     1      28.960 -21.450 166.693  0.00  0.00    +0.000 C 
ATOM      9  C   UNL     1      30.413 -21.240 165.078  0.00  0.00    +0.000 C 
ATOM     10  C   UNL     1      31.452 -20.729 164.503  0.00  0.00    +0.000 C 
BRANCH   6  12
ATOM     11  C   UNL     1      25.749 -21.959 164.912  0.00  0.00    +0.000 C 
ATOM     12  C   UNL     1      26.917 -21.773 165.124  0.00  0.00    +0.000 C 
BRANCH  11  14
ATOM     13  O   UNL     1      24.101 -23.621 164.462  0.00  0.00    +0.000 OA
ATOM     14  C   UNL     1      24.338 -22.197 164.655  0.00  0.00    +0.000 C 
ATOM     15  C   UNL     1      23.525 -23.063 165.641  0.00  0.00    +0.000 C 
ATOM     16  C   UNL     1      23.551 -21.223 163.711  0.00  0.00    +0.000 C 
ATOM     17  C   UNL     1      22.102 -22.983 165.561  0.00  0.00    +0.000 C 
ATOM     18  C   UNL     1      22.125 -21.513 163.885  0.00  0.00    +0.000 C 
ATOM     19  C   UNL     1      21.256 -22.262 164.700  0.00  0.00    +0.000 C 
ATOM     20  C   UNL     1      24.105 -23.637 166.937  0.00  0.00    +0.000 C 
ATOM     21  C   UNL     1      23.884 -19.792 164.213  0.00  0.00    +0.000 C 
ATOM     22  C   UNL     1      24.065 -21.487 162.278  0.00  0.00    +0.000 C 
BRANCH  19  23
ATOM     23  O   UNL     1      20.051 -21.766 165.099  0.00  0.00    +0.000 OA
ATOM     24  H   UNL     1      19.578 -22.374 165.695  0.00  0.00    +0.000 HD
ENDBRANCH  19  23
ENDBRANCH  11  14
ENDBRANCH   6  12
ENDBRANCH   1   2
BRANCH   1  25
ATOM     25  C   UNL     1      35.071 -20.106 165.221  0.00  0.00    +0.000 C 
ATOM     26  C   UNL     1      36.123 -20.076 165.798  0.00  0.00    +0.000 C 
BRANCH  26  28
ATOM     27  C   UNL     1      38.510 -20.008 167.123  0.00  0.00    +0.000 C 
ATOM     28  C   UNL     1      37.462 -20.034 166.542  0.00  0.00    +0.000 C 
BRANCH  27  29
ATOM     29  C   UNL     1      39.850 -19.981 167.870  0.00  0.00    +0.000 C 
BRANCH  29  30
ATOM     30  C   UNL     1      40.980 -19.969 168.502  0.00  0.00    +0.000 C 
ATOM     31  C   UNL     1      42.253 -19.665 167.771  0.00  0.00    +0.000 C 
BRANCH  30  33
ATOM     32  C   UNL     1      41.062 -20.575 171.050  0.00  0.00    +0.000 C 
ATOM     33  C   UNL     1      41.023 -20.298 169.881  0.00  0.00    +0.000 C 
BRANCH  32  39
ATOM     34  C   UNL     1      41.912 -22.064 172.879  0.00  0.00    +0.000 C 
ATOM     35  C   UNL     1      40.295 -20.081 173.349  0.00  0.00    +0.000 C 
ATOM     36  C   UNL     1      42.041 -21.994 174.341  0.00  0.00    +0.000 C 
ATOM     37  C   UNL     1      41.570 -21.216 175.419  0.00  0.00    +0.000 C 
ATOM     38  C   UNL     1      40.731 -20.324 174.720  0.00  0.00    +0.000 C 
ATOM     39  C   UNL     1      41.102 -20.873 172.333  0.00  0.00    +0.000 C 
ATOM     40  C   UNL     1      43.346 -22.030 172.267  0.00  0.00    +0.000 C 
ATOM     41  C   UNL     1      41.194 -23.379 172.473  0.00  0.00    +0.000 C 
ATOM     42  C   UNL     1      38.796 -20.348 173.185  0.00  0.00    +0.000 C 
BRANCH  35  43
ATOM     43  O   UNL     1      40.450 -18.702 173.090  0.00  0.00    +0.000 OA
ATOM     44  H   UNL     1      39.606 -18.493 172.649  0.00  0.00    +0.000 HD
ENDBRANCH  35  43
BRANCH  37  45
ATOM     45  O   UNL     1      41.117 -21.855 176.565  0.00  0.00    +0.000 OA
BRANCH  45  47
ATOM     46  O   UNL     1      39.926 -23.706 175.755  0.00  0.00    +0.000 OA
ATOM     47  C   UNL     1      40.029 -22.610 176.274  0.00  0.00    +0.000 C 
ATOM     48  C   UNL     1      38.733 -21.979 176.643  0.00  0.00    +0.000 C 
ENDBRANCH  45  47
ENDBRANCH  37  45
ENDBRANCH  32  39
ENDBRANCH  30  33
ENDBRANCH  29  30
ENDBRANCH  27  29
ENDBRANCH  26  28
ENDBRANCH   1  25
TORSDOF 13
ENDMDL
MODEL 9
REMARK VINA RESULT:      -7.1     22.776     29.263
REMARK  Name = 5289155_Peridinin.pdbqt.pdb
REMARK  13 active torsions:
REMARK  status: ('A' for Active; 'I' for Inactive)
REMARK    1  A    between atoms: C_1  and  C_3
REMARK    2  A    between atoms: C_3  and  C_25
REMARK    3  A    between atoms: C_6  and  C_12
REMARK    4  A    between atoms: C_11  and  C_14
REMARK    5  A    between atoms: C_19  and  O_23
REMARK    6  A    between atoms: C_26  and  C_28
REMARK    7  A    between atoms: C_27  and  C_31
REMARK    8  A    between atoms: C_29  and  C_31
REMARK    9  A    between atoms: C_29  and  C_42
REMARK   10  A    between atoms: C_33  and  O_43
REMARK   11  A    between atoms: C_35  and  O_45
REMARK   12  A    between atoms: C_37  and  C_41
REMARK   13  A    between atoms: O_45  and  C_47
REMARK                            x       y       z     vdW  Elec       q    Type
REMARK                         _______ _______ _______ _____ _____    ______ ____
ROOT
ATOM      1  C   UNL     1      31.120   2.289 193.666  0.00  0.00    +0.000 C 
ENDROOT
BRANCH   1   2
ATOM      2  C   UNL     1      29.867   2.614 193.716  0.00  0.00    +0.000 C 
ATOM      3  C   UNL     1      29.211   2.883 195.035  0.00  0.00    +0.000 C 
ATOM      4  O   UNL     1      28.798   2.146 190.306  0.00  0.00    +0.000 OA
ATOM      5  O   UNL     1      27.551   1.712 188.400  0.00  0.00    +0.000 OA
ATOM      6  C   UNL     1      26.624   2.970 190.243  0.00  0.00    +0.000 C 
ATOM      7  C   UNL     1      27.124   3.328 191.369  0.00  0.00    +0.000 C 
ATOM      8  C   UNL     1      27.662   2.210 189.506  0.00  0.00    +0.000 C 
ATOM      9  C   UNL     1      28.440   2.879 191.433  0.00  0.00    +0.000 C 
ATOM     10  C   UNL     1      29.123   2.751 192.523  0.00  0.00    +0.000 C 
BRANCH   6  12
ATOM     11  C   UNL     1      24.183   3.498 189.490  0.00  0.00    +0.000 C 
ATOM     12  C   UNL     1      25.309   3.256 189.832  0.00  0.00    +0.000 C 
BRANCH  11  14
ATOM     13  O   UNL     1      22.019   2.566 189.131  0.00  0.00    +0.000 OA
ATOM     14  C   UNL     1      22.816   3.785 189.085  0.00  0.00    +0.000 C 
ATOM     15  C   UNL     1      21.666   3.561 190.090  0.00  0.00    +0.000 C 
ATOM     16  C   UNL     1      22.556   4.744 187.871  0.00  0.00    +0.000 C 
ATOM     17  C   UNL     1      20.411   4.175 189.794  0.00  0.00    +0.000 C 
ATOM     18  C   UNL     1      21.131   5.088 187.893  0.00  0.00    +0.000 C 
ATOM     19  C   UNL     1      19.988   4.952 188.702  0.00  0.00    +0.000 C 
ATOM     20  C   UNL     1      21.886   3.120 191.540  0.00  0.00    +0.000 C 
ATOM     21  C   UNL     1      23.427   6.001 188.137  0.00  0.00    +0.000 C 
ATOM     22  C   UNL     1      22.987   3.977 186.602  0.00  0.00    +0.000 C 
BRANCH  19  23
ATOM     23  O   UNL     1      19.080   5.960 188.825  0.00  0.00    +0.000 OA
ATOM     24  H   UNL     1      19.196   6.465 189.650  0.00  0.00    +0.000 HD
ENDBRANCH  19  23
ENDBRANCH  11  14
ENDBRANCH   6  12
ENDBRANCH   1   2
BRANCH   1  25
ATOM     25  C   UNL     1      32.604   1.906 193.607  0.00  0.00    +0.000 C 
ATOM     26  C   UNL     1      33.764   1.603 193.564  0.00  0.00    +0.000 C 
BRANCH  26  28
ATOM     27  C   UNL     1      36.401   0.900 193.471  0.00  0.00    +0.000 C 
ATOM     28  C   UNL     1      35.243   1.210 193.515  0.00  0.00    +0.000 C 
BRANCH  27  29
ATOM     29  C   UNL     1      37.881   0.500 193.409  0.00  0.00    +0.000 C 
BRANCH  29  30
ATOM     30  C   UNL     1      39.133   0.172 193.360  0.00  0.00    +0.000 C 
ATOM     31  C   UNL     1      40.188   1.229 193.229  0.00  0.00    +0.000 C 
BRANCH  30  33
ATOM     32  C   UNL     1      39.827  -2.354 193.389  0.00  0.00    +0.000 C 
ATOM     33  C   UNL     1      39.507  -1.195 193.375  0.00  0.00    +0.000 C 
BRANCH  32  39
ATOM     34  C   UNL     1      41.106  -4.243 192.350  0.00  0.00    +0.000 C 
ATOM     35  C   UNL     1      39.627  -4.572 194.465  0.00  0.00    +0.000 C 
ATOM     36  C   UNL     1      41.580  -5.570 192.767  0.00  0.00    +0.000 C 
ATOM     37  C   UNL     1      41.373  -6.500 193.806  0.00  0.00    +0.000 C 
ATOM     38  C   UNL     1      40.381  -5.819 194.541  0.00  0.00    +0.000 C 
ATOM     39  C   UNL     1      40.177  -3.625 193.410  0.00  0.00    +0.000 C 
ATOM     40  C   UNL     1      42.352  -3.324 192.164  0.00  0.00    +0.000 C 
ATOM     41  C   UNL     1      40.326  -4.356 191.013  0.00  0.00    +0.000 C 
ATOM     42  C   UNL     1      38.135  -4.836 194.240  0.00  0.00    +0.000 C 
BRANCH  35  43
ATOM     43  O   UNL     1      39.701  -3.951 195.729  0.00  0.00    +0.000 OA
ATOM     44  H   UNL     1      40.511  -4.353 196.095  0.00  0.00    +0.000 HD
ENDBRANCH  35  43
BRANCH  37  45
ATOM     45  O   UNL     1      41.214  -7.843 193.488  0.00  0.00    +0.000 OA
BRANCH  45  47
ATOM     46  O   UNL     1      43.078  -9.175 192.987  0.00  0.00    +0.000 OA
ATOM     47  C   UNL     1      42.369  -8.513 193.721  0.00  0.00    +0.000 C 
ATOM     48  C   UNL     1      42.846  -8.432 195.128  0.00  0.00    +0.000 C 
ENDBRANCH  45  47
ENDBRANCH  37  45
ENDBRANCH  32  39
ENDBRANCH  30  33
ENDBRANCH  29  30
ENDBRANCH  27  29
ENDBRANCH  26  28
ENDBRANCH   1  25
TORSDOF 13
ENDMDL
