MODEL 1
REMARK VINA RESULT:      -8.1      0.000      0.000
REMARK  Name = 5318517_Andrographolide.pdbqt.pdb
REMARK  6 active torsions:
REMARK  status: ('A' for Active; 'I' for Inactive)
REMARK    1  A    between atoms: C_3  and  C_16
REMARK    2  A    between atoms: C_4  and  C_19
REMARK    3  A    between atoms: C_6  and  O_14
REMARK    4  A    between atoms: C_16  and  O_17
REMARK    5  A    between atoms: C_22  and  C_23
REMARK    6  A    between atoms: C_24  and  O_27
REMARK                            x       y       z     vdW  Elec       q    Type
REMARK                         _______ _______ _______ _____ _____    ______ ____
ROOT
ATOM      1  C   UNL     1      21.178   2.225 188.998  0.00  0.00    +0.000 C 
ATOM      2  C   UNL     1      20.796   3.466 188.136  0.00  0.00    +0.000 C 
ATOM      3  C   UNL     1      21.799   4.587 187.808  0.00  0.00    +0.000 C 
ATOM      4  C   UNL     1      20.038   1.562 189.822  0.00  0.00    +0.000 C 
ATOM      5  C   UNL     1      22.226   2.706 189.893  0.00  0.00    +0.000 C 
ATOM      6  C   UNL     1      22.994   4.780 188.789  0.00  0.00    +0.000 C 
ATOM      7  C   UNL     1      19.431   3.481 187.730  0.00  0.00    +0.000 C 
ATOM      8  C   UNL     1      23.132   3.889 189.869  0.00  0.00    +0.000 C 
ATOM      9  C   UNL     1      21.742   1.145 188.024  0.00  0.00    +0.000 C 
ATOM     10  C   UNL     1      18.402   2.573 188.325  0.00  0.00    +0.000 C 
ATOM     11  C   UNL     1      18.650   1.630 189.344  0.00  0.00    +0.000 C 
ATOM     12  C   UNL     1      21.017   5.950 187.823  0.00  0.00    +0.000 C 
ATOM     13  C   UNL     1      17.599   1.063 189.939  0.00  0.00    +0.000 C 
ENDROOT
BRANCH   6  14
ATOM     14  O   UNL     1      24.011   5.673 188.499  0.00  0.00    +0.000 OA
ATOM     15  H   UNL     1      24.280   5.635 187.564  0.00  0.00    +0.000 HD
ENDBRANCH   6  14
BRANCH   4  16
ATOM     16  C   UNL     1      20.348   0.775 190.983  0.00  0.00    +0.000 C 
ATOM     17  C   UNL     1      20.668  -0.067 192.221  0.00  0.00    +0.000 C 
BRANCH  17  20
ATOM     18  O   UNL     1      22.106  -1.531 195.132  0.00  0.00    +0.000 OA
ATOM     19  O   UNL     1      23.245  -0.077 193.707  0.00  0.00    +0.000 OA
ATOM     20  C   UNL     1      20.937  -0.787 193.264  0.00  0.00    +0.000 C 
ATOM     21  C   UNL     1      20.054  -1.685 193.966  0.00  0.00    +0.000 C 
ATOM     22  C   UNL     1      22.253  -0.715 194.013  0.00  0.00    +0.000 C 
ATOM     23  C   UNL     1      20.878  -2.019 195.043  0.00  0.00    +0.000 C 
BRANCH  21  24
ATOM     24  O   UNL     1      18.722  -1.401 194.069  0.00  0.00    +0.000 OA
ATOM     25  H   UNL     1      18.276  -1.441 193.205  0.00  0.00    +0.000 HD
ENDBRANCH  21  24
ENDBRANCH  17  20
ENDBRANCH   4  16
BRANCH   3  26
ATOM     26  C   UNL     1      22.343   4.320 186.446  0.00  0.00    +0.000 C 
BRANCH  26  27
ATOM     27  O   UNL     1      22.823   4.072 185.224  0.00  0.00    +0.000 OA
ATOM     28  H   UNL     1      22.237   4.447 184.543  0.00  0.00    +0.000 HD
ENDBRANCH  26  27
ENDBRANCH   3  26
TORSDOF 6
ENDMDL
MODEL 2
REMARK VINA RESULT:      -7.9      1.625      7.340
REMARK  Name = 5318517_Andrographolide.pdbqt.pdb
REMARK  6 active torsions:
REMARK  status: ('A' for Active; 'I' for Inactive)
REMARK    1  A    between atoms: C_3  and  C_16
REMARK    2  A    between atoms: C_4  and  C_19
REMARK    3  A    between atoms: C_6  and  O_14
REMARK    4  A    between atoms: C_16  and  O_17
REMARK    5  A    between atoms: C_22  and  C_23
REMARK    6  A    between atoms: C_24  and  O_27
REMARK                            x       y       z     vdW  Elec       q    Type
REMARK                         _______ _______ _______ _____ _____    ______ ____
ROOT
ATOM      1  C   UNL     1      20.661   1.806 190.694  0.00  0.00    +0.000 C 
ATOM      2  C   UNL     1      20.008   0.628 191.478  0.00  0.00    +0.000 C 
ATOM      3  C   UNL     1      20.819  -0.313 192.386  0.00  0.00    +0.000 C 
ATOM      4  C   UNL     1      19.984   2.224 189.358  0.00  0.00    +0.000 C 
ATOM      5  C   UNL     1      22.031   1.367 190.442  0.00  0.00    +0.000 C 
ATOM      6  C   UNL     1      22.340  -0.459 192.079  0.00  0.00    +0.000 C 
ATOM      7  C   UNL     1      18.613   0.485 191.234  0.00  0.00    +0.000 C 
ATOM      8  C   UNL     1      22.899   0.318 191.049  0.00  0.00    +0.000 C 
ATOM      9  C   UNL     1      20.649   3.049 191.636  0.00  0.00    +0.000 C 
ATOM     10  C   UNL     1      17.913   1.184 190.113  0.00  0.00    +0.000 C 
ATOM     11  C   UNL     1      18.538   2.033 189.176  0.00  0.00    +0.000 C 
ATOM     12  C   UNL     1      20.219  -1.758 192.239  0.00  0.00    +0.000 C 
ATOM     13  C   UNL     1      17.841   2.393 188.097  0.00  0.00    +0.000 C 
ENDROOT
BRANCH   6  14
ATOM     14  O   UNL     1      23.167  -1.179 192.925  0.00  0.00    +0.000 OA
ATOM     15  H   UNL     1      22.941  -2.125 192.946  0.00  0.00    +0.000 HD
ENDBRANCH   6  14
BRANCH   4  16
ATOM     16  C   UNL     1      20.739   2.912 188.348  0.00  0.00    +0.000 C 
ATOM     17  C   UNL     1      21.534   3.650 187.267  0.00  0.00    +0.000 C 
BRANCH  17  20
ATOM     18  O   UNL     1      23.963   5.468 185.403  0.00  0.00    +0.000 OA
ATOM     19  O   UNL     1      23.994   5.259 187.726  0.00  0.00    +0.000 OA
ATOM     20  C   UNL     1      22.204   4.282 186.357  0.00  0.00    +0.000 C 
ATOM     21  C   UNL     1      21.957   4.306 184.937  0.00  0.00    +0.000 C 
ATOM     22  C   UNL     1      23.482   5.048 186.640  0.00  0.00    +0.000 C 
ATOM     23  C   UNL     1      23.083   5.018 184.521  0.00  0.00    +0.000 C 
BRANCH  21  24
ATOM     24  O   UNL     1      21.463   3.200 184.305  0.00  0.00    +0.000 OA
ATOM     25  H   UNL     1      20.902   2.667 184.896  0.00  0.00    +0.000 HD
ENDBRANCH  21  24
ENDBRANCH  17  20
ENDBRANCH   4  16
BRANCH   3  26
ATOM     26  C   UNL     1      20.664   0.169 193.788  0.00  0.00    +0.000 C 
BRANCH  26  27
ATOM     27  O   UNL     1      20.513   0.599 195.044  0.00  0.00    +0.000 OA
ATOM     28  H   UNL     1      21.381   0.747 195.463  0.00  0.00    +0.000 HD
ENDBRANCH  26  27
ENDBRANCH   3  26
TORSDOF 6
ENDMDL
MODEL 3
REMARK VINA RESULT:      -7.6      2.161      7.258
REMARK  Name = 5318517_Andrographolide.pdbqt.pdb
REMARK  6 active torsions:
REMARK  status: ('A' for Active; 'I' for Inactive)
REMARK    1  A    between atoms: C_3  and  C_16
REMARK    2  A    between atoms: C_4  and  C_19
REMARK    3  A    between atoms: C_6  and  O_14
REMARK    4  A    between atoms: C_16  and  O_17
REMARK    5  A    between atoms: C_22  and  C_23
REMARK    6  A    between atoms: C_24  and  O_27
REMARK                            x       y       z     vdW  Elec       q    Type
REMARK                         _______ _______ _______ _____ _____    ______ ____
ROOT
ATOM      1  C   UNL     1      21.100   1.373 192.385  0.00  0.00    +0.000 C 
ATOM      2  C   UNL     1      20.775   0.434 193.587  0.00  0.00    +0.000 C 
ATOM      3  C   UNL     1      21.860  -0.366 194.329  0.00  0.00    +0.000 C 
ATOM      4  C   UNL     1      19.983   1.564 191.320  0.00  0.00    +0.000 C 
ATOM      5  C   UNL     1      22.283   0.783 191.766  0.00  0.00    +0.000 C 
ATOM      6  C   UNL     1      23.165  -0.694 193.542  0.00  0.00    +0.000 C 
ATOM      7  C   UNL     1      19.386   0.358 193.892  0.00  0.00    +0.000 C 
ATOM      8  C   UNL     1      23.311  -0.188 192.238  0.00  0.00    +0.000 C 
ATOM      9  C   UNL     1      21.433   2.777 192.975  0.00  0.00    +0.000 C 
ATOM     10  C   UNL     1      18.327   0.869 192.968  0.00  0.00    +0.000 C 
ATOM     11  C   UNL     1      18.569   1.458 191.710  0.00  0.00    +0.000 C 
ATOM     12  C   UNL     1      21.245  -1.757 194.723  0.00  0.00    +0.000 C 
ATOM     13  C   UNL     1      17.528   1.647 190.898  0.00  0.00    +0.000 C 
ENDROOT
BRANCH   6  14
ATOM     14  O   UNL     1      24.242  -1.291 194.174  0.00  0.00    +0.000 OA
ATOM     15  H   UNL     1      24.490  -2.136 193.760  0.00  0.00    +0.000 HD
ENDBRANCH   6  14
BRANCH   4  16
ATOM     16  C   UNL     1      20.319   1.971 189.985  0.00  0.00    +0.000 C 
ATOM     17  C   UNL     1      20.674   2.415 188.562  0.00  0.00    +0.000 C 
BRANCH  17  20
ATOM     18  O   UNL     1      22.234   2.995 185.414  0.00  0.00    +0.000 OA
ATOM     19  O   UNL     1      23.335   2.107 187.268  0.00  0.00    +0.000 OA
ATOM     20  C   UNL     1      20.980   2.796 187.362  0.00  0.00    +0.000 C 
ATOM     21  C   UNL     1      20.110   3.389 186.378  0.00  0.00    +0.000 C 
ATOM     22  C   UNL     1      22.341   2.568 186.735  0.00  0.00    +0.000 C 
ATOM     23  C   UNL     1      20.986   3.421 185.290  0.00  0.00    +0.000 C 
BRANCH  21  24
ATOM     24  O   UNL     1      18.798   3.017 186.304  0.00  0.00    +0.000 OA
ATOM     25  H   UNL     1      18.665   2.284 185.677  0.00  0.00    +0.000 HD
ENDBRANCH  21  24
ENDBRANCH  17  20
ENDBRANCH   4  16
BRANCH   3  26
ATOM     26  C   UNL     1      22.227   0.400 195.554  0.00  0.00    +0.000 C 
BRANCH  26  27
ATOM     27  O   UNL     1      22.561   1.096 196.645  0.00  0.00    +0.000 OA
ATOM     28  H   UNL     1      21.767   1.326 197.162  0.00  0.00    +0.000 HD
ENDBRANCH  26  27
ENDBRANCH   3  26
TORSDOF 6
ENDMDL
MODEL 4
REMARK VINA RESULT:      -7.5      1.641      2.522
REMARK  Name = 5318517_Andrographolide.pdbqt.pdb
REMARK  6 active torsions:
REMARK  status: ('A' for Active; 'I' for Inactive)
REMARK    1  A    between atoms: C_3  and  C_16
REMARK    2  A    between atoms: C_4  and  C_19
REMARK    3  A    between atoms: C_6  and  O_14
REMARK    4  A    between atoms: C_16  and  O_17
REMARK    5  A    between atoms: C_22  and  C_23
REMARK    6  A    between atoms: C_24  and  O_27
REMARK                            x       y       z     vdW  Elec       q    Type
REMARK                         _______ _______ _______ _____ _____    ______ ____
ROOT
ATOM      1  C   UNL     1      22.004   2.219 189.366  0.00  0.00    +0.000 C 
ATOM      2  C   UNL     1      21.068   3.299 188.742  0.00  0.00    +0.000 C 
ATOM      3  C   UNL     1      21.605   4.602 188.124  0.00  0.00    +0.000 C 
ATOM      4  C   UNL     1      21.412   1.354 190.514  0.00  0.00    +0.000 C 
ATOM      5  C   UNL     1      23.159   2.968 189.851  0.00  0.00    +0.000 C 
ATOM      6  C   UNL     1      22.991   5.109 188.626  0.00  0.00    +0.000 C 
ATOM      7  C   UNL     1      19.684   2.982 188.846  0.00  0.00    +0.000 C 
ATOM      8  C   UNL     1      23.701   4.325 189.553  0.00  0.00    +0.000 C 
ATOM      9  C   UNL     1      22.421   1.253 188.215  0.00  0.00    +0.000 C 
ATOM     10  C   UNL     1      19.168   1.893 189.730  0.00  0.00    +0.000 C 
ATOM     11  C   UNL     1      19.968   1.080 190.560  0.00  0.00    +0.000 C 
ATOM     12  C   UNL     1      20.588   5.750 188.465  0.00  0.00    +0.000 C 
ATOM     13  C   UNL     1      19.355   0.317 191.466  0.00  0.00    +0.000 C 
ENDROOT
BRANCH   6  14
ATOM     14  O   UNL     1      23.606   6.196 188.030  0.00  0.00    +0.000 OA
ATOM     15  H   UNL     1      24.343   5.931 187.452  0.00  0.00    +0.000 HD
ENDBRANCH   6  14
BRANCH   4  16
ATOM     16  C   UNL     1      22.283   0.713 191.460  0.00  0.00    +0.000 C 
ATOM     17  C   UNL     1      23.211   0.021 192.461  0.00  0.00    +0.000 C 
BRANCH  17  20
ATOM     18  O   UNL     1      24.671  -1.621 195.265  0.00  0.00    +0.000 OA
ATOM     19  O   UNL     1      22.590  -0.568 195.311  0.00  0.00    +0.000 OA
ATOM     20  C   UNL     1      24.004  -0.565 193.303  0.00  0.00    +0.000 C 
ATOM     21  C   UNL     1      25.314  -1.108 193.048  0.00  0.00    +0.000 C 
ATOM     22  C   UNL     1      23.615  -0.885 194.733  0.00  0.00    +0.000 C 
ATOM     23  C   UNL     1      25.557  -1.709 194.284  0.00  0.00    +0.000 C 
BRANCH  21  24
ATOM     24  O   UNL     1      25.600  -1.679 191.840  0.00  0.00    +0.000 OA
ATOM     25  H   UNL     1      24.892  -2.278 191.547  0.00  0.00    +0.000 HD
ENDBRANCH  21  24
ENDBRANCH  17  20
ENDBRANCH   4  16
BRANCH   3  26
ATOM     26  C   UNL     1      21.681   4.403 186.648  0.00  0.00    +0.000 C 
BRANCH  26  27
ATOM     27  O   UNL     1      21.756   4.236 185.325  0.00  0.00    +0.000 OA
ATOM     28  H   UNL     1      21.177   4.871 184.866  0.00  0.00    +0.000 HD
ENDBRANCH  26  27
ENDBRANCH   3  26
TORSDOF 6
ENDMDL
MODEL 5
REMARK VINA RESULT:      -7.4      4.385      6.734
REMARK  Name = 5318517_Andrographolide.pdbqt.pdb
REMARK  6 active torsions:
REMARK  status: ('A' for Active; 'I' for Inactive)
REMARK    1  A    between atoms: C_3  and  C_16
REMARK    2  A    between atoms: C_4  and  C_19
REMARK    3  A    between atoms: C_6  and  O_14
REMARK    4  A    between atoms: C_16  and  O_17
REMARK    5  A    between atoms: C_22  and  C_23
REMARK    6  A    between atoms: C_24  and  O_27
REMARK                            x       y       z     vdW  Elec       q    Type
REMARK                         _______ _______ _______ _____ _____    ______ ____
ROOT
ATOM      1  C   UNL     1      23.777   3.276 188.550  0.00  0.00    +0.000 C 
ATOM      2  C   UNL     1      22.344   3.884 188.639  0.00  0.00    +0.000 C 
ATOM      3  C   UNL     1      21.676   4.605 187.455  0.00  0.00    +0.000 C 
ATOM      4  C   UNL     1      24.598   3.214 189.869  0.00  0.00    +0.000 C 
ATOM      5  C   UNL     1      24.470   4.108 187.570  0.00  0.00    +0.000 C 
ATOM      6  C   UNL     1      22.616   5.233 186.382  0.00  0.00    +0.000 C 
ATOM      7  C   UNL     1      21.746   3.747 189.923  0.00  0.00    +0.000 C 
ATOM      8  C   UNL     1      24.005   5.050 186.512  0.00  0.00    +0.000 C 
ATOM      9  C   UNL     1      23.626   1.817 188.020  0.00  0.00    +0.000 C 
ATOM     10  C   UNL     1      22.522   3.349 191.138  0.00  0.00    +0.000 C 
ATOM     11  C   UNL     1      23.907   3.085 191.160  0.00  0.00    +0.000 C 
ATOM     12  C   UNL     1      20.838   5.802 188.033  0.00  0.00    +0.000 C 
ATOM     13  C   UNL     1      24.503   2.975 192.348  0.00  0.00    +0.000 C 
ENDROOT
BRANCH   6  14
ATOM     14  O   UNL     1      22.100   5.781 185.221  0.00  0.00    +0.000 OA
ATOM     15  H   UNL     1      21.132   5.875 185.256  0.00  0.00    +0.000 HD
ENDBRANCH   6  14
BRANCH   4  16
ATOM     16  C   UNL     1      26.032   3.153 189.826  0.00  0.00    +0.000 C 
ATOM     17  C   UNL     1      27.562   3.094 189.770  0.00  0.00    +0.000 C 
BRANCH  17  20
ATOM     18  O   UNL     1      31.048   3.146 190.498  0.00  0.00    +0.000 OA
ATOM     19  O   UNL     1      29.403   3.940 191.949  0.00  0.00    +0.000 OA
ATOM     20  C   UNL     1      28.856   3.053 189.725  0.00  0.00    +0.000 C 
ATOM     21  C   UNL     1      29.685   2.547 188.660  0.00  0.00    +0.000 C 
ATOM     22  C   UNL     1      29.746   3.451 190.886  0.00  0.00    +0.000 C 
ATOM     23  C   UNL     1      30.934   2.649 189.276  0.00  0.00    +0.000 C 
BRANCH  21  24
ATOM     24  O   UNL     1      29.273   1.478 187.916  0.00  0.00    +0.000 OA
ATOM     25  H   UNL     1      29.004   1.744 187.019  0.00  0.00    +0.000 HD
ENDBRANCH  21  24
ENDBRANCH  17  20
ENDBRANCH   4  16
BRANCH   3  26
ATOM     26  C   UNL     1      20.776   3.626 186.780  0.00  0.00    +0.000 C 
BRANCH  26  27
ATOM     27  O   UNL     1      19.962   2.750 186.185  0.00  0.00    +0.000 OA
ATOM     28  H   UNL     1      19.035   3.043 186.251  0.00  0.00    +0.000 HD
ENDBRANCH  26  27
ENDBRANCH   3  26
TORSDOF 6
ENDMDL
MODEL 6
REMARK VINA RESULT:      -7.0      2.075      3.597
REMARK  Name = 5318517_Andrographolide.pdbqt.pdb
REMARK  6 active torsions:
REMARK  status: ('A' for Active; 'I' for Inactive)
REMARK    1  A    between atoms: C_3  and  C_16
REMARK    2  A    between atoms: C_4  and  C_19
REMARK    3  A    between atoms: C_6  and  O_14
REMARK    4  A    between atoms: C_16  and  O_17
REMARK    5  A    between atoms: C_22  and  C_23
REMARK    6  A    between atoms: C_24  and  O_27
REMARK                            x       y       z     vdW  Elec       q    Type
REMARK                         _______ _______ _______ _____ _____    ______ ____
ROOT
ATOM      1  C   UNL     1      21.236   2.023 190.397  0.00  0.00    +0.000 C 
ATOM      2  C   UNL     1      21.321   2.384 188.883  0.00  0.00    +0.000 C 
ATOM      3  C   UNL     1      20.085   2.784 188.057  0.00  0.00    +0.000 C 
ATOM      4  C   UNL     1      22.292   1.020 190.941  0.00  0.00    +0.000 C 
ATOM      5  C   UNL     1      19.894   1.476 190.571  0.00  0.00    +0.000 C 
ATOM      6  C   UNL     1      18.700   2.277 188.560  0.00  0.00    +0.000 C 
ATOM      7  C   UNL     1      22.631   2.261 188.339  0.00  0.00    +0.000 C 
ATOM      8  C   UNL     1      18.642   1.552 189.763  0.00  0.00    +0.000 C 
ATOM      9  C   UNL     1      21.394   3.352 191.196  0.00  0.00    +0.000 C 
ATOM     10  C   UNL     1      23.741   1.563 189.057  0.00  0.00    +0.000 C 
ATOM     11  C   UNL     1      23.622   0.942 190.318  0.00  0.00    +0.000 C 
ATOM     12  C   UNL     1      20.256   2.181 186.615  0.00  0.00    +0.000 C 
ATOM     13  C   UNL     1      24.621   0.158 190.725  0.00  0.00    +0.000 C 
ENDROOT
BRANCH   6  14
ATOM     14  O   UNL     1      17.529   2.700 187.954  0.00  0.00    +0.000 OA
ATOM     15  H   UNL     1      16.939   1.957 187.734  0.00  0.00    +0.000 HD
ENDBRANCH   6  14
BRANCH   4  16
ATOM     16  C   UNL     1      22.023   0.259 192.128  0.00  0.00    +0.000 C 
ATOM     17  C   UNL     1      21.729  -0.544 193.399  0.00  0.00    +0.000 C 
BRANCH  17  20
ATOM     18  O   UNL     1      21.767  -2.059 196.622  0.00  0.00    +0.000 OA
ATOM     19  O   UNL     1      23.608  -0.999 195.660  0.00  0.00    +0.000 OA
ATOM     20  C   UNL     1      21.471  -1.224 194.472  0.00  0.00    +0.000 C 
ATOM     21  C   UNL     1      20.228  -1.853 194.838  0.00  0.00    +0.000 C 
ATOM     22  C   UNL     1      22.452  -1.382 195.617  0.00  0.00    +0.000 C 
ATOM     23  C   UNL     1      20.557  -2.275 196.128  0.00  0.00    +0.000 C 
BRANCH  21  24
ATOM     24  O   UNL     1      19.037  -1.281 194.491  0.00  0.00    +0.000 OA
ATOM     25  H   UNL     1      18.447  -1.915 194.046  0.00  0.00    +0.000 HD
ENDBRANCH  21  24
ENDBRANCH  17  20
ENDBRANCH   4  16
BRANCH   3  26
ATOM     26  C   UNL     1      20.049   4.273 187.991  0.00  0.00    +0.000 C 
BRANCH  26  27
ATOM     27  O   UNL     1      20.022   5.608 187.943  0.00  0.00    +0.000 OA
ATOM     28  H   UNL     1      20.009   5.983 188.842  0.00  0.00    +0.000 HD
ENDBRANCH  26  27
ENDBRANCH   3  26
TORSDOF 6
ENDMDL
MODEL 7
REMARK VINA RESULT:      -6.9      2.495      7.956
REMARK  Name = 5318517_Andrographolide.pdbqt.pdb
REMARK  6 active torsions:
REMARK  status: ('A' for Active; 'I' for Inactive)
REMARK    1  A    between atoms: C_3  and  C_16
REMARK    2  A    between atoms: C_4  and  C_19
REMARK    3  A    between atoms: C_6  and  O_14
REMARK    4  A    between atoms: C_16  and  O_17
REMARK    5  A    between atoms: C_22  and  C_23
REMARK    6  A    between atoms: C_24  and  O_27
REMARK                            x       y       z     vdW  Elec       q    Type
REMARK                         _______ _______ _______ _____ _____    ______ ____
ROOT
ATOM      1  C   UNL     1      20.616  -0.383 193.149  0.00  0.00    +0.000 C 
ATOM      2  C   UNL     1      21.280  -0.601 194.543  0.00  0.00    +0.000 C 
ATOM      3  C   UNL     1      20.509  -0.425 195.863  0.00  0.00    +0.000 C 
ATOM      4  C   UNL     1      21.543   0.092 191.995  0.00  0.00    +0.000 C 
ATOM      5  C   UNL     1      19.572   0.609 193.389  0.00  0.00    +0.000 C 
ATOM      6  C   UNL     1      19.265   0.514 195.841  0.00  0.00    +0.000 C 
ATOM      7  C   UNL     1      22.664  -0.927 194.470  0.00  0.00    +0.000 C 
ATOM      8  C   UNL     1      18.875   1.088 194.617  0.00  0.00    +0.000 C 
ATOM      9  C   UNL     1      19.989  -1.744 192.720  0.00  0.00    +0.000 C 
ATOM     10  C   UNL     1      23.466  -0.770 193.219  0.00  0.00    +0.000 C 
ATOM     11  C   UNL     1      22.966  -0.276 191.996  0.00  0.00    +0.000 C 
ATOM     12  C   UNL     1      21.494   0.206 196.913  0.00  0.00    +0.000 C 
ATOM     13  C   UNL     1      23.845   0.032 191.041  0.00  0.00    +0.000 C 
ENDROOT
BRANCH   6  14
ATOM     14  O   UNL     1      18.441   0.624 196.947  0.00  0.00    +0.000 OA
ATOM     15  H   UNL     1      17.670   0.032 196.893  0.00  0.00    +0.000 HD
ENDBRANCH   6  14
BRANCH   4  16
ATOM     16  C   UNL     1      20.992   0.780 190.861  0.00  0.00    +0.000 C 
ATOM     17  C   UNL     1      20.408   1.505 189.645  0.00  0.00    +0.000 C 
BRANCH  17  20
ATOM     18  O   UNL     1      19.784   2.940 186.445  0.00  0.00    +0.000 OA
ATOM     19  O   UNL     1      21.882   2.213 187.159  0.00  0.00    +0.000 OA
ATOM     20  C   UNL     1      19.907   2.112 188.615  0.00  0.00    +0.000 C 
ATOM     21  C   UNL     1      18.541   2.524 188.414  0.00  0.00    +0.000 C 
ATOM     22  C   UNL     1      20.694   2.404 187.353  0.00  0.00    +0.000 C 
ATOM     23  C   UNL     1      18.628   2.966 187.092  0.00  0.00    +0.000 C 
BRANCH  21  24
ATOM     24  O   UNL     1      17.515   1.773 188.913  0.00  0.00    +0.000 OA
ATOM     25  H   UNL     1      17.664   1.528 189.843  0.00  0.00    +0.000 HD
ENDBRANCH  21  24
ENDBRANCH  17  20
ENDBRANCH   4  16
BRANCH   3  26
ATOM     26  C   UNL     1      20.073  -1.777 196.315  0.00  0.00    +0.000 C 
BRANCH  26  27
ATOM     27  O   UNL     1      19.678  -2.991 196.708  0.00  0.00    +0.000 OA
ATOM     28  H   UNL     1      18.844  -2.935 197.209  0.00  0.00    +0.000 HD
ENDBRANCH  26  27
ENDBRANCH   3  26
TORSDOF 6
ENDMDL
MODEL 8
REMARK VINA RESULT:      -6.9      3.350      6.084
REMARK  Name = 5318517_Andrographolide.pdbqt.pdb
REMARK  6 active torsions:
REMARK  status: ('A' for Active; 'I' for Inactive)
REMARK    1  A    between atoms: C_3  and  C_16
REMARK    2  A    between atoms: C_4  and  C_19
REMARK    3  A    between atoms: C_6  and  O_14
REMARK    4  A    between atoms: C_16  and  O_17
REMARK    5  A    between atoms: C_22  and  C_23
REMARK    6  A    between atoms: C_24  and  O_27
REMARK                            x       y       z     vdW  Elec       q    Type
REMARK                         _______ _______ _______ _____ _____    ______ ____
ROOT
ATOM      1  C   UNL     1      24.248   2.121 191.147  0.00  0.00    +0.000 C 
ATOM      2  C   UNL     1      25.718   1.638 191.334  0.00  0.00    +0.000 C 
ATOM      3  C   UNL     1      26.908   2.316 190.632  0.00  0.00    +0.000 C 
ATOM      4  C   UNL     1      23.131   1.048 191.289  0.00  0.00    +0.000 C 
ATOM      5  C   UNL     1      24.217   2.698 189.807  0.00  0.00    +0.000 C 
ATOM      6  C   UNL     1      26.608   3.090 189.313  0.00  0.00    +0.000 C 
ATOM      7  C   UNL     1      25.840   0.492 192.171  0.00  0.00    +0.000 C 
ATOM      8  C   UNL     1      25.275   3.187 188.876  0.00  0.00    +0.000 C 
ATOM      9  C   UNL     1      23.984   3.219 192.222  0.00  0.00    +0.000 C 
ATOM     10  C   UNL     1      24.667  -0.344 192.571  0.00  0.00    +0.000 C 
ATOM     11  C   UNL     1      23.336  -0.116 192.164  0.00  0.00    +0.000 C 
ATOM     12  C   UNL     1      27.936   1.194 190.238  0.00  0.00    +0.000 C 
ATOM     13  C   UNL     1      22.437  -1.072 192.400  0.00  0.00    +0.000 C 
ENDROOT
BRANCH   6  14
ATOM     14  O   UNL     1      27.593   3.838 188.691  0.00  0.00    +0.000 OA
ATOM     15  H   UNL     1      27.646   3.656 187.736  0.00  0.00    +0.000 HD
ENDBRANCH   6  14
BRANCH   4  16
ATOM     16  C   UNL     1      21.851   1.251 190.670  0.00  0.00    +0.000 C 
ATOM     17  C   UNL     1      20.481   1.464 190.021  0.00  0.00    +0.000 C 
BRANCH  17  20
ATOM     18  O   UNL     1      17.767   2.312 187.875  0.00  0.00    +0.000 OA
ATOM     19  O   UNL     1      19.948   3.088 187.586  0.00  0.00    +0.000 OA
ATOM     20  C   UNL     1      19.320   1.652 189.476  0.00  0.00    +0.000 C 
ATOM     21  C   UNL     1      18.057   1.086 189.877  0.00  0.00    +0.000 C 
ATOM     22  C   UNL     1      19.113   2.451 188.204  0.00  0.00    +0.000 C 
ATOM     23  C   UNL     1      17.257   1.547 188.829  0.00  0.00    +0.000 C 
BRANCH  21  24
ATOM     24  O   UNL     1      18.001  -0.177 190.395  0.00  0.00    +0.000 OA
ATOM     25  H   UNL     1      18.764  -0.365 190.970  0.00  0.00    +0.000 HD
ENDBRANCH  21  24
ENDBRANCH  17  20
ENDBRANCH   4  16
BRANCH   3  26
ATOM     26  C   UNL     1      27.526   3.262 191.605  0.00  0.00    +0.000 C 
BRANCH  26  27
ATOM     27  O   UNL     1      28.073   4.105 192.485  0.00  0.00    +0.000 OA
ATOM     28  H   UNL     1      27.571   4.940 192.517  0.00  0.00    +0.000 HD
ENDBRANCH  26  27
ENDBRANCH   3  26
TORSDOF 6
ENDMDL
MODEL 9
REMARK VINA RESULT:      -6.8      6.697      9.876
REMARK  Name = 5318517_Andrographolide.pdbqt.pdb
REMARK  6 active torsions:
REMARK  status: ('A' for Active; 'I' for Inactive)
REMARK    1  A    between atoms: C_3  and  C_16
REMARK    2  A    between atoms: C_4  and  C_19
REMARK    3  A    between atoms: C_6  and  O_14
REMARK    4  A    between atoms: C_16  and  O_17
REMARK    5  A    between atoms: C_22  and  C_23
REMARK    6  A    between atoms: C_24  and  O_27
REMARK                            x       y       z     vdW  Elec       q    Type
REMARK                         _______ _______ _______ _____ _____    ______ ____
ROOT
ATOM      1  C   UNL     1      29.753   3.369 190.004  0.00  0.00    +0.000 C 
ATOM      2  C   UNL     1      31.116   2.616 189.934  0.00  0.00    +0.000 C 
ATOM      3  C   UNL     1      32.426   3.311 189.521  0.00  0.00    +0.000 C 
ATOM      4  C   UNL     1      28.471   2.528 189.744  0.00  0.00    +0.000 C 
ATOM      5  C   UNL     1      29.865   4.428 189.006  0.00  0.00    +0.000 C 
ATOM      6  C   UNL     1      32.304   4.583 188.630  0.00  0.00    +0.000 C 
ATOM      7  C   UNL     1      31.018   1.229 190.241  0.00  0.00    +0.000 C 
ATOM      8  C   UNL     1      31.021   5.065 188.312  0.00  0.00    +0.000 C 
ATOM      9  C   UNL     1      29.635   3.975 191.436  0.00  0.00    +0.000 C 
ATOM     10  C   UNL     1      29.710   0.508 190.314  0.00  0.00    +0.000 C 
ATOM     11  C   UNL     1      28.450   1.096 190.076  0.00  0.00    +0.000 C 
ATOM     12  C   UNL     1      33.268   2.286 188.679  0.00  0.00    +0.000 C 
ATOM     13  C   UNL     1      27.398   0.287 189.941  0.00  0.00    +0.000 C 
ENDROOT
BRANCH   6  14
ATOM     14  O   UNL     1      33.420   5.343 188.324  0.00  0.00    +0.000 OA
ATOM     15  H   UNL     1      33.628   5.990 189.022  0.00  0.00    +0.000 HD
ENDBRANCH   6  14
BRANCH   4  16
ATOM     16  C   UNL     1      27.264   3.168 189.300  0.00  0.00    +0.000 C 
ATOM     17  C   UNL     1      25.971   3.843 188.833  0.00  0.00    +0.000 C 
BRANCH  17  20
ATOM     18  O   UNL     1      22.722   5.282 188.595  0.00  0.00    +0.000 OA
ATOM     19  O   UNL     1      23.427   3.946 190.372  0.00  0.00    +0.000 OA
ATOM     20  C   UNL     1      24.876   4.417 188.446  0.00  0.00    +0.000 C 
ATOM     21  C   UNL     1      24.656   5.171 187.238  0.00  0.00    +0.000 C 
ATOM     22  C   UNL     1      23.621   4.481 189.295  0.00  0.00    +0.000 C 
ATOM     23  C   UNL     1      23.360   5.629 187.487  0.00  0.00    +0.000 C 
BRANCH  21  24
ATOM     24  O   UNL     1      25.658   5.935 186.710  0.00  0.00    +0.000 OA
ATOM     25  H   UNL     1      25.411   6.309 185.846  0.00  0.00    +0.000 HD
ENDBRANCH  21  24
ENDBRANCH  17  20
ENDBRANCH   4  16
BRANCH   3  26
ATOM     26  C   UNL     1      33.156   3.675 190.769  0.00  0.00    +0.000 C 
BRANCH  26  27
ATOM     27  O   UNL     1      33.807   4.014 191.886  0.00  0.00    +0.000 OA
ATOM     28  H   UNL     1      34.120   4.935 191.834  0.00  0.00    +0.000 HD
ENDBRANCH  26  27
ENDBRANCH   3  26
TORSDOF 6
ENDMDL
