MODEL 1
REMARK VINA RESULT:      -8.9      0.000      0.000
REMARK  Name = 5326018_Caulerpin.pdbqt.pdb
REMARK  4 active torsions:
REMARK  status: ('A' for Active; 'I' for Inactive)
REMARK    1  A    between atoms: C_11  and  C_26
REMARK    2  A    between atoms: C_12  and  C_30
REMARK    3  A    between atoms: C_26  and  O_27
REMARK    4  A    between atoms: C_30  and  O_31
REMARK                            x       y       z     vdW  Elec       q    Type
REMARK                         _______ _______ _______ _____ _____    ______ ____
ROOT
ATOM      1  N   UNL     1      23.964   3.752 190.520  0.00  0.00    +0.000 N 
ATOM      2  N   UNL     1      18.686   1.203 193.405  0.00  0.00    +0.000 N 
ATOM      3  C   UNL     1      21.844   3.136 190.329  0.00  0.00    +0.000 C 
ATOM      4  C   UNL     1      20.887   1.464 193.430  0.00  0.00    +0.000 C 
ATOM      5  C   UNL     1      22.994   2.958 191.095  0.00  0.00    +0.000 C 
ATOM      6  C   UNL     1      19.765   1.518 192.606  0.00  0.00    +0.000 C 
ATOM      7  C   UNL     1      22.140   3.994 189.243  0.00  0.00    +0.000 A 
ATOM      8  C   UNL     1      20.490   1.050 194.724  0.00  0.00    +0.000 A 
ATOM      9  C   UNL     1      23.478   4.363 189.383  0.00  0.00    +0.000 A 
ATOM     10  C   UNL     1      19.105   0.888 194.681  0.00  0.00    +0.000 A 
ATOM     11  C   UNL     1      23.243   2.212 192.300  0.00  0.00    +0.000 C 
ATOM     12  C   UNL     1      19.600   1.891 191.226  0.00  0.00    +0.000 C 
ATOM     13  C   UNL     1      22.198   1.811 192.976  0.00  0.00    +0.000 C 
ATOM     14  C   UNL     1      20.591   2.533 190.663  0.00  0.00    +0.000 C 
ATOM     15  C   UNL     1      21.403   4.511 188.162  0.00  0.00    +0.000 A 
ATOM     16  C   UNL     1      21.164   0.811 195.936  0.00  0.00    +0.000 A 
ATOM     17  C   UNL     1      24.123   5.225 188.490  0.00  0.00    +0.000 A 
ATOM     18  C   UNL     1      18.354   0.492 195.793  0.00  0.00    +0.000 A 
ATOM     19  C   UNL     1      22.033   5.368 187.258  0.00  0.00    +0.000 A 
ATOM     20  C   UNL     1      20.430   0.410 197.054  0.00  0.00    +0.000 A 
ATOM     21  C   UNL     1      23.370   5.716 187.421  0.00  0.00    +0.000 A 
ATOM     22  C   UNL     1      19.050   0.253 196.979  0.00  0.00    +0.000 A 
ATOM     23  H   UNL     1      24.905   3.900 190.861  0.00  0.00    +0.000 HD
ATOM     24  H   UNL     1      17.710   1.203 193.134  0.00  0.00    +0.000 HD
ENDROOT
BRANCH  11  26
ATOM     25  O   UNL     1      24.859   0.569 192.944  0.00  0.00    +0.000 OA
ATOM     26  C   UNL     1      24.582   1.750 192.768  0.00  0.00    +0.000 C 
BRANCH  26  27
ATOM     27  O   UNL     1      25.392   2.836 192.927  0.00  0.00    +0.000 OA
ATOM     28  C   UNL     1      25.326   3.542 194.138  0.00  0.00    +0.000 C 
ENDBRANCH  26  27
ENDBRANCH  11  26
BRANCH  12  30
ATOM     29  O   UNL     1      17.376   1.118 190.794  0.00  0.00    +0.000 OA
ATOM     30  C   UNL     1      18.456   1.494 190.354  0.00  0.00    +0.000 C 
BRANCH  30  31
ATOM     31  O   UNL     1      18.824   1.648 189.049  0.00  0.00    +0.000 OA
ATOM     32  C   UNL     1      17.931   2.295 188.180  0.00  0.00    +0.000 C 
ENDBRANCH  30  31
ENDBRANCH  12  30
TORSDOF 4
ENDMDL
MODEL 2
REMARK VINA RESULT:      -8.9      0.135      7.742
REMARK  Name = 5326018_Caulerpin.pdbqt.pdb
REMARK  4 active torsions:
REMARK  status: ('A' for Active; 'I' for Inactive)
REMARK    1  A    between atoms: C_11  and  C_26
REMARK    2  A    between atoms: C_12  and  C_30
REMARK    3  A    between atoms: C_26  and  O_27
REMARK    4  A    between atoms: C_30  and  O_31
REMARK                            x       y       z     vdW  Elec       q    Type
REMARK                         _______ _______ _______ _____ _____    ______ ____
ROOT
ATOM      1  N   UNL     1      18.654   1.170 193.450  0.00  0.00    +0.000 N 
ATOM      2  N   UNL     1      23.885   3.844 190.590  0.00  0.00    +0.000 N 
ATOM      3  C   UNL     1      20.845   1.505 193.499  0.00  0.00    +0.000 C 
ATOM      4  C   UNL     1      21.788   3.155 190.382  0.00  0.00    +0.000 C 
ATOM      5  C   UNL     1      19.733   1.507 192.659  0.00  0.00    +0.000 C 
ATOM      6  C   UNL     1      22.932   3.028 191.165  0.00  0.00    +0.000 C 
ATOM      7  C   UNL     1      20.444   1.098 194.794  0.00  0.00    +0.000 A 
ATOM      8  C   UNL     1      22.071   4.005 189.285  0.00  0.00    +0.000 A 
ATOM      9  C   UNL     1      19.066   0.890 194.735  0.00  0.00    +0.000 A 
ATOM     10  C   UNL     1      23.394   4.419 189.437  0.00  0.00    +0.000 A 
ATOM     11  C   UNL     1      19.575   1.851 191.270  0.00  0.00    +0.000 C 
ATOM     12  C   UNL     1      23.191   2.311 192.387  0.00  0.00    +0.000 C 
ATOM     13  C   UNL     1      20.552   2.516 190.709  0.00  0.00    +0.000 C 
ATOM     14  C   UNL     1      22.150   1.888 193.056  0.00  0.00    +0.000 C 
ATOM     15  C   UNL     1      21.109   0.903 196.018  0.00  0.00    +0.000 A 
ATOM     16  C   UNL     1      21.332   4.479 188.186  0.00  0.00    +0.000 A 
ATOM     17  C   UNL     1      18.313   0.488 195.844  0.00  0.00    +0.000 A 
ATOM     18  C   UNL     1      24.023   5.287 188.537  0.00  0.00    +0.000 A 
ATOM     19  C   UNL     1      20.374   0.496 197.134  0.00  0.00    +0.000 A 
ATOM     20  C   UNL     1      21.946   5.340 187.275  0.00  0.00    +0.000 A 
ATOM     21  C   UNL     1      19.001   0.293 197.044  0.00  0.00    +0.000 A 
ATOM     22  C   UNL     1      23.269   5.735 187.451  0.00  0.00    +0.000 A 
ATOM     23  H   UNL     1      17.684   1.134 193.165  0.00  0.00    +0.000 HD
ATOM     24  H   UNL     1      24.817   4.029 190.941  0.00  0.00    +0.000 HD
ENDROOT
BRANCH  11  26
ATOM     25  O   UNL     1      17.390   0.982 190.824  0.00  0.00    +0.000 OA
ATOM     26  C   UNL     1      18.456   1.402 190.391  0.00  0.00    +0.000 C 
BRANCH  26  27
ATOM     27  O   UNL     1      18.828   1.567 189.088  0.00  0.00    +0.000 OA
ATOM     28  C   UNL     1      17.941   2.227 188.224  0.00  0.00    +0.000 C 
ENDBRANCH  26  27
ENDBRANCH  11  26
BRANCH  12  30
ATOM     29  O   UNL     1      24.829   0.741 193.149  0.00  0.00    +0.000 OA
ATOM     30  C   UNL     1      24.538   1.901 192.881  0.00  0.00    +0.000 C 
BRANCH  30  31
ATOM     31  O   UNL     1      25.337   3.005 192.945  0.00  0.00    +0.000 OA
ATOM     32  C   UNL     1      25.690   3.495 194.212  0.00  0.00    +0.000 C 
ENDBRANCH  30  31
ENDBRANCH  12  30
TORSDOF 4
ENDMDL
MODEL 3
REMARK VINA RESULT:      -8.5      2.855      6.446
REMARK  Name = 5326018_Caulerpin.pdbqt.pdb
REMARK  4 active torsions:
REMARK  status: ('A' for Active; 'I' for Inactive)
REMARK    1  A    between atoms: C_11  and  C_26
REMARK    2  A    between atoms: C_12  and  C_30
REMARK    3  A    between atoms: C_26  and  O_27
REMARK    4  A    between atoms: C_30  and  O_31
REMARK                            x       y       z     vdW  Elec       q    Type
REMARK                         _______ _______ _______ _____ _____    ______ ____
ROOT
ATOM      1  N   UNL     1      26.454   0.881 190.707  0.00  0.00    +0.000 N 
ATOM      2  N   UNL     1      20.030   1.491 189.680  0.00  0.00    +0.000 N 
ATOM      3  C   UNL     1      24.400   0.562 191.475  0.00  0.00    +0.000 C 
ATOM      4  C   UNL     1      22.080   2.139 189.138  0.00  0.00    +0.000 C 
ATOM      5  C   UNL     1      25.147   1.294 190.555  0.00  0.00    +0.000 C 
ATOM      6  C   UNL     1      21.332   1.523 190.137  0.00  0.00    +0.000 C 
ATOM      7  C   UNL     1      25.273  -0.252 192.235  0.00  0.00    +0.000 A 
ATOM      8  C   UNL     1      21.213   2.542 188.094  0.00  0.00    +0.000 A 
ATOM      9  C   UNL     1      26.556  -0.030 191.737  0.00  0.00    +0.000 A 
ATOM     10  C   UNL     1      19.933   2.128 188.460  0.00  0.00    +0.000 A 
ATOM     11  C   UNL     1      24.766   2.243 189.541  0.00  0.00    +0.000 C 
ATOM     12  C   UNL     1      21.706   0.920 191.390  0.00  0.00    +0.000 C 
ATOM     13  C   UNL     1      23.501   2.284 189.214  0.00  0.00    +0.000 C 
ATOM     14  C   UNL     1      22.975   0.655 191.564  0.00  0.00    +0.000 C 
ATOM     15  C   UNL     1      25.102  -1.171 193.287  0.00  0.00    +0.000 A 
ATOM     16  C   UNL     1      21.387   3.202 186.864  0.00  0.00    +0.000 A 
ATOM     17  C   UNL     1      27.688  -0.680 192.241  0.00  0.00    +0.000 A 
ATOM     18  C   UNL     1      18.808   2.345 187.657  0.00  0.00    +0.000 A 
ATOM     19  C   UNL     1      26.222  -1.824 193.807  0.00  0.00    +0.000 A 
ATOM     20  C   UNL     1      20.275   3.432 186.053  0.00  0.00    +0.000 A 
ATOM     21  C   UNL     1      27.490  -1.580 193.291  0.00  0.00    +0.000 A 
ATOM     22  C   UNL     1      19.009   3.011 186.446  0.00  0.00    +0.000 A 
ATOM     23  H   UNL     1      27.249   1.174 190.153  0.00  0.00    +0.000 HD
ATOM     24  H   UNL     1      19.237   1.061 190.138  0.00  0.00    +0.000 HD
ENDROOT
BRANCH  11  26
ATOM     25  O   UNL     1      26.820   3.448 189.304  0.00  0.00    +0.000 OA
ATOM     26  C   UNL     1      25.667   3.265 188.933  0.00  0.00    +0.000 C 
BRANCH  26  27
ATOM     27  O   UNL     1      24.997   3.897 187.925  0.00  0.00    +0.000 OA
ATOM     28  C   UNL     1      25.323   5.233 187.648  0.00  0.00    +0.000 C 
ENDBRANCH  26  27
ENDBRANCH  11  26
BRANCH  12  30
ATOM     29  O   UNL     1      19.858   1.439 192.820  0.00  0.00    +0.000 OA
ATOM     30  C   UNL     1      20.793   0.696 192.549  0.00  0.00    +0.000 C 
BRANCH  30  31
ATOM     31  O   UNL     1      21.172  -0.447 193.192  0.00  0.00    +0.000 OA
ATOM     32  C   UNL     1      20.361  -1.585 193.056  0.00  0.00    +0.000 C 
ENDBRANCH  30  31
ENDBRANCH  12  30
TORSDOF 4
ENDMDL
MODEL 4
REMARK VINA RESULT:      -8.2      2.468      6.358
REMARK  Name = 5326018_Caulerpin.pdbqt.pdb
REMARK  4 active torsions:
REMARK  status: ('A' for Active; 'I' for Inactive)
REMARK    1  A    between atoms: C_11  and  C_26
REMARK    2  A    between atoms: C_12  and  C_30
REMARK    3  A    between atoms: C_26  and  O_27
REMARK    4  A    between atoms: C_30  and  O_31
REMARK                            x       y       z     vdW  Elec       q    Type
REMARK                         _______ _______ _______ _____ _____    ______ ____
ROOT
ATOM      1  N   UNL     1      25.002   0.612 192.653  0.00  0.00    +0.000 N 
ATOM      2  N   UNL     1      19.408   1.898 189.533  0.00  0.00    +0.000 N 
ATOM      3  C   UNL     1      22.788   0.654 192.727  0.00  0.00    +0.000 C 
ATOM      4  C   UNL     1      21.600   2.209 189.645  0.00  0.00    +0.000 C 
ATOM      5  C   UNL     1      23.892   1.165 192.050  0.00  0.00    +0.000 C 
ATOM      6  C   UNL     1      20.488   1.821 190.388  0.00  0.00    +0.000 C 
ATOM      7  C   UNL     1      23.237  -0.164 193.792  0.00  0.00    +0.000 A 
ATOM      8  C   UNL     1      21.180   2.585 188.347  0.00  0.00    +0.000 A 
ATOM      9  C   UNL     1      24.630  -0.169 193.726  0.00  0.00    +0.000 A 
ATOM     10  C   UNL     1      19.800   2.386 188.304  0.00  0.00    +0.000 A 
ATOM     11  C   UNL     1      24.005   2.021 190.898  0.00  0.00    +0.000 C 
ATOM     12  C   UNL     1      20.350   1.336 191.737  0.00  0.00    +0.000 C 
ATOM     13  C   UNL     1      22.930   2.182 190.171  0.00  0.00    +0.000 C 
ATOM     14  C   UNL     1      21.441   0.936 192.336  0.00  0.00    +0.000 C 
ATOM     15  C   UNL     1      22.601  -0.916 194.796  0.00  0.00    +0.000 A 
ATOM     16  C   UNL     1      21.834   3.061 187.195  0.00  0.00    +0.000 A 
ATOM     17  C   UNL     1      25.427  -0.890 194.622  0.00  0.00    +0.000 A 
ATOM     18  C   UNL     1      19.033   2.642 187.162  0.00  0.00    +0.000 A 
ATOM     19  C   UNL     1      23.382  -1.636 195.703  0.00  0.00    +0.000 A 
ATOM     20  C   UNL     1      21.083   3.327 186.049  0.00  0.00    +0.000 A 
ATOM     21  C   UNL     1      24.770  -1.620 195.615  0.00  0.00    +0.000 A 
ATOM     22  C   UNL     1      19.707   3.122 186.037  0.00  0.00    +0.000 A 
ATOM     23  H   UNL     1      25.967   0.731 192.370  0.00  0.00    +0.000 HD
ATOM     24  H   UNL     1      18.453   1.632 189.737  0.00  0.00    +0.000 HD
ENDROOT
BRANCH  11  26
ATOM     25  O   UNL     1      25.840   3.485 191.364  0.00  0.00    +0.000 OA
ATOM     26  C   UNL     1      25.202   2.837 190.542  0.00  0.00    +0.000 C 
BRANCH  26  27
ATOM     27  O   UNL     1      25.442   2.706 189.205  0.00  0.00    +0.000 OA
ATOM     28  C   UNL     1      26.306   1.684 188.784  0.00  0.00    +0.000 C 
ENDBRANCH  26  27
ENDBRANCH  11  26
BRANCH  12  30
ATOM     29  O   UNL     1      18.012   1.713 192.086  0.00  0.00    +0.000 OA
ATOM     30  C   UNL     1      19.097   1.375 192.546  0.00  0.00    +0.000 C 
BRANCH  30  31
ATOM     31  O   UNL     1      19.380   0.959 193.814  0.00  0.00    +0.000 OA
ATOM     32  C   UNL     1      18.545  -0.005 194.399  0.00  0.00    +0.000 C 
ENDBRANCH  30  31
ENDBRANCH  12  30
TORSDOF 4
ENDMDL
MODEL 5
REMARK VINA RESULT:      -7.9      2.945      7.191
REMARK  Name = 5326018_Caulerpin.pdbqt.pdb
REMARK  4 active torsions:
REMARK  status: ('A' for Active; 'I' for Inactive)
REMARK    1  A    between atoms: C_11  and  C_26
REMARK    2  A    between atoms: C_12  and  C_30
REMARK    3  A    between atoms: C_26  and  O_27
REMARK    4  A    between atoms: C_30  and  O_31
REMARK                            x       y       z     vdW  Elec       q    Type
REMARK                         _______ _______ _______ _____ _____    ______ ____
ROOT
ATOM      1  N   UNL     1      22.398  -0.951 194.386  0.00  0.00    +0.000 N 
ATOM      2  N   UNL     1      22.372   2.135 188.627  0.00  0.00    +0.000 N 
ATOM      3  C   UNL     1      23.572  -0.200 192.662  0.00  0.00    +0.000 C 
ATOM      4  C   UNL     1      21.214   1.032 190.162  0.00  0.00    +0.000 C 
ATOM      5  C   UNL     1      22.288  -0.556 193.069  0.00  0.00    +0.000 C 
ATOM      6  C   UNL     1      22.503   1.265 189.690  0.00  0.00    +0.000 C 
ATOM      7  C   UNL     1      24.476  -0.443 193.723  0.00  0.00    +0.000 A 
ATOM      8  C   UNL     1      20.289   1.716 189.337  0.00  0.00    +0.000 A 
ATOM      9  C   UNL     1      23.716  -0.918 194.791  0.00  0.00    +0.000 A 
ATOM     10  C   UNL     1      21.040   2.396 188.379  0.00  0.00    +0.000 A 
ATOM     11  C   UNL     1      21.014  -0.496 192.401  0.00  0.00    +0.000 C 
ATOM     12  C   UNL     1      23.794   0.834 190.158  0.00  0.00    +0.000 C 
ATOM     13  C   UNL     1      20.946   0.235 191.319  0.00  0.00    +0.000 C 
ATOM     14  C   UNL     1      23.851   0.343 191.369  0.00  0.00    +0.000 C 
ATOM     15  C   UNL     1      25.865  -0.292 193.892  0.00  0.00    +0.000 A 
ATOM     16  C   UNL     1      18.887   1.841 189.315  0.00  0.00    +0.000 A 
ATOM     17  C   UNL     1      24.275  -1.257 196.028  0.00  0.00    +0.000 A 
ATOM     18  C   UNL     1      20.459   3.198 187.390  0.00  0.00    +0.000 A 
ATOM     19  C   UNL     1      26.441  -0.631 195.119  0.00  0.00    +0.000 A 
ATOM     20  C   UNL     1      18.291   2.632 188.332  0.00  0.00    +0.000 A 
ATOM     21  C   UNL     1      25.657  -1.106 196.165  0.00  0.00    +0.000 A 
ATOM     22  C   UNL     1      19.066   3.296 187.387  0.00  0.00    +0.000 A 
ATOM     23  H   UNL     1      21.642  -1.221 195.002  0.00  0.00    +0.000 HD
ATOM     24  H   UNL     1      23.121   2.553 188.089  0.00  0.00    +0.000 HD
ENDROOT
BRANCH  11  26
ATOM     25  O   UNL     1      19.204  -1.999 191.964  0.00  0.00    +0.000 OA
ATOM     26  C   UNL     1      19.809  -1.297 192.765  0.00  0.00    +0.000 C 
BRANCH  26  27
ATOM     27  O   UNL     1      19.549  -1.121 194.093  0.00  0.00    +0.000 OA
ATOM     28  C   UNL     1      18.706  -0.064 194.470  0.00  0.00    +0.000 C 
ENDBRANCH  26  27
ENDBRANCH  11  26
BRANCH  12  30
ATOM     29  O   UNL     1      25.044   0.911 188.118  0.00  0.00    +0.000 OA
ATOM     30  C   UNL     1      25.039   0.782 189.336  0.00  0.00    +0.000 C 
BRANCH  30  31
ATOM     31  O   UNL     1      26.106   0.597 190.167  0.00  0.00    +0.000 OA
ATOM     32  C   UNL     1      27.371   1.010 189.722  0.00  0.00    +0.000 C 
ENDBRANCH  30  31
ENDBRANCH  12  30
TORSDOF 4
ENDMDL
MODEL 6
REMARK VINA RESULT:      -7.6      2.411      6.138
REMARK  Name = 5326018_Caulerpin.pdbqt.pdb
REMARK  4 active torsions:
REMARK  status: ('A' for Active; 'I' for Inactive)
REMARK    1  A    between atoms: C_11  and  C_26
REMARK    2  A    between atoms: C_12  and  C_30
REMARK    3  A    between atoms: C_26  and  O_27
REMARK    4  A    between atoms: C_30  and  O_31
REMARK                            x       y       z     vdW  Elec       q    Type
REMARK                         _______ _______ _______ _____ _____    ______ ____
ROOT
ATOM      1  N   UNL     1      24.882   0.977 193.102  0.00  0.00    +0.000 N 
ATOM      2  N   UNL     1      18.548   0.727 191.520  0.00  0.00    +0.000 N 
ATOM      3  C   UNL     1      22.824   0.421 193.709  0.00  0.00    +0.000 C 
ATOM      4  C   UNL     1      20.540   1.616 191.124  0.00  0.00    +0.000 C 
ATOM      5  C   UNL     1      23.552   1.214 192.825  0.00  0.00    +0.000 C 
ATOM      6  C   UNL     1      19.789   0.939 192.082  0.00  0.00    +0.000 C 
ATOM      7  C   UNL     1      23.723  -0.251 194.572  0.00  0.00    +0.000 A 
ATOM      8  C   UNL     1      19.724   1.872 189.996  0.00  0.00    +0.000 A 
ATOM      9  C   UNL     1      25.006   0.119 194.174  0.00  0.00    +0.000 A 
ATOM     10  C   UNL     1      18.479   1.309 190.271  0.00  0.00    +0.000 A 
ATOM     11  C   UNL     1      23.146   2.075 191.745  0.00  0.00    +0.000 C 
ATOM     12  C   UNL     1      20.125   0.428 193.386  0.00  0.00    +0.000 C 
ATOM     13  C   UNL     1      21.919   1.944 191.312  0.00  0.00    +0.000 C 
ATOM     14  C   UNL     1      21.397   0.333 193.675  0.00  0.00    +0.000 C 
ATOM     15  C   UNL     1      23.576  -1.152 195.643  0.00  0.00    +0.000 A 
ATOM     16  C   UNL     1      19.922   2.512 188.758  0.00  0.00    +0.000 A 
ATOM     17  C   UNL     1      26.162  -0.365 194.797  0.00  0.00    +0.000 A 
ATOM     18  C   UNL     1      17.410   1.355 189.369  0.00  0.00    +0.000 A 
ATOM     19  C   UNL     1      24.719  -1.640 196.281  0.00  0.00    +0.000 A 
ATOM     20  C   UNL     1      18.865   2.573 187.848  0.00  0.00    +0.000 A 
ATOM     21  C   UNL     1      25.987  -1.251 195.863  0.00  0.00    +0.000 A 
ATOM     22  C   UNL     1      17.632   2.005 188.152  0.00  0.00    +0.000 A 
ATOM     23  H   UNL     1      25.680   1.352 192.605  0.00  0.00    +0.000 HD
ATOM     24  H   UNL     1      17.777   0.213 191.928  0.00  0.00    +0.000 HD
ENDROOT
BRANCH  11  26
ATOM     25  O   UNL     1      25.019   3.562 191.662  0.00  0.00    +0.000 OA
ATOM     26  C   UNL     1      23.961   3.185 191.172  0.00  0.00    +0.000 C 
BRANCH  26  27
ATOM     27  O   UNL     1      23.343   3.650 190.047  0.00  0.00    +0.000 OA
ATOM     28  C   UNL     1      24.022   4.589 189.256  0.00  0.00    +0.000 C 
ENDBRANCH  26  27
ENDBRANCH  11  26
BRANCH  12  30
ATOM     29  O   UNL     1      18.142  -0.552 194.300  0.00  0.00    +0.000 OA
ATOM     30  C   UNL     1      19.149   0.124 194.473  0.00  0.00    +0.000 C 
BRANCH  30  31
ATOM     31  O   UNL     1      19.591   0.693 195.632  0.00  0.00    +0.000 OA
ATOM     32  C   UNL     1      18.750   0.650 196.755  0.00  0.00    +0.000 C 
ENDBRANCH  30  31
ENDBRANCH  12  30
TORSDOF 4
ENDMDL
MODEL 7
REMARK VINA RESULT:      -7.4     31.811     35.103
REMARK  Name = 5326018_Caulerpin.pdbqt.pdb
REMARK  4 active torsions:
REMARK  status: ('A' for Active; 'I' for Inactive)
REMARK    1  A    between atoms: C_11  and  C_26
REMARK    2  A    between atoms: C_12  and  C_30
REMARK    3  A    between atoms: C_26  and  O_27
REMARK    4  A    between atoms: C_30  and  O_31
REMARK                            x       y       z     vdW  Elec       q    Type
REMARK                         _______ _______ _______ _____ _____    ______ ____
ROOT
ATOM      1  N   UNL     1      39.697  -6.117 167.080  0.00  0.00    +0.000 N 
ATOM      2  N   UNL     1      39.174  -8.539 161.035  0.00  0.00    +0.000 N 
ATOM      3  C   UNL     1      40.586  -7.376 165.488  0.00  0.00    +0.000 C 
ATOM      4  C   UNL     1      38.153  -7.626 162.778  0.00  0.00    +0.000 C 
ATOM      5  C   UNL     1      39.391  -6.812 165.929  0.00  0.00    +0.000 C 
ATOM      6  C   UNL     1      39.301  -8.312 162.390  0.00  0.00    +0.000 C 
ATOM      7  C   UNL     1      41.610  -7.075 166.418  0.00  0.00    +0.000 A 
ATOM      8  C   UNL     1      37.293  -7.494 161.660  0.00  0.00    +0.000 A 
ATOM      9  C   UNL     1      41.025  -6.288 167.409  0.00  0.00    +0.000 A 
ATOM     10  C   UNL     1      37.955  -8.080 160.582  0.00  0.00    +0.000 A 
ATOM     11  C   UNL     1      38.067  -6.795 165.365  0.00  0.00    +0.000 C 
ATOM     12  C   UNL     1      40.487  -8.693 163.112  0.00  0.00    +0.000 C 
ATOM     13  C   UNL     1      37.954  -7.140 164.108  0.00  0.00    +0.000 C 
ATOM     14  C   UNL     1      40.690  -8.112 164.266  0.00  0.00    +0.000 C 
ATOM     15  C   UNL     1      42.981  -7.376 166.509  0.00  0.00    +0.000 A 
ATOM     16  C   UNL     1      36.025  -6.922 161.450  0.00  0.00    +0.000 A 
ATOM     17  C   UNL     1      41.744  -5.785 168.499  0.00  0.00    +0.000 A 
ATOM     18  C   UNL     1      37.409  -8.127 159.294  0.00  0.00    +0.000 A 
ATOM     19  C   UNL     1      43.713  -6.887 167.594  0.00  0.00    +0.000 A 
ATOM     20  C   UNL     1      35.464  -6.965 160.173  0.00  0.00    +0.000 A 
ATOM     21  C   UNL     1      43.102  -6.107 168.570  0.00  0.00    +0.000 A 
ATOM     22  C   UNL     1      36.146  -7.559 159.117  0.00  0.00    +0.000 A 
ATOM     23  H   UNL     1      39.067  -5.544 167.627  0.00  0.00    +0.000 HD
ATOM     24  H   UNL     1      39.859  -8.968 160.425  0.00  0.00    +0.000 HD
ENDROOT
BRANCH  11  26
ATOM     25  O   UNL     1      36.725  -5.732 167.037  0.00  0.00    +0.000 OA
ATOM     26  C   UNL     1      36.808  -6.545 166.124  0.00  0.00    +0.000 C 
BRANCH  26  27
ATOM     27  O   UNL     1      35.821  -7.338 165.613  0.00  0.00    +0.000 OA
ATOM     28  C   UNL     1      34.624  -6.729 165.208  0.00  0.00    +0.000 C 
ENDBRANCH  26  27
ENDBRANCH  11  26
BRANCH  12  30
ATOM     29  O   UNL     1      41.093 -10.739 162.028  0.00  0.00    +0.000 OA
ATOM     30  C   UNL     1      41.427  -9.782 162.716  0.00  0.00    +0.000 C 
BRANCH  30  31
ATOM     31  O   UNL     1      42.662  -9.501 163.224  0.00  0.00    +0.000 OA
ATOM     32  C   UNL     1      43.700  -9.216 162.323  0.00  0.00    +0.000 C 
ENDBRANCH  30  31
ENDBRANCH  12  30
TORSDOF 4
ENDMDL
MODEL 8
REMARK VINA RESULT:      -7.3     34.900     36.692
REMARK  Name = 5326018_Caulerpin.pdbqt.pdb
REMARK  4 active torsions:
REMARK  status: ('A' for Active; 'I' for Inactive)
REMARK    1  A    between atoms: C_11  and  C_26
REMARK    2  A    between atoms: C_12  and  C_30
REMARK    3  A    between atoms: C_26  and  O_27
REMARK    4  A    between atoms: C_30  and  O_31
REMARK                            x       y       z     vdW  Elec       q    Type
REMARK                         _______ _______ _______ _____ _____    ______ ____
ROOT
ATOM      1  N   UNL     1      40.067 -23.961 175.629  0.00  0.00    +0.000 N 
ATOM      2  N   UNL     1      38.941 -21.486 169.688  0.00  0.00    +0.000 N 
ATOM      3  C   UNL     1      38.663 -23.750 173.927  0.00  0.00    +0.000 C 
ATOM      4  C   UNL     1      40.135 -21.399 171.553  0.00  0.00    +0.000 C 
ATOM      5  C   UNL     1      39.789 -23.185 174.522  0.00  0.00    +0.000 C 
ATOM      6  C   UNL     1      38.936 -21.859 171.016  0.00  0.00    +0.000 C 
ATOM      7  C   UNL     1      38.218 -24.836 174.718  0.00  0.00    +0.000 A 
ATOM      8  C   UNL     1      40.844 -20.685 170.557  0.00  0.00    +0.000 A 
ATOM      9  C   UNL     1      39.113 -24.944 175.782  0.00  0.00    +0.000 A 
ATOM     10  C   UNL     1      40.071 -20.750 169.398  0.00  0.00    +0.000 A 
ATOM     11  C   UNL     1      40.637 -22.089 174.134  0.00  0.00    +0.000 C 
ATOM     12  C   UNL     1      37.865 -22.643 171.576  0.00  0.00    +0.000 C 
ATOM     13  C   UNL     1      40.532 -21.666 172.901  0.00  0.00    +0.000 C 
ATOM     14  C   UNL     1      38.113 -23.268 172.698  0.00  0.00    +0.000 C 
ATOM     15  C   UNL     1      37.154 -25.752 174.630  0.00  0.00    +0.000 A 
ATOM     16  C   UNL     1      42.073 -20.002 170.516  0.00  0.00    +0.000 A 
ATOM     17  C   UNL     1      38.997 -25.925 176.773  0.00  0.00    +0.000 A 
ATOM     18  C   UNL     1      40.464 -20.161 168.192  0.00  0.00    +0.000 A 
ATOM     19  C   UNL     1      37.020 -26.734 175.614  0.00  0.00    +0.000 A 
ATOM     20  C   UNL     1      42.478 -19.403 169.322  0.00  0.00    +0.000 A 
ATOM     21  C   UNL     1      37.926 -26.816 176.665  0.00  0.00    +0.000 A 
ATOM     22  C   UNL     1      41.685 -19.482 168.183  0.00  0.00    +0.000 A 
ATOM     23  H   UNL     1      40.856 -23.860 176.255  0.00  0.00    +0.000 HD
ATOM     24  H   UNL     1      38.241 -21.711 168.992  0.00  0.00    +0.000 HD
ENDROOT
BRANCH  11  26
ATOM     25  O   UNL     1      41.797 -21.684 176.188  0.00  0.00    +0.000 OA
ATOM     26  C   UNL     1      41.523 -21.316 175.052  0.00  0.00    +0.000 C 
BRANCH  26  27
ATOM     27  O   UNL     1      41.961 -20.198 174.402  0.00  0.00    +0.000 OA
ATOM     28  C   UNL     1      41.340 -18.975 174.694  0.00  0.00    +0.000 C 
ENDBRANCH  26  27
ENDBRANCH  11  26
BRANCH  12  30
ATOM     29  O   UNL     1      35.503 -22.273 171.682  0.00  0.00    +0.000 OA
ATOM     30  C   UNL     1      36.468 -22.695 171.056  0.00  0.00    +0.000 C 
BRANCH  30  31
ATOM     31  O   UNL     1      36.483 -23.249 169.809  0.00  0.00    +0.000 OA
ATOM     32  C   UNL     1      35.583 -22.756 168.852  0.00  0.00    +0.000 C 
ENDBRANCH  30  31
ENDBRANCH  12  30
TORSDOF 4
ENDMDL
MODEL 9
REMARK VINA RESULT:      -7.3     22.231     26.862
REMARK  Name = 5326018_Caulerpin.pdbqt.pdb
REMARK  4 active torsions:
REMARK  status: ('A' for Active; 'I' for Inactive)
REMARK    1  A    between atoms: C_11  and  C_26
REMARK    2  A    between atoms: C_12  and  C_30
REMARK    3  A    between atoms: C_26  and  O_27
REMARK    4  A    between atoms: C_30  and  O_31
REMARK                            x       y       z     vdW  Elec       q    Type
REMARK                         _______ _______ _______ _____ _____    ______ ____
ROOT
ATOM      1  N   UNL     1      22.016   7.751 164.298  0.00  0.00    +0.000 N 
ATOM      2  N   UNL     1      26.570   9.621 168.593  0.00  0.00    +0.000 N 
ATOM      3  C   UNL     1      24.014   8.649 164.631  0.00  0.00    +0.000 C 
ATOM      4  C   UNL     1      24.446   9.102 168.227  0.00  0.00    +0.000 C 
ATOM      5  C   UNL     1      22.796   8.375 165.248  0.00  0.00    +0.000 C 
ATOM      6  C   UNL     1      25.620   9.508 167.599  0.00  0.00    +0.000 C 
ATOM      7  C   UNL     1      23.946   8.246 163.276  0.00  0.00    +0.000 A 
ATOM      8  C   UNL     1      24.670   9.032 169.624  0.00  0.00    +0.000 A 
ATOM      9  C   UNL     1      22.680   7.690 163.091  0.00  0.00    +0.000 A 
ATOM     10  C   UNL     1      26.008   9.367 169.827  0.00  0.00    +0.000 A 
ATOM     11  C   UNL     1      22.337   8.563 166.599  0.00  0.00    +0.000 C 
ATOM     12  C   UNL     1      25.949   9.719 166.213  0.00  0.00    +0.000 C 
ATOM     13  C   UNL     1      23.248   8.798 167.508  0.00  0.00    +0.000 C 
ATOM     14  C   UNL     1      25.122   9.226 165.327  0.00  0.00    +0.000 C 
ATOM     15  C   UNL     1      24.838   8.279 162.188  0.00  0.00    +0.000 A 
ATOM     16  C   UNL     1      23.876   8.701 170.737  0.00  0.00    +0.000 A 
ATOM     17  C   UNL     1      22.254   7.166 161.866  0.00  0.00    +0.000 A 
ATOM     18  C   UNL     1      26.598   9.393 171.095  0.00  0.00    +0.000 A 
ATOM     19  C   UNL     1      24.427   7.766 160.956  0.00  0.00    +0.000 A 
ATOM     20  C   UNL     1      24.447   8.727 172.010  0.00  0.00    +0.000 A 
ATOM     21  C   UNL     1      23.157   7.221 160.801  0.00  0.00    +0.000 A 
ATOM     22  C   UNL     1      25.784   9.069 172.183  0.00  0.00    +0.000 A 
ATOM     23  H   UNL     1      21.088   7.369 164.432  0.00  0.00    +0.000 HD
ATOM     24  H   UNL     1      27.550   9.845 168.473  0.00  0.00    +0.000 HD
ENDROOT
BRANCH  11  26
ATOM     25  O   UNL     1      20.039   7.895 166.590  0.00  0.00    +0.000 OA
ATOM     26  C   UNL     1      20.909   8.641 167.024  0.00  0.00    +0.000 C 
BRANCH  26  27
ATOM     27  O   UNL     1      20.779   9.632 167.952  0.00  0.00    +0.000 OA
ATOM     28  C   UNL     1      19.817   9.475 168.961  0.00  0.00    +0.000 C 
ENDBRANCH  26  27
ENDBRANCH  11  26
BRANCH  12  30
ATOM     29  O   UNL     1      27.515  11.526 166.319  0.00  0.00    +0.000 OA
ATOM     30  C   UNL     1      27.075  10.558 165.709  0.00  0.00    +0.000 C 
BRANCH  30  31
ATOM     31  O   UNL     1      27.505  10.048 164.519  0.00  0.00    +0.000 OA
ATOM     32  C   UNL     1      28.827   9.582 164.436  0.00  0.00    +0.000 C 
ENDBRANCH  30  31
ENDBRANCH  12  30
TORSDOF 4
ENDMDL
