MODEL 1
REMARK VINA RESULT:      -3.8      0.000      0.000
REMARK  Name = 5350_Sulforaphane.pdbqt.pdb
REMARK  3 active torsions:
REMARK  status: ('A' for Active; 'I' for Inactive)
REMARK    1  A    between atoms: C_1  and  C_2
REMARK    2  A    between atoms: C_3  and  N_5
REMARK    3  A    between atoms: C_7  and  S_8
REMARK                            x       y       z     vdW  Elec       q    Type
REMARK                         _______ _______ _______ _____ _____    ______ ____
ROOT
ATOM      1  C   UNL     1      20.158   0.936 190.773  0.00  0.00    +0.000 C 
ATOM      2  C   UNL     1      20.607   0.145 192.007  0.00  0.00    +0.000 C 
ENDROOT
BRANCH   2   3
ATOM      3  S   UNL     1      21.125  -0.761 193.426  0.00  0.00    +0.000 S 
ATOM      4  O   UNL     1      21.255  -2.030 192.637  0.00  0.00    +0.000 OA
ATOM      5  C   UNL     1      19.476  -1.152 193.906  0.00  0.00    +0.000 C 
ENDBRANCH   2   3
BRANCH   1   6
ATOM      6  C   UNL     1      19.711   1.725 189.539  0.00  0.00    +0.000 C 
ATOM      7  C   UNL     1      19.264   2.516 188.304  0.00  0.00    +0.000 C 
BRANCH   7   9
ATOM      8  S   UNL     1      20.983   3.562 185.450  0.00  0.00    +0.000 S 
ATOM      9  N   UNL     1      18.884   3.203 187.218  0.00  0.00    +0.000 NA
ATOM     10  C   UNL     1      19.787   3.344 186.481  0.00  0.00    +0.000 C 
ENDBRANCH   7   9
ENDBRANCH   1   6
TORSDOF 3
ENDMDL
MODEL 2
REMARK VINA RESULT:      -3.7      2.103      2.103
REMARK  Name = 5350_Sulforaphane.pdbqt.pdb
REMARK  3 active torsions:
REMARK  status: ('A' for Active; 'I' for Inactive)
REMARK    1  A    between atoms: C_1  and  C_2
REMARK    2  A    between atoms: C_3  and  N_5
REMARK    3  A    between atoms: C_7  and  S_8
REMARK                            x       y       z     vdW  Elec       q    Type
REMARK                         _______ _______ _______ _____ _____    ______ ____
ROOT
ATOM      1  C   UNL     1      19.283   1.903 191.903  0.00  0.00    +0.000 C 
ATOM      2  C   UNL     1      19.013   0.952 193.075  0.00  0.00    +0.000 C 
ENDROOT
BRANCH   2   3
ATOM      3  S   UNL     1      18.702  -0.137 194.424  0.00  0.00    +0.000 S 
ATOM      4  O   UNL     1      19.817   0.457 195.232  0.00  0.00    +0.000 OA
ATOM      5  C   UNL     1      19.751  -1.397 193.782  0.00  0.00    +0.000 C 
ENDBRANCH   2   3
BRANCH   1   6
ATOM      6  C   UNL     1      19.555   2.853 190.733  0.00  0.00    +0.000 C 
ATOM      7  C   UNL     1      19.829   3.803 189.562  0.00  0.00    +0.000 C 
BRANCH   7   9
ATOM      8  S   UNL     1      20.052   3.330 186.109  0.00  0.00    +0.000 S 
ATOM      9  N   UNL     1      20.062   4.644 188.545  0.00  0.00    +0.000 NA
ATOM     10  C   UNL     1      20.053   4.068 187.522  0.00  0.00    +0.000 C 
ENDBRANCH   7   9
ENDBRANCH   1   6
TORSDOF 3
ENDMDL
MODEL 3
REMARK VINA RESULT:      -3.5      3.427      6.835
REMARK  Name = 5350_Sulforaphane.pdbqt.pdb
REMARK  3 active torsions:
REMARK  status: ('A' for Active; 'I' for Inactive)
REMARK    1  A    between atoms: C_1  and  C_2
REMARK    2  A    between atoms: C_3  and  N_5
REMARK    3  A    between atoms: C_7  and  S_8
REMARK                            x       y       z     vdW  Elec       q    Type
REMARK                         _______ _______ _______ _____ _____    ______ ____
ROOT
ATOM      1  C   UNL     1      20.098   2.246 188.793  0.00  0.00    +0.000 C 
ATOM      2  C   UNL     1      20.562   2.678 187.398  0.00  0.00    +0.000 C 
ENDROOT
BRANCH   2   3
ATOM      3  S   UNL     1      21.099   3.172 185.794  0.00  0.00    +0.000 S 
ATOM      4  O   UNL     1      22.491   2.675 186.048  0.00  0.00    +0.000 OA
ATOM      5  C   UNL     1      21.514   4.800 186.321  0.00  0.00    +0.000 C 
ENDBRANCH   2   3
BRANCH   1   6
ATOM      6  C   UNL     1      19.635   1.818 190.189  0.00  0.00    +0.000 C 
ATOM      7  C   UNL     1      19.172   1.389 191.586  0.00  0.00    +0.000 C 
BRANCH   7   9
ATOM      8  S   UNL     1      19.934  -1.347 193.618  0.00  0.00    +0.000 S 
ATOM      9  N   UNL     1      18.756   1.022 192.806  0.00  0.00    +0.000 NA
ATOM     10  C   UNL     1      19.267   0.017 193.132  0.00  0.00    +0.000 C 
ENDBRANCH   7   9
ENDBRANCH   1   6
TORSDOF 3
ENDMDL
MODEL 4
REMARK VINA RESULT:      -3.5      4.032      6.952
REMARK  Name = 5350_Sulforaphane.pdbqt.pdb
REMARK  3 active torsions:
REMARK  status: ('A' for Active; 'I' for Inactive)
REMARK    1  A    between atoms: C_1  and  C_2
REMARK    2  A    between atoms: C_3  and  N_5
REMARK    3  A    between atoms: C_7  and  S_8
REMARK                            x       y       z     vdW  Elec       q    Type
REMARK                         _______ _______ _______ _____ _____    ______ ____
ROOT
ATOM      1  C   UNL     1      20.026   3.366 190.278  0.00  0.00    +0.000 C 
ATOM      2  C   UNL     1      20.494   4.342 189.193  0.00  0.00    +0.000 C 
ENDROOT
BRANCH   2   3
ATOM      3  S   UNL     1      21.033   5.459 187.942  0.00  0.00    +0.000 S 
ATOM      4  O   UNL     1      20.711   4.481 186.852  0.00  0.00    +0.000 OA
ATOM      5  C   UNL     1      22.705   4.914 188.029  0.00  0.00    +0.000 C 
ENDBRANCH   2   3
BRANCH   1   6
ATOM      6  C   UNL     1      19.561   2.392 191.364  0.00  0.00    +0.000 C 
ATOM      7  C   UNL     1      19.095   1.416 192.451  0.00  0.00    +0.000 C 
BRANCH   7   9
ATOM      8  S   UNL     1      20.427  -1.570 193.679  0.00  0.00    +0.000 S 
ATOM      9  N   UNL     1      18.693   0.570 193.410  0.00  0.00    +0.000 NA
ATOM     10  C   UNL     1      19.441  -0.329 193.509  0.00  0.00    +0.000 C 
ENDBRANCH   7   9
ENDBRANCH   1   6
TORSDOF 3
ENDMDL
MODEL 5
REMARK VINA RESULT:      -3.4      3.948      7.000
REMARK  Name = 5350_Sulforaphane.pdbqt.pdb
REMARK  3 active torsions:
REMARK  status: ('A' for Active; 'I' for Inactive)
REMARK    1  A    between atoms: C_1  and  C_2
REMARK    2  A    between atoms: C_3  and  N_5
REMARK    3  A    between atoms: C_7  and  S_8
REMARK                            x       y       z     vdW  Elec       q    Type
REMARK                         _______ _______ _______ _____ _____    ______ ____
ROOT
ATOM      1  C   UNL     1      19.725   1.983 190.518  0.00  0.00    +0.000 C 
ATOM      2  C   UNL     1      19.762   3.262 189.674  0.00  0.00    +0.000 C 
ENDROOT
BRANCH   2   3
ATOM      3  S   UNL     1      19.808   4.730 188.701  0.00  0.00    +0.000 S 
ATOM      4  O   UNL     1      19.659   3.954 187.426  0.00  0.00    +0.000 OA
ATOM      5  C   UNL     1      21.564   4.718 188.579  0.00  0.00    +0.000 C 
ENDBRANCH   2   3
BRANCH   1   6
ATOM      6  C   UNL     1      19.690   0.707 191.364  0.00  0.00    +0.000 C 
ATOM      7  C   UNL     1      19.655  -0.571 192.211  0.00  0.00    +0.000 C 
BRANCH   7   9
ATOM      8  S   UNL     1      21.301  -1.543 195.133  0.00  0.00    +0.000 S 
ATOM      9  N   UNL     1      19.619  -1.694 192.941  0.00  0.00    +0.000 NA
ATOM     10  C   UNL     1      20.338  -1.610 193.865  0.00  0.00    +0.000 C 
ENDBRANCH   7   9
ENDBRANCH   1   6
TORSDOF 3
ENDMDL
MODEL 6
REMARK VINA RESULT:      -3.3     31.780     32.668
REMARK  Name = 5350_Sulforaphane.pdbqt.pdb
REMARK  3 active torsions:
REMARK  status: ('A' for Active; 'I' for Inactive)
REMARK    1  A    between atoms: C_1  and  C_2
REMARK    2  A    between atoms: C_3  and  N_5
REMARK    3  A    between atoms: C_7  and  S_8
REMARK                            x       y       z     vdW  Elec       q    Type
REMARK                         _______ _______ _______ _____ _____    ______ ____
ROOT
ATOM      1  C   UNL     1      46.237 -17.080 187.821  0.00  0.00    +0.000 C 
ATOM      2  C   UNL     1      45.142 -18.063 187.390  0.00  0.00    +0.000 C 
ENDROOT
BRANCH   2   3
ATOM      3  S   UNL     1      43.881 -19.189 186.896  0.00  0.00    +0.000 S 
ATOM      4  O   UNL     1      44.544 -19.437 185.574  0.00  0.00    +0.000 OA
ATOM      5  C   UNL     1      42.865 -17.918 186.223  0.00  0.00    +0.000 C 
ENDBRANCH   2   3
BRANCH   1   6
ATOM      6  C   UNL     1      47.331 -16.101 188.254  0.00  0.00    +0.000 C 
ATOM      7  C   UNL     1      48.427 -15.120 188.688  0.00  0.00    +0.000 C 
BRANCH   7   9
ATOM      8  S   UNL     1      51.743 -14.671 187.688  0.00  0.00    +0.000 S 
ATOM      9  N   UNL     1      49.378 -14.253 189.063  0.00  0.00    +0.000 NA
ATOM     10  C   UNL     1      50.371 -14.446 188.469  0.00  0.00    +0.000 C 
ENDBRANCH   7   9
ENDBRANCH   1   6
TORSDOF 3
ENDMDL
MODEL 7
REMARK VINA RESULT:      -3.3      3.186      3.207
REMARK  Name = 5350_Sulforaphane.pdbqt.pdb
REMARK  3 active torsions:
REMARK  status: ('A' for Active; 'I' for Inactive)
REMARK    1  A    between atoms: C_1  and  C_2
REMARK    2  A    between atoms: C_3  and  N_5
REMARK    3  A    between atoms: C_7  and  S_8
REMARK                            x       y       z     vdW  Elec       q    Type
REMARK                         _______ _______ _______ _____ _____    ______ ____
ROOT
ATOM      1  C   UNL     1      20.626   2.465 190.692  0.00  0.00    +0.000 C 
ATOM      2  C   UNL     1      20.126   1.328 191.589  0.00  0.00    +0.000 C 
ENDROOT
BRANCH   2   3
ATOM      3  S   UNL     1      19.554   0.017 192.618  0.00  0.00    +0.000 S 
ATOM      4  O   UNL     1      18.566   0.913 193.303  0.00  0.00    +0.000 OA
ATOM      5  C   UNL     1      20.776   0.313 193.851  0.00  0.00    +0.000 C 
ENDBRANCH   2   3
BRANCH   1   6
ATOM      6  C   UNL     1      21.122   3.602 189.794  0.00  0.00    +0.000 C 
ATOM      7  C   UNL     1      21.620   4.740 188.895  0.00  0.00    +0.000 C 
BRANCH   7   9
ATOM      8  S   UNL     1      24.740   5.516 187.531  0.00  0.00    +0.000 S 
ATOM      9  N   UNL     1      22.042   5.739 188.108  0.00  0.00    +0.000 NA
ATOM     10  C   UNL     1      23.187   5.626 187.875  0.00  0.00    +0.000 C 
ENDBRANCH   7   9
ENDBRANCH   1   6
TORSDOF 3
ENDMDL
MODEL 8
REMARK VINA RESULT:      -3.3      2.331      2.357
REMARK  Name = 5350_Sulforaphane.pdbqt.pdb
REMARK  3 active torsions:
REMARK  status: ('A' for Active; 'I' for Inactive)
REMARK    1  A    between atoms: C_1  and  C_2
REMARK    2  A    between atoms: C_3  and  N_5
REMARK    3  A    between atoms: C_7  and  S_8
REMARK                            x       y       z     vdW  Elec       q    Type
REMARK                         _______ _______ _______ _____ _____    ______ ____
ROOT
ATOM      1  C   UNL     1      22.178   1.028 189.749  0.00  0.00    +0.000 C 
ATOM      2  C   UNL     1      22.619   0.415 191.082  0.00  0.00    +0.000 C 
ENDROOT
BRANCH   2   3
ATOM      3  S   UNL     1      23.127  -0.294 192.613  0.00  0.00    +0.000 S 
ATOM      4  O   UNL     1      23.975  -1.319 191.920  0.00  0.00    +0.000 OA
ATOM      5  C   UNL     1      21.748  -1.387 192.683  0.00  0.00    +0.000 C 
ENDBRANCH   2   3
BRANCH   1   6
ATOM      6  C   UNL     1      21.735   1.641 188.417  0.00  0.00    +0.000 C 
ATOM      7  C   UNL     1      21.291   2.254 187.084  0.00  0.00    +0.000 C 
BRANCH   7   9
ATOM      8  S   UNL     1      22.530   4.893 185.161  0.00  0.00    +0.000 S 
ATOM      9  N   UNL     1      20.907   2.780 185.913  0.00  0.00    +0.000 NA
ATOM     10  C   UNL     1      21.607   3.673 185.612  0.00  0.00    +0.000 C 
ENDBRANCH   7   9
ENDBRANCH   1   6
TORSDOF 3
ENDMDL
MODEL 9
REMARK VINA RESULT:      -3.2     34.460     35.528
REMARK  Name = 5350_Sulforaphane.pdbqt.pdb
REMARK  3 active torsions:
REMARK  status: ('A' for Active; 'I' for Inactive)
REMARK    1  A    between atoms: C_1  and  C_2
REMARK    2  A    between atoms: C_3  and  N_5
REMARK    3  A    between atoms: C_7  and  S_8
REMARK                            x       y       z     vdW  Elec       q    Type
REMARK                         _______ _______ _______ _____ _____    ______ ____
ROOT
ATOM      1  C   UNL     1      45.323  -4.917 165.587  0.00  0.00    +0.000 C 
ATOM      2  C   UNL     1      46.177  -3.653 165.440  0.00  0.00    +0.000 C 
ENDROOT
BRANCH   2   3
ATOM      3  S   UNL     1      47.160  -2.201 165.267  0.00  0.00    +0.000 S 
ATOM      4  O   UNL     1      48.087  -2.631 166.365  0.00  0.00    +0.000 OA
ATOM      5  C   UNL     1      46.165  -1.270 166.382  0.00  0.00    +0.000 C 
ENDBRANCH   2   3
BRANCH   1   6
ATOM      6  C   UNL     1      44.471  -6.181 165.734  0.00  0.00    +0.000 C 
ATOM      7  C   UNL     1      43.618  -7.446 165.882  0.00  0.00    +0.000 C 
BRANCH   7   9
ATOM      8  S   UNL     1      40.330  -8.211 164.987  0.00  0.00    +0.000 S 
ATOM      9  N   UNL     1      42.881  -8.559 166.003  0.00  0.00    +0.000 NA
ATOM     10  C   UNL     1      41.804  -8.391 165.566  0.00  0.00    +0.000 C 
ENDBRANCH   7   9
ENDBRANCH   1   6
TORSDOF 3
ENDMDL
