MODEL 1
REMARK VINA RESULT:      -6.4      0.000      0.000
REMARK  Name = 5357283_Methylferulate.pdbqt.pdb
REMARK  5 active torsions:
REMARK  status: ('A' for Active; 'I' for Inactive)
REMARK    1  A    between atoms: C_1  and  C_11
REMARK    2  A    between atoms: C_2  and  O_7
REMARK    3  A    between atoms: C_5  and  O_9
REMARK    4  A    between atoms: C_12  and  C_14
REMARK    5  A    between atoms: C_14  and  O_15
REMARK                            x       y       z     vdW  Elec       q    Type
REMARK                         _______ _______ _______ _____ _____    ______ ____
ROOT
ATOM      1  C   UNL     1      19.627   2.688 187.705  0.00  0.00    +0.000 A 
ATOM      2  C   UNL     1      19.509   1.546 189.841  0.00  0.00    +0.000 A 
ATOM      3  C   UNL     1      20.252   2.188 188.846  0.00  0.00    +0.000 A 
ATOM      4  C   UNL     1      18.250   2.551 187.546  0.00  0.00    +0.000 A 
ATOM      5  C   UNL     1      18.129   1.416 189.668  0.00  0.00    +0.000 A 
ATOM      6  C   UNL     1      17.498   1.914 188.528  0.00  0.00    +0.000 A 
ENDROOT
BRANCH   2   7
ATOM      7  O   UNL     1      20.046   1.026 190.994  0.00  0.00    +0.000 OA
ATOM      8  C   UNL     1      20.506   1.971 191.924  0.00  0.00    +0.000 C 
ENDBRANCH   2   7
BRANCH   5   9
ATOM      9  O   UNL     1      17.383   0.791 190.631  0.00  0.00    +0.000 OA
ATOM     10  H   UNL     1      16.482   0.652 190.287  0.00  0.00    +0.000 HD
ENDBRANCH   5   9
BRANCH   1  11
ATOM     11  C   UNL     1      20.401   3.339 186.700  0.00  0.00    +0.000 C 
ATOM     12  C   UNL     1      21.055   3.888 185.853  0.00  0.00    +0.000 C 
BRANCH  12  14
ATOM     13  O   UNL     1      22.435   5.586 185.110  0.00  0.00    +0.000 OA
ATOM     14  C   UNL     1      21.842   4.550 184.839  0.00  0.00    +0.000 C 
BRANCH  14  15
ATOM     15  O   UNL     1      21.799   3.869 183.657  0.00  0.00    +0.000 OA
ATOM     16  C   UNL     1      22.054   4.585 182.475  0.00  0.00    +0.000 C 
ENDBRANCH  14  15
ENDBRANCH  12  14
ENDBRANCH   1  11
TORSDOF 5
ENDMDL
MODEL 2
REMARK VINA RESULT:      -6.2      1.692      6.357
REMARK  Name = 5357283_Methylferulate.pdbqt.pdb
REMARK  5 active torsions:
REMARK  status: ('A' for Active; 'I' for Inactive)
REMARK    1  A    between atoms: C_1  and  C_11
REMARK    2  A    between atoms: C_2  and  O_7
REMARK    3  A    between atoms: C_5  and  O_9
REMARK    4  A    between atoms: C_12  and  C_14
REMARK    5  A    between atoms: C_14  and  O_15
REMARK                            x       y       z     vdW  Elec       q    Type
REMARK                         _______ _______ _______ _____ _____    ______ ____
ROOT
ATOM      1  C   UNL     1      20.274   3.444 187.340  0.00  0.00    +0.000 A 
ATOM      2  C   UNL     1      22.097   5.028 187.120  0.00  0.00    +0.000 A 
ATOM      3  C   UNL     1      21.200   4.311 187.918  0.00  0.00    +0.000 A 
ATOM      4  C   UNL     1      20.234   3.284 185.957  0.00  0.00    +0.000 A 
ATOM      5  C   UNL     1      22.046   4.857 185.734  0.00  0.00    +0.000 A 
ATOM      6  C   UNL     1      21.122   3.992 185.151  0.00  0.00    +0.000 A 
ENDROOT
BRANCH   2   7
ATOM      7  O   UNL     1      23.039   5.901 187.608  0.00  0.00    +0.000 OA
ATOM      8  C   UNL     1      23.978   5.342 188.490  0.00  0.00    +0.000 C 
ENDBRANCH   2   7
BRANCH   5   9
ATOM      9  O   UNL     1      22.917   5.549 184.937  0.00  0.00    +0.000 OA
ATOM     10  H   UNL     1      22.869   5.186 184.033  0.00  0.00    +0.000 HD
ENDBRANCH   5   9
BRANCH   1  11
ATOM     11  C   UNL     1      19.365   2.722 188.169  0.00  0.00    +0.000 C 
ATOM     12  C   UNL     1      18.600   2.114 188.869  0.00  0.00    +0.000 C 
BRANCH  12  14
ATOM     13  O   UNL     1      17.038   0.453 189.248  0.00  0.00    +0.000 OA
ATOM     14  C   UNL     1      17.683   1.384 189.713  0.00  0.00    +0.000 C 
BRANCH  14  15
ATOM     15  O   UNL     1      17.680   1.881 190.985  0.00  0.00    +0.000 OA
ATOM     16  C   UNL     1      18.711   1.479 191.851  0.00  0.00    +0.000 C 
ENDBRANCH  14  15
ENDBRANCH  12  14
ENDBRANCH   1  11
TORSDOF 5
ENDMDL
MODEL 3
REMARK VINA RESULT:      -5.9      1.490      2.034
REMARK  Name = 5357283_Methylferulate.pdbqt.pdb
REMARK  5 active torsions:
REMARK  status: ('A' for Active; 'I' for Inactive)
REMARK    1  A    between atoms: C_1  and  C_11
REMARK    2  A    between atoms: C_2  and  O_7
REMARK    3  A    between atoms: C_5  and  O_9
REMARK    4  A    between atoms: C_12  and  C_14
REMARK    5  A    between atoms: C_14  and  O_15
REMARK                            x       y       z     vdW  Elec       q    Type
REMARK                         _______ _______ _______ _____ _____    ______ ____
ROOT
ATOM      1  C   UNL     1      20.085   3.094 187.713  0.00  0.00    +0.000 A 
ATOM      2  C   UNL     1      19.216   1.894 189.633  0.00  0.00    +0.000 A 
ATOM      3  C   UNL     1      20.269   2.540 188.979  0.00  0.00    +0.000 A 
ATOM      4  C   UNL     1      18.844   3.007 187.087  0.00  0.00    +0.000 A 
ATOM      5  C   UNL     1      17.977   1.815 188.992  0.00  0.00    +0.000 A 
ATOM      6  C   UNL     1      17.787   2.367 187.726  0.00  0.00    +0.000 A 
ENDROOT
BRANCH   2   7
ATOM      7  O   UNL     1      19.313   1.323 190.879  0.00  0.00    +0.000 OA
ATOM      8  C   UNL     1      20.056   2.053 191.820  0.00  0.00    +0.000 C 
ENDBRANCH   2   7
BRANCH   5   9
ATOM      9  O   UNL     1      16.933   1.187 189.617  0.00  0.00    +0.000 OA
ATOM     10  H   UNL     1      17.033   0.224 189.502  0.00  0.00    +0.000 HD
ENDBRANCH   5   9
BRANCH   1  11
ATOM     11  C   UNL     1      21.171   3.748 187.061  0.00  0.00    +0.000 C 
ATOM     12  C   UNL     1      22.087   4.298 186.510  0.00  0.00    +0.000 C 
BRANCH  12  14
ATOM     13  O   UNL     1      23.016   5.503 184.770  0.00  0.00    +0.000 OA
ATOM     14  C   UNL     1      23.191   4.958 185.853  0.00  0.00    +0.000 C 
BRANCH  14  15
ATOM     15  O   UNL     1      24.335   4.864 186.593  0.00  0.00    +0.000 OA
ATOM     16  C   UNL     1      24.439   5.660 187.746  0.00  0.00    +0.000 C 
ENDBRANCH  14  15
ENDBRANCH  12  14
ENDBRANCH   1  11
TORSDOF 5
ENDMDL
MODEL 4
REMARK VINA RESULT:      -5.5      1.830      6.558
REMARK  Name = 5357283_Methylferulate.pdbqt.pdb
REMARK  5 active torsions:
REMARK  status: ('A' for Active; 'I' for Inactive)
REMARK    1  A    between atoms: C_1  and  C_11
REMARK    2  A    between atoms: C_2  and  O_7
REMARK    3  A    between atoms: C_5  and  O_9
REMARK    4  A    between atoms: C_12  and  C_14
REMARK    5  A    between atoms: C_14  and  O_15
REMARK                            x       y       z     vdW  Elec       q    Type
REMARK                         _______ _______ _______ _____ _____    ______ ____
ROOT
ATOM      1  C   UNL     1      20.182   2.300 188.139  0.00  0.00    +0.000 A 
ATOM      2  C   UNL     1      22.023   2.957 186.702  0.00  0.00    +0.000 A 
ATOM      3  C   UNL     1      21.550   2.455 187.919  0.00  0.00    +0.000 A 
ATOM      4  C   UNL     1      19.271   2.646 187.143  0.00  0.00    +0.000 A 
ATOM      5  C   UNL     1      21.097   3.299 185.713  0.00  0.00    +0.000 A 
ATOM      6  C   UNL     1      19.728   3.146 185.928  0.00  0.00    +0.000 A 
ENDROOT
BRANCH   2   7
ATOM      7  O   UNL     1      23.352   3.140 186.405  0.00  0.00    +0.000 OA
ATOM      8  C   UNL     1      24.070   3.929 187.317  0.00  0.00    +0.000 C 
ENDBRANCH   2   7
BRANCH   5   9
ATOM      9  O   UNL     1      21.540   3.791 184.515  0.00  0.00    +0.000 OA
ATOM     10  H   UNL     1      22.276   4.407 184.683  0.00  0.00    +0.000 HD
ENDBRANCH   5   9
BRANCH   1  11
ATOM     11  C   UNL     1      19.718   1.788 189.386  0.00  0.00    +0.000 C 
ATOM     12  C   UNL     1      19.327   1.355 190.437  0.00  0.00    +0.000 C 
BRANCH  12  14
ATOM     13  O   UNL     1      18.057   1.483 192.363  0.00  0.00    +0.000 OA
ATOM     14  C   UNL     1      18.852   0.833 191.697  0.00  0.00    +0.000 C 
BRANCH  14  15
ATOM     15  O   UNL     1      19.403  -0.387 191.966  0.00  0.00    +0.000 OA
ATOM     16  C   UNL     1      19.617  -0.730 193.312  0.00  0.00    +0.000 C 
ENDBRANCH  14  15
ENDBRANCH  12  14
ENDBRANCH   1  11
TORSDOF 5
ENDMDL
MODEL 5
REMARK VINA RESULT:      -5.5      2.912      6.653
REMARK  Name = 5357283_Methylferulate.pdbqt.pdb
REMARK  5 active torsions:
REMARK  status: ('A' for Active; 'I' for Inactive)
REMARK    1  A    between atoms: C_1  and  C_11
REMARK    2  A    between atoms: C_2  and  O_7
REMARK    3  A    between atoms: C_5  and  O_9
REMARK    4  A    between atoms: C_12  and  C_14
REMARK    5  A    between atoms: C_14  and  O_15
REMARK                            x       y       z     vdW  Elec       q    Type
REMARK                         _______ _______ _______ _____ _____    ______ ____
ROOT
ATOM      1  C   UNL     1      20.848   3.866 189.463  0.00  0.00    +0.000 A 
ATOM      2  C   UNL     1      23.194   4.400 189.162  0.00  0.00    +0.000 A 
ATOM      3  C   UNL     1      22.189   3.648 189.776  0.00  0.00    +0.000 A 
ATOM      4  C   UNL     1      20.498   4.841 188.531  0.00  0.00    +0.000 A 
ATOM      5  C   UNL     1      22.828   5.375 188.230  0.00  0.00    +0.000 A 
ATOM      6  C   UNL     1      21.489   5.597 187.913  0.00  0.00    +0.000 A 
ENDROOT
BRANCH   2   7
ATOM      7  O   UNL     1      24.537   4.249 189.413  0.00  0.00    +0.000 OA
ATOM      8  C   UNL     1      24.856   3.404 190.488  0.00  0.00    +0.000 C 
ENDBRANCH   2   7
BRANCH   5   9
ATOM      9  O   UNL     1      23.798   6.121 187.617  0.00  0.00    +0.000 OA
ATOM     10  H   UNL     1      23.524   6.296 186.698  0.00  0.00    +0.000 HD
ENDBRANCH   5   9
BRANCH   1  11
ATOM     11  C   UNL     1      19.835   3.090 190.099  0.00  0.00    +0.000 C 
ATOM     12  C   UNL     1      18.980   2.436 190.635  0.00  0.00    +0.000 C 
BRANCH  12  14
ATOM     13  O   UNL     1      16.925   1.380 190.673  0.00  0.00    +0.000 OA
ATOM     14  C   UNL     1      17.951   1.655 191.281  0.00  0.00    +0.000 C 
BRANCH  14  15
ATOM     15  O   UNL     1      18.310   1.323 192.556  0.00  0.00    +0.000 OA
ATOM     16  C   UNL     1      19.325   0.366 192.726  0.00  0.00    +0.000 C 
ENDBRANCH  14  15
ENDBRANCH  12  14
ENDBRANCH   1  11
TORSDOF 5
ENDMDL
MODEL 6
REMARK VINA RESULT:      -5.4      2.618      7.111
REMARK  Name = 5357283_Methylferulate.pdbqt.pdb
REMARK  5 active torsions:
REMARK  status: ('A' for Active; 'I' for Inactive)
REMARK    1  A    between atoms: C_1  and  C_11
REMARK    2  A    between atoms: C_2  and  O_7
REMARK    3  A    between atoms: C_5  and  O_9
REMARK    4  A    between atoms: C_12  and  C_14
REMARK    5  A    between atoms: C_14  and  O_15
REMARK                            x       y       z     vdW  Elec       q    Type
REMARK                         _______ _______ _______ _____ _____    ______ ____
ROOT
ATOM      1  C   UNL     1      22.577   4.259 188.838  0.00  0.00    +0.000 A 
ATOM      2  C   UNL     1      23.172   5.209 186.687  0.00  0.00    +0.000 A 
ATOM      3  C   UNL     1      22.229   4.624 187.538  0.00  0.00    +0.000 A 
ATOM      4  C   UNL     1      23.873   4.475 189.301  0.00  0.00    +0.000 A 
ATOM      5  C   UNL     1      24.467   5.419 187.166  0.00  0.00    +0.000 A 
ATOM      6  C   UNL     1      24.821   5.056 188.465  0.00  0.00    +0.000 A 
ENDROOT
BRANCH   2   7
ATOM      7  O   UNL     1      22.912   5.597 185.395  0.00  0.00    +0.000 OA
ATOM      8  C   UNL     1      22.191   4.673 184.622  0.00  0.00    +0.000 C 
ENDBRANCH   2   7
BRANCH   5   9
ATOM      9  O   UNL     1      25.404   5.992 186.348  0.00  0.00    +0.000 OA
ATOM     10  H   UNL     1      25.789   6.762 186.805  0.00  0.00    +0.000 HD
ENDBRANCH   5   9
BRANCH   1  11
ATOM     11  C   UNL     1      21.603   3.663 189.692  0.00  0.00    +0.000 C 
ATOM     12  C   UNL     1      20.781   3.160 190.411  0.00  0.00    +0.000 C 
BRANCH  12  14
ATOM     13  O   UNL     1      20.075   2.294 192.434  0.00  0.00    +0.000 OA
ATOM     14  C   UNL     1      19.790   2.559 191.273  0.00  0.00    +0.000 C 
BRANCH  14  15
ATOM     15  O   UNL     1      18.610   2.369 190.612  0.00  0.00    +0.000 OA
ATOM     16  C   UNL     1      18.261   1.055 190.255  0.00  0.00    +0.000 C 
ENDBRANCH  14  15
ENDBRANCH  12  14
ENDBRANCH   1  11
TORSDOF 5
ENDMDL
MODEL 7
REMARK VINA RESULT:      -5.4      3.040      3.644
REMARK  Name = 5357283_Methylferulate.pdbqt.pdb
REMARK  5 active torsions:
REMARK  status: ('A' for Active; 'I' for Inactive)
REMARK    1  A    between atoms: C_1  and  C_11
REMARK    2  A    between atoms: C_2  and  O_7
REMARK    3  A    between atoms: C_5  and  O_9
REMARK    4  A    between atoms: C_12  and  C_14
REMARK    5  A    between atoms: C_14  and  O_15
REMARK                            x       y       z     vdW  Elec       q    Type
REMARK                         _______ _______ _______ _____ _____    ______ ____
ROOT
ATOM      1  C   UNL     1      20.487   2.711 190.206  0.00  0.00    +0.000 A 
ATOM      2  C   UNL     1      18.893   1.700 191.728  0.00  0.00    +0.000 A 
ATOM      3  C   UNL     1      20.135   2.294 191.489  0.00  0.00    +0.000 A 
ATOM      4  C   UNL     1      19.599   2.537 189.147  0.00  0.00    +0.000 A 
ATOM      5  C   UNL     1      18.012   1.533 190.657  0.00  0.00    +0.000 A 
ATOM      6  C   UNL     1      18.358   1.948 189.371  0.00  0.00    +0.000 A 
ENDROOT
BRANCH   2   7
ATOM      7  O   UNL     1      18.468   1.263 192.960  0.00  0.00    +0.000 OA
ATOM      8  C   UNL     1      19.269   0.276 193.557  0.00  0.00    +0.000 C 
ENDBRANCH   2   7
BRANCH   5   9
ATOM      9  O   UNL     1      16.790   0.955 190.871  0.00  0.00    +0.000 OA
ATOM     10  H   UNL     1      16.640   0.278 190.185  0.00  0.00    +0.000 HD
ENDBRANCH   5   9
BRANCH   1  11
ATOM     11  C   UNL     1      21.759   3.314 189.980  0.00  0.00    +0.000 C 
ATOM     12  C   UNL     1      22.831   3.822 189.787  0.00  0.00    +0.000 C 
BRANCH  12  14
ATOM     13  O   UNL     1      25.112   3.992 190.122  0.00  0.00    +0.000 OA
ATOM     14  C   UNL     1      24.120   4.430 189.553  0.00  0.00    +0.000 C 
BRANCH  14  15
ATOM     15  O   UNL     1      24.023   5.470 188.673  0.00  0.00    +0.000 OA
ATOM     16  C   UNL     1      24.860   5.457 187.544  0.00  0.00    +0.000 C 
ENDBRANCH  14  15
ENDBRANCH  12  14
ENDBRANCH   1  11
TORSDOF 5
ENDMDL
MODEL 8
REMARK VINA RESULT:      -5.3      2.224      3.004
REMARK  Name = 5357283_Methylferulate.pdbqt.pdb
REMARK  5 active torsions:
REMARK  status: ('A' for Active; 'I' for Inactive)
REMARK    1  A    between atoms: C_1  and  C_11
REMARK    2  A    between atoms: C_2  and  O_7
REMARK    3  A    between atoms: C_5  and  O_9
REMARK    4  A    between atoms: C_12  and  C_14
REMARK    5  A    between atoms: C_14  and  O_15
REMARK                            x       y       z     vdW  Elec       q    Type
REMARK                         _______ _______ _______ _____ _____    ______ ____
ROOT
ATOM      1  C   UNL     1      19.697   1.693 190.037  0.00  0.00    +0.000 A 
ATOM      2  C   UNL     1      20.137   0.532 192.120  0.00  0.00    +0.000 A 
ATOM      3  C   UNL     1      20.556   0.965 190.859  0.00  0.00    +0.000 A 
ATOM      4  C   UNL     1      18.408   1.997 190.468  0.00  0.00    +0.000 A 
ATOM      5  C   UNL     1      18.841   0.845 192.539  0.00  0.00    +0.000 A 
ATOM      6  C   UNL     1      17.978   1.573 191.722  0.00  0.00    +0.000 A 
ENDROOT
BRANCH   2   7
ATOM      7  O   UNL     1      20.918  -0.189 192.991  0.00  0.00    +0.000 OA
ATOM      8  C   UNL     1      21.158  -1.522 192.622  0.00  0.00    +0.000 C 
ENDBRANCH   2   7
BRANCH   5   9
ATOM      9  O   UNL     1      18.412   0.431 193.772  0.00  0.00    +0.000 OA
ATOM     10  H   UNL     1      17.922   1.161 194.194  0.00  0.00    +0.000 HD
ENDBRANCH   5   9
BRANCH   1  11
ATOM     11  C   UNL     1      20.142   2.125 188.753  0.00  0.00    +0.000 C 
ATOM     12  C   UNL     1      20.515   2.490 187.670  0.00  0.00    +0.000 C 
BRANCH  12  14
ATOM     13  O   UNL     1      20.176   3.485 185.612  0.00  0.00    +0.000 OA
ATOM     14  C   UNL     1      20.960   2.925 186.366  0.00  0.00    +0.000 C 
BRANCH  14  15
ATOM     15  O   UNL     1      22.277   2.623 186.168  0.00  0.00    +0.000 OA
ATOM     16  C   UNL     1      23.233   3.315 186.930  0.00  0.00    +0.000 C 
ENDBRANCH  14  15
ENDBRANCH  12  14
ENDBRANCH   1  11
TORSDOF 5
ENDMDL
MODEL 9
REMARK VINA RESULT:      -5.3     23.210     24.174
REMARK  Name = 5357283_Methylferulate.pdbqt.pdb
REMARK  5 active torsions:
REMARK  status: ('A' for Active; 'I' for Inactive)
REMARK    1  A    between atoms: C_1  and  C_11
REMARK    2  A    between atoms: C_2  and  O_7
REMARK    3  A    between atoms: C_5  and  O_9
REMARK    4  A    between atoms: C_12  and  C_14
REMARK    5  A    between atoms: C_14  and  O_15
REMARK                            x       y       z     vdW  Elec       q    Type
REMARK                         _______ _______ _______ _____ _____    ______ ____
ROOT
ATOM      1  C   UNL     1      15.502 -19.032 178.730  0.00  0.00    +0.000 A 
ATOM      2  C   UNL     1      15.756 -21.376 179.295  0.00  0.00    +0.000 A 
ATOM      3  C   UNL     1      15.310 -20.091 179.616  0.00  0.00    +0.000 A 
ATOM      4  C   UNL     1      16.142 -19.247 177.512  0.00  0.00    +0.000 A 
ATOM      5  C   UNL     1      16.397 -21.577 178.070  0.00  0.00    +0.000 A 
ATOM      6  C   UNL     1      16.591 -20.521 177.180  0.00  0.00    +0.000 A 
ENDROOT
BRANCH   2   7
ATOM      7  O   UNL     1      15.607 -22.473 180.110  0.00  0.00    +0.000 OA
ATOM      8  C   UNL     1      16.011 -22.292 181.442  0.00  0.00    +0.000 C 
ENDBRANCH   2   7
BRANCH   5   9
ATOM      9  O   UNL     1      16.839 -22.829 177.737  0.00  0.00    +0.000 OA
ATOM     10  H   UNL     1      17.347 -23.191 178.486  0.00  0.00    +0.000 HD
ENDBRANCH   5   9
BRANCH   1  11
ATOM     11  C   UNL     1      15.042 -17.727 179.075  0.00  0.00    +0.000 C 
ATOM     12  C   UNL     1      14.654 -16.627 179.367  0.00  0.00    +0.000 C 
BRANCH  12  14
ATOM     13  O   UNL     1      13.878 -15.062 180.880  0.00  0.00    +0.000 OA
ATOM     14  C   UNL     1      14.186 -15.307 179.721  0.00  0.00    +0.000 C 
BRANCH  14  15
ATOM     15  O   UNL     1      14.157 -14.484 178.632  0.00  0.00    +0.000 OA
ATOM     16  C   UNL     1      13.188 -14.733 177.645  0.00  0.00    +0.000 C 
ENDBRANCH  14  15
ENDBRANCH  12  14
ENDBRANCH   1  11
TORSDOF 5
ENDMDL
