MODEL 1
REMARK VINA RESULT:      -7.5      0.000      0.000
REMARK  Name = 5358691_Yuanhuacine.pdbqt.pdb
REMARK  12 active torsions:
REMARK  status: ('A' for Active; 'I' for Inactive)
REMARK    1  A    between atoms: C_9  and  C_48
REMARK    2  A    between atoms: C_13  and  C_23
REMARK    3  A    between atoms: C_14  and  O_26
REMARK    4  A    between atoms: C_15  and  O_28
REMARK    5  A    between atoms: C_16  and  O_39
REMARK    6  A    between atoms: C_17  and  C_30
REMARK    7  A    between atoms: C_31  and  C_32
REMARK    8  A    between atoms: C_33  and  C_34
REMARK    9  A    between atoms: C_35  and  C_36
REMARK   10  A    between atoms: O_39  and  C_41
REMARK   11  A    between atoms: C_41  and  C_42
REMARK   12  A    between atoms: C_48  and  O_49
REMARK                            x       y       z     vdW  Elec       q    Type
REMARK                         _______ _______ _______ _____ _____    ______ ____
ROOT
ATOM      1  O   UNL     1      25.121  -1.184 194.932  0.00  0.00    +0.000 OA
ATOM      2  O   UNL     1      22.922   1.506 195.365  0.00  0.00    +0.000 OA
ATOM      3  O   UNL     1      21.816  -0.569 195.042  0.00  0.00    +0.000 OA
ATOM      4  O   UNL     1      20.752   1.363 194.417  0.00  0.00    +0.000 OA
ATOM      5  O   UNL     1      28.381   2.594 193.442  0.00  0.00    +0.000 OA
ATOM      6  C   UNL     1      23.523  -0.076 193.620  0.00  0.00    +0.000 C 
ATOM      7  C   UNL     1      23.676   1.367 194.122  0.00  0.00    +0.000 C 
ATOM      8  C   UNL     1      24.509  -1.115 193.706  0.00  0.00    +0.000 C 
ATOM      9  C   UNL     1      25.971  -1.166 193.776  0.00  0.00    +0.000 C 
ATOM     10  C   UNL     1      22.088  -0.380 193.688  0.00  0.00    +0.000 C 
ATOM     11  C   UNL     1      25.102   1.710 194.430  0.00  0.00    +0.000 C 
ATOM     12  C   UNL     1      23.062   2.330 193.061  0.00  0.00    +0.000 C 
ATOM     13  C   UNL     1      21.124   0.714 193.168  0.00  0.00    +0.000 C 
ATOM     14  C   UNL     1      26.208   1.438 193.435  0.00  0.00    +0.000 C 
ATOM     15  C   UNL     1      26.768   0.046 193.444  0.00  0.00    +0.000 C 
ATOM     16  C   UNL     1      21.868   1.805 192.420  0.00  0.00    +0.000 C 
ATOM     17  C   UNL     1      21.650   0.813 195.378  0.00  0.00    +0.000 C 
ATOM     18  C   UNL     1      25.563   2.675 195.363  0.00  0.00    +0.000 C 
ATOM     19  C   UNL     1      23.454   3.790 192.833  0.00  0.00    +0.000 C 
ATOM     20  C   UNL     1      27.277   2.452 193.960  0.00  0.00    +0.000 C 
ATOM     21  C   UNL     1      26.741   3.165 195.165  0.00  0.00    +0.000 C 
ATOM     22  C   UNL     1      27.550   3.836 196.226  0.00  0.00    +0.000 C 
ENDROOT
BRANCH  13  23
ATOM     23  C   UNL     1      19.924   0.057 192.447  0.00  0.00    +0.000 C 
ATOM     24  C   UNL     1      18.622   0.784 192.113  0.00  0.00    +0.000 C 
ATOM     25  C   UNL     1      19.785  -1.276 192.293  0.00  0.00    +0.000 C 
ENDBRANCH  13  23
BRANCH  14  26
ATOM     26  O   UNL     1      25.793   1.731 192.118  0.00  0.00    +0.000 OA
ATOM     27  H   UNL     1      26.196   2.587 191.871  0.00  0.00    +0.000 HD
ENDBRANCH  14  26
BRANCH  15  28
ATOM     28  O   UNL     1      28.058  -0.117 192.933  0.00  0.00    +0.000 OA
ATOM     29  H   UNL     1      28.148   0.056 191.971  0.00  0.00    +0.000 HD
ENDBRANCH  15  28
BRANCH  17  30
ATOM     30  C   UNL     1      21.065   0.929 196.710  0.00  0.00    +0.000 C 
ATOM     31  C   UNL     1      20.581   1.025 197.805  0.00  0.00    +0.000 C 
BRANCH  31  32
ATOM     32  C   UNL     1      19.964   1.146 199.200  0.00  0.00    +0.000 C 
ATOM     33  C   UNL     1      19.479   1.242 200.294  0.00  0.00    +0.000 C 
BRANCH  33  34
ATOM     34  C   UNL     1      18.859   1.366 201.689  0.00  0.00    +0.000 C 
ATOM     35  C   UNL     1      18.241   1.490 203.084  0.00  0.00    +0.000 C 
BRANCH  35  36
ATOM     36  C   UNL     1      17.622   1.615 204.481  0.00  0.00    +0.000 C 
ATOM     37  C   UNL     1      17.003   1.739 205.876  0.00  0.00    +0.000 C 
ATOM     38  C   UNL     1      16.383   1.863 207.272  0.00  0.00    +0.000 C 
ENDBRANCH  35  36
ENDBRANCH  33  34
ENDBRANCH  31  32
ENDBRANCH  17  30
BRANCH  16  39
ATOM     39  O   UNL     1      21.472   2.371 191.196  0.00  0.00    +0.000 OA
BRANCH  39  41
ATOM     40  O   UNL     1      22.582   0.706 190.065  0.00  0.00    +0.000 OA
ATOM     41  C   UNL     1      21.755   1.601 190.104  0.00  0.00    +0.000 C 
BRANCH  41  42
ATOM     42  C   UNL     1      20.947   2.034 188.949  0.00  0.00    +0.000 A 
ATOM     43  C   UNL     1      21.433   1.948 187.645  0.00  0.00    +0.000 A 
ATOM     44  C   UNL     1      19.668   2.535 189.190  0.00  0.00    +0.000 A 
ATOM     45  C   UNL     1      20.638   2.365 186.580  0.00  0.00    +0.000 A 
ATOM     46  C   UNL     1      18.875   2.950 188.123  0.00  0.00    +0.000 A 
ATOM     47  C   UNL     1      19.360   2.866 186.820  0.00  0.00    +0.000 A 
ENDBRANCH  41  42
ENDBRANCH  39  41
ENDBRANCH  16  39
BRANCH   9  48
ATOM     48  C   UNL     1      26.618  -2.462 193.624  0.00  0.00    +0.000 C 
BRANCH  48  49
ATOM     49  O   UNL     1      27.215  -3.642 193.484  0.00  0.00    +0.000 OA
ATOM     50  H   UNL     1      28.128  -3.604 193.819  0.00  0.00    +0.000 HD
ENDBRANCH  48  49
ENDBRANCH   9  48
TORSDOF 12
ENDMDL
MODEL 2
REMARK VINA RESULT:      -6.9     34.319     39.418
REMARK  Name = 5358691_Yuanhuacine.pdbqt.pdb
REMARK  12 active torsions:
REMARK  status: ('A' for Active; 'I' for Inactive)
REMARK    1  A    between atoms: C_9  and  C_48
REMARK    2  A    between atoms: C_13  and  C_23
REMARK    3  A    between atoms: C_14  and  O_26
REMARK    4  A    between atoms: C_15  and  O_28
REMARK    5  A    between atoms: C_16  and  O_39
REMARK    6  A    between atoms: C_17  and  C_30
REMARK    7  A    between atoms: C_31  and  C_32
REMARK    8  A    between atoms: C_33  and  C_34
REMARK    9  A    between atoms: C_35  and  C_36
REMARK   10  A    between atoms: O_39  and  C_41
REMARK   11  A    between atoms: C_41  and  C_42
REMARK   12  A    between atoms: C_48  and  O_49
REMARK                            x       y       z     vdW  Elec       q    Type
REMARK                         _______ _______ _______ _____ _____    ______ ____
ROOT
ATOM      1  O   UNL     1      43.016 -23.984 168.981  0.00  0.00    +0.000 OA
ATOM      2  O   UNL     1      43.806 -21.091 170.789  0.00  0.00    +0.000 OA
ATOM      3  O   UNL     1      44.005 -23.081 172.067  0.00  0.00    +0.000 OA
ATOM      4  O   UNL     1      43.532 -21.114 173.146  0.00  0.00    +0.000 OA
ATOM      5  O   UNL     1      40.315 -20.616 166.069  0.00  0.00    +0.000 OA
ATOM      6  C   UNL     1      42.117 -22.839 170.821  0.00  0.00    +0.000 C 
ATOM      7  C   UNL     1      42.418 -21.382 170.439  0.00  0.00    +0.000 C 
ATOM      8  C   UNL     1      42.014 -23.950 169.918  0.00  0.00    +0.000 C 
ATOM      9  C   UNL     1      41.671 -24.121 168.505  0.00  0.00    +0.000 C 
ATOM     10  C   UNL     1      42.618 -23.013 172.189  0.00  0.00    +0.000 C 
ATOM     11  C   UNL     1      42.274 -21.142 168.967  0.00  0.00    +0.000 C 
ATOM     12  C   UNL     1      41.491 -20.448 171.274  0.00  0.00    +0.000 C 
ATOM     13  C   UNL     1      42.296 -21.880 173.194  0.00  0.00    +0.000 C 
ATOM     14  C   UNL     1      41.036 -21.579 168.218  0.00  0.00    +0.000 C 
ATOM     15  C   UNL     1      41.014 -23.009 167.766  0.00  0.00    +0.000 C 
ATOM     16  C   UNL     1      41.268 -20.913 172.634  0.00  0.00    +0.000 C 
ATOM     17  C   UNL     1      44.245 -21.669 172.042  0.00  0.00    +0.000 C 
ATOM     18  C   UNL     1      42.943 -20.157 168.196  0.00  0.00    +0.000 C 
ATOM     19  C   UNL     1      41.026 -19.047 170.876  0.00  0.00    +0.000 C 
ATOM     20  C   UNL     1      41.138 -20.625 166.981  0.00  0.00    +0.000 C 
ATOM     21  C   UNL     1      42.374 -19.785 167.099  0.00  0.00    +0.000 C 
ATOM     22  C   UNL     1      43.093 -19.112 165.976  0.00  0.00    +0.000 C 
ENDROOT
BRANCH  13  23
ATOM     23  C   UNL     1      42.010 -22.481 174.590  0.00  0.00    +0.000 C 
ATOM     24  C   UNL     1      42.033 -21.678 175.890  0.00  0.00    +0.000 C 
ATOM     25  C   UNL     1      41.992 -23.806 174.841  0.00  0.00    +0.000 C 
ENDBRANCH  13  23
BRANCH  14  26
ATOM     26  O   UNL     1      39.870 -21.345 168.979  0.00  0.00    +0.000 OA
ATOM     27  H   UNL     1      39.131 -21.797 168.524  0.00  0.00    +0.000 HD
ENDBRANCH  14  26
BRANCH  15  28
ATOM     28  O   UNL     1      40.174 -23.319 166.693  0.00  0.00    +0.000 OA
ATOM     29  H   UNL     1      39.959 -22.564 166.104  0.00  0.00    +0.000 HD
ENDBRANCH  15  28
BRANCH  17  30
ATOM     30  C   UNL     1      45.671 -21.409 172.207  0.00  0.00    +0.000 C 
ATOM     31  C   UNL     1      46.845 -21.195 172.343  0.00  0.00    +0.000 C 
BRANCH  31  32
ATOM     32  C   UNL     1      48.341 -20.924 172.519  0.00  0.00    +0.000 C 
ATOM     33  C   UNL     1      49.514 -20.711 172.656  0.00  0.00    +0.000 C 
BRANCH  33  34
ATOM     34  C   UNL     1      51.012 -20.437 172.828  0.00  0.00    +0.000 C 
ATOM     35  C   UNL     1      52.508 -20.164 172.999  0.00  0.00    +0.000 C 
BRANCH  35  36
ATOM     36  C   UNL     1      54.006 -19.889 173.170  0.00  0.00    +0.000 C 
ATOM     37  C   UNL     1      55.503 -19.614 173.341  0.00  0.00    +0.000 C 
ATOM     38  C   UNL     1      57.000 -19.337 173.511  0.00  0.00    +0.000 C 
ENDBRANCH  35  36
ENDBRANCH  33  34
ENDBRANCH  31  32
ENDBRANCH  17  30
BRANCH  16  39
ATOM     39  O   UNL     1      40.160 -20.404 173.333  0.00  0.00    +0.000 OA
BRANCH  39  41
ATOM     40  O   UNL     1      38.229 -20.941 172.209  0.00  0.00    +0.000 OA
ATOM     41  C   UNL     1      39.003 -21.102 173.137  0.00  0.00    +0.000 C 
BRANCH  41  42
ATOM     42  C   UNL     1      38.791 -22.060 174.238  0.00  0.00    +0.000 A 
ATOM     43  C   UNL     1      38.636 -23.425 173.997  0.00  0.00    +0.000 A 
ATOM     44  C   UNL     1      38.749 -21.568 175.542  0.00  0.00    +0.000 A 
ATOM     45  C   UNL     1      38.439 -24.299 175.064  0.00  0.00    +0.000 A 
ATOM     46  C   UNL     1      38.552 -22.444 176.606  0.00  0.00    +0.000 A 
ATOM     47  C   UNL     1      38.397 -23.808 176.367  0.00  0.00    +0.000 A 
ENDBRANCH  41  42
ENDBRANCH  39  41
ENDBRANCH  16  39
BRANCH   9  48
ATOM     48  C   UNL     1      41.461 -25.475 168.012  0.00  0.00    +0.000 C 
BRANCH  48  49
ATOM     49  O   UNL     1      41.264 -26.711 167.561  0.00  0.00    +0.000 OA
ATOM     50  H   UNL     1      41.535 -27.364 168.229  0.00  0.00    +0.000 HD
ENDBRANCH  48  49
ENDBRANCH   9  48
TORSDOF 12
ENDMDL
MODEL 3
REMARK VINA RESULT:      -6.9      2.236      2.653
REMARK  Name = 5358691_Yuanhuacine.pdbqt.pdb
REMARK  12 active torsions:
REMARK  status: ('A' for Active; 'I' for Inactive)
REMARK    1  A    between atoms: C_9  and  C_48
REMARK    2  A    between atoms: C_13  and  C_23
REMARK    3  A    between atoms: C_14  and  O_26
REMARK    4  A    between atoms: C_15  and  O_28
REMARK    5  A    between atoms: C_16  and  O_39
REMARK    6  A    between atoms: C_17  and  C_30
REMARK    7  A    between atoms: C_31  and  C_32
REMARK    8  A    between atoms: C_33  and  C_34
REMARK    9  A    between atoms: C_35  and  C_36
REMARK   10  A    between atoms: O_39  and  C_41
REMARK   11  A    between atoms: C_41  and  C_42
REMARK   12  A    between atoms: C_48  and  O_49
REMARK                            x       y       z     vdW  Elec       q    Type
REMARK                         _______ _______ _______ _____ _____    ______ ____
ROOT
ATOM      1  O   UNL     1      25.078  -1.823 196.951  0.00  0.00    +0.000 OA
ATOM      2  O   UNL     1      23.462   1.268 196.637  0.00  0.00    +0.000 OA
ATOM      3  O   UNL     1      21.978  -0.525 197.105  0.00  0.00    +0.000 OA
ATOM      4  O   UNL     1      21.188   1.297 195.959  0.00  0.00    +0.000 OA
ATOM      5  O   UNL     1      28.701   0.536 194.048  0.00  0.00    +0.000 OA
ATOM      6  C   UNL     1      23.527  -0.865 195.473  0.00  0.00    +0.000 C 
ATOM      7  C   UNL     1      23.998   0.596 195.456  0.00  0.00    +0.000 C 
ATOM      8  C   UNL     1      24.321  -2.010 195.822  0.00  0.00    +0.000 C 
ATOM      9  C   UNL     1      25.746  -2.341 195.793  0.00  0.00    +0.000 C 
ATOM     10  C   UNL     1      22.086  -0.825 195.748  0.00  0.00    +0.000 C 
ATOM     11  C   UNL     1      25.490   0.711 195.522  0.00  0.00    +0.000 C 
ATOM     12  C   UNL     1      23.418   1.290 194.186  0.00  0.00    +0.000 C 
ATOM     13  C   UNL     1      21.262   0.231 194.972  0.00  0.00    +0.000 C 
ATOM     14  C   UNL     1      26.381  -0.082 194.592  0.00  0.00    +0.000 C 
ATOM     15  C   UNL     1      26.687  -1.488 195.018  0.00  0.00    +0.000 C 
ATOM     16  C   UNL     1      22.072   0.855 193.849  0.00  0.00    +0.000 C 
ATOM     17  C   UNL     1      22.104   0.896 196.976  0.00  0.00    +0.000 C 
ATOM     18  C   UNL     1      26.239   1.797 196.044  0.00  0.00    +0.000 C 
ATOM     19  C   UNL     1      24.021   2.491 193.458  0.00  0.00    +0.000 C 
ATOM     20  C   UNL     1      27.673   0.797 194.668  0.00  0.00    +0.000 C 
ATOM     21  C   UNL     1      27.444   1.944 195.606  0.00  0.00    +0.000 C 
ATOM     22  C   UNL     1      28.498   2.725 196.319  0.00  0.00    +0.000 C 
ENDROOT
BRANCH  13  23
ATOM     23  C   UNL     1      19.877  -0.350 194.602  0.00  0.00    +0.000 C 
ATOM     24  C   UNL     1      19.650  -1.402 193.518  0.00  0.00    +0.000 C 
ATOM     25  C   UNL     1      18.710   0.205 194.989  0.00  0.00    +0.000 C 
ENDBRANCH  13  23
BRANCH  14  26
ATOM     26  O   UNL     1      25.842  -0.131 193.288  0.00  0.00    +0.000 OA
ATOM     27  H   UNL     1      25.330   0.692 193.155  0.00  0.00    +0.000 HD
ENDBRANCH  14  26
BRANCH  15  28
ATOM     28  O   UNL     1      27.844  -2.068 194.492  0.00  0.00    +0.000 OA
ATOM     29  H   UNL     1      28.099  -1.750 193.600  0.00  0.00    +0.000 HD
ENDBRANCH  15  28
BRANCH  17  30
ATOM     30  C   UNL     1      21.741   1.539 198.235  0.00  0.00    +0.000 C 
ATOM     31  C   UNL     1      21.443   2.069 199.270  0.00  0.00    +0.000 C 
BRANCH  31  32
ATOM     32  C   UNL     1      21.063   2.747 200.589  0.00  0.00    +0.000 C 
ATOM     33  C   UNL     1      20.766   3.280 201.623  0.00  0.00    +0.000 C 
BRANCH  33  34
ATOM     34  C   UNL     1      20.389   3.960 202.943  0.00  0.00    +0.000 C 
ATOM     35  C   UNL     1      20.012   4.640 204.261  0.00  0.00    +0.000 C 
BRANCH  35  36
ATOM     36  C   UNL     1      19.634   5.323 205.581  0.00  0.00    +0.000 C 
ATOM     37  C   UNL     1      19.255   6.004 206.899  0.00  0.00    +0.000 C 
ATOM     38  C   UNL     1      18.876   6.684 208.218  0.00  0.00    +0.000 C 
ENDBRANCH  35  36
ENDBRANCH  33  34
ENDBRANCH  31  32
ENDBRANCH  17  30
BRANCH  16  39
ATOM     39  O   UNL     1      21.612   1.084 192.541  0.00  0.00    +0.000 OA
BRANCH  39  41
ATOM     40  O   UNL     1      20.884   3.199 193.069  0.00  0.00    +0.000 OA
ATOM     41  C   UNL     1      20.799   2.174 192.414  0.00  0.00    +0.000 C 
BRANCH  41  42
ATOM     42  C   UNL     1      19.763   1.924 191.396  0.00  0.00    +0.000 A 
ATOM     43  C   UNL     1      20.067   1.906 190.035  0.00  0.00    +0.000 A 
ATOM     44  C   UNL     1      18.455   1.702 191.825  0.00  0.00    +0.000 A 
ATOM     45  C   UNL     1      19.060   1.665 189.102  0.00  0.00    +0.000 A 
ATOM     46  C   UNL     1      17.451   1.460 190.891  0.00  0.00    +0.000 A 
ATOM     47  C   UNL     1      17.754   1.443 189.531  0.00  0.00    +0.000 A 
ENDBRANCH  41  42
ENDBRANCH  39  41
ENDBRANCH  16  39
BRANCH   9  48
ATOM     48  C   UNL     1      26.131  -3.726 196.029  0.00  0.00    +0.000 C 
BRANCH  48  49
ATOM     49  O   UNL     1      26.487  -4.989 196.249  0.00  0.00    +0.000 OA
ATOM     50  H   UNL     1      27.318  -5.026 196.753  0.00  0.00    +0.000 HD
ENDBRANCH  48  49
ENDBRANCH   9  48
TORSDOF 12
ENDMDL
MODEL 4
REMARK VINA RESULT:      -6.8     33.143     38.513
REMARK  Name = 5358691_Yuanhuacine.pdbqt.pdb
REMARK  12 active torsions:
REMARK  status: ('A' for Active; 'I' for Inactive)
REMARK    1  A    between atoms: C_9  and  C_48
REMARK    2  A    between atoms: C_13  and  C_23
REMARK    3  A    between atoms: C_14  and  O_26
REMARK    4  A    between atoms: C_15  and  O_28
REMARK    5  A    between atoms: C_16  and  O_39
REMARK    6  A    between atoms: C_17  and  C_30
REMARK    7  A    between atoms: C_31  and  C_32
REMARK    8  A    between atoms: C_33  and  C_34
REMARK    9  A    between atoms: C_35  and  C_36
REMARK   10  A    between atoms: O_39  and  C_41
REMARK   11  A    between atoms: C_41  and  C_42
REMARK   12  A    between atoms: C_48  and  O_49
REMARK                            x       y       z     vdW  Elec       q    Type
REMARK                         _______ _______ _______ _____ _____    ______ ____
ROOT
ATOM      1  O   UNL     1      41.021 -21.097 175.350  0.00  0.00    +0.000 OA
ATOM      2  O   UNL     1      43.036 -22.447 172.825  0.00  0.00    +0.000 OA
ATOM      3  O   UNL     1      42.756 -20.097 172.649  0.00  0.00    +0.000 OA
ATOM      4  O   UNL     1      43.167 -21.310 170.747  0.00  0.00    +0.000 OA
ATOM      5  O   UNL     1      39.183 -25.966 175.555  0.00  0.00    +0.000 OA
ATOM      6  C   UNL     1      40.884 -21.335 173.020  0.00  0.00    +0.000 C 
ATOM      7  C   UNL     1      41.595 -22.681 172.817  0.00  0.00    +0.000 C 
ATOM      8  C   UNL     1      40.261 -20.876 174.230  0.00  0.00    +0.000 C 
ATOM      9  C   UNL     1      39.649 -21.514 175.397  0.00  0.00    +0.000 C 
ATOM     10  C   UNL     1      41.516 -20.395 172.086  0.00  0.00    +0.000 C 
ATOM     11  C   UNL     1      41.299 -23.649 173.922  0.00  0.00    +0.000 C 
ATOM     12  C   UNL     1      41.193 -23.249 171.423  0.00  0.00    +0.000 C 
ATOM     13  C   UNL     1      41.770 -20.913 170.650  0.00  0.00    +0.000 C 
ATOM     14  C   UNL     1      39.879 -23.928 174.362  0.00  0.00    +0.000 C 
ATOM     15  C   UNL     1      39.297 -22.959 175.349  0.00  0.00    +0.000 C 
ATOM     16  C   UNL     1      41.055 -22.229 170.396  0.00  0.00    +0.000 C 
ATOM     17  C   UNL     1      43.454 -21.240 172.142  0.00  0.00    +0.000 C 
ATOM     18  C   UNL     1      42.124 -24.714 174.364  0.00  0.00    +0.000 C 
ATOM     19  C   UNL     1      41.174 -24.724 171.020  0.00  0.00    +0.000 C 
ATOM     20  C   UNL     1      40.092 -25.322 175.038  0.00  0.00    +0.000 C 
ATOM     21  C   UNL     1      41.542 -25.698 174.963  0.00  0.00    +0.000 C 
ATOM     22  C   UNL     1      42.250 -26.666 175.853  0.00  0.00    +0.000 C 
ENDROOT
BRANCH  13  23
ATOM     23  C   UNL     1      41.533 -19.775 169.630  0.00  0.00    +0.000 C 
ATOM     24  C   UNL     1      42.080 -19.773 168.204  0.00  0.00    +0.000 C 
ATOM     25  C   UNL     1      41.071 -18.554 169.971  0.00  0.00    +0.000 C 
ENDBRANCH  13  23
BRANCH  14  26
ATOM     26  O   UNL     1      39.006 -23.998 173.254  0.00  0.00    +0.000 OA
ATOM     27  H   UNL     1      38.109 -24.170 173.603  0.00  0.00    +0.000 HD
ENDBRANCH  14  26
BRANCH  15  28
ATOM     28  O   UNL     1      38.236 -23.419 176.133  0.00  0.00    +0.000 OA
ATOM     29  H   UNL     1      38.499 -23.857 176.971  0.00  0.00    +0.000 HD
ENDBRANCH  15  28
BRANCH  17  30
ATOM     30  C   UNL     1      44.891 -21.065 172.333  0.00  0.00    +0.000 C 
ATOM     31  C   UNL     1      46.072 -20.923 172.490  0.00  0.00    +0.000 C 
BRANCH  31  32
ATOM     32  C   UNL     1      47.579 -20.743 172.690  0.00  0.00    +0.000 C 
ATOM     33  C   UNL     1      48.761 -20.603 172.846  0.00  0.00    +0.000 C 
BRANCH  33  34
ATOM     34  C   UNL     1      50.270 -20.426 173.045  0.00  0.00    +0.000 C 
ATOM     35  C   UNL     1      51.777 -20.251 173.244  0.00  0.00    +0.000 C 
BRANCH  35  36
ATOM     36  C   UNL     1      53.287 -20.075 173.442  0.00  0.00    +0.000 C 
ATOM     37  C   UNL     1      54.795 -19.899 173.641  0.00  0.00    +0.000 C 
ATOM     38  C   UNL     1      56.304 -19.724 173.841  0.00  0.00    +0.000 C 
ENDBRANCH  35  36
ENDBRANCH  33  34
ENDBRANCH  31  32
ENDBRANCH  17  30
BRANCH  16  39
ATOM     39  O   UNL     1      40.319 -22.548 169.242  0.00  0.00    +0.000 OA
BRANCH  39  41
ATOM     40  O   UNL     1      38.346 -22.824 170.387  0.00  0.00    +0.000 OA
ATOM     41  C   UNL     1      38.965 -22.468 169.399  0.00  0.00    +0.000 C 
BRANCH  41  42
ATOM     42  C   UNL     1      38.339 -21.926 168.179  0.00  0.00    +0.000 A 
ATOM     43  C   UNL     1      37.508 -22.708 167.377  0.00  0.00    +0.000 A 
ATOM     44  C   UNL     1      38.596 -20.599 167.838  0.00  0.00    +0.000 A 
ATOM     45  C   UNL     1      36.934 -22.159 166.232  0.00  0.00    +0.000 A 
ATOM     46  C   UNL     1      38.021 -20.053 166.694  0.00  0.00    +0.000 A 
ATOM     47  C   UNL     1      37.190 -20.833 165.892  0.00  0.00    +0.000 A 
ENDBRANCH  41  42
ENDBRANCH  39  41
ENDBRANCH  16  39
BRANCH   9  48
ATOM     48  C   UNL     1      38.913 -20.671 176.329  0.00  0.00    +0.000 C 
BRANCH  48  49
ATOM     49  O   UNL     1      38.245 -19.899 177.182  0.00  0.00    +0.000 OA
ATOM     50  H   UNL     1      37.773 -20.443 177.836  0.00  0.00    +0.000 HD
ENDBRANCH  48  49
ENDBRANCH   9  48
TORSDOF 12
ENDMDL
MODEL 5
REMARK VINA RESULT:      -6.6     34.000     39.227
REMARK  Name = 5358691_Yuanhuacine.pdbqt.pdb
REMARK  12 active torsions:
REMARK  status: ('A' for Active; 'I' for Inactive)
REMARK    1  A    between atoms: C_9  and  C_48
REMARK    2  A    between atoms: C_13  and  C_23
REMARK    3  A    between atoms: C_14  and  O_26
REMARK    4  A    between atoms: C_15  and  O_28
REMARK    5  A    between atoms: C_16  and  O_39
REMARK    6  A    between atoms: C_17  and  C_30
REMARK    7  A    between atoms: C_31  and  C_32
REMARK    8  A    between atoms: C_33  and  C_34
REMARK    9  A    between atoms: C_35  and  C_36
REMARK   10  A    between atoms: O_39  and  C_41
REMARK   11  A    between atoms: C_41  and  C_42
REMARK   12  A    between atoms: C_48  and  O_49
REMARK                            x       y       z     vdW  Elec       q    Type
REMARK                         _______ _______ _______ _____ _____    ______ ____
ROOT
ATOM      1  O   UNL     1      40.588  -5.387 165.647  0.00  0.00    +0.000 OA
ATOM      2  O   UNL     1      42.038  -6.038 162.527  0.00  0.00    +0.000 OA
ATOM      3  O   UNL     1      39.670  -5.901 162.452  0.00  0.00    +0.000 OA
ATOM      4  O   UNL     1      40.755  -7.188 160.896  0.00  0.00    +0.000 OA
ATOM      5  O   UNL     1      45.043  -7.441 167.393  0.00  0.00    +0.000 OA
ATOM      6  C   UNL     1      40.579  -7.162 164.113  0.00  0.00    +0.000 C 
ATOM      7  C   UNL     1      42.007  -7.077 163.553  0.00  0.00    +0.000 C 
ATOM      8  C   UNL     1      40.131  -6.652 165.378  0.00  0.00    +0.000 C 
ATOM      9  C   UNL     1      40.753  -6.374 166.673  0.00  0.00    +0.000 C 
ATOM     10  C   UNL     1      39.687  -7.203 162.949  0.00  0.00    +0.000 C 
ATOM     11  C   UNL     1      43.004  -6.691 164.602  0.00  0.00    +0.000 C 
ATOM     12  C   UNL     1      42.361  -8.440 162.887  0.00  0.00    +0.000 C 
ATOM     13  C   UNL     1      40.106  -8.138 161.788  0.00  0.00    +0.000 C 
ATOM     14  C   UNL     1      43.062  -7.409 165.932  0.00  0.00    +0.000 C 
ATOM     15  C   UNL     1      42.100  -6.929 166.979  0.00  0.00    +0.000 C 
ATOM     16  C   UNL     1      41.242  -9.060 162.195  0.00  0.00    +0.000 C 
ATOM     17  C   UNL     1      40.868  -5.998 161.674  0.00  0.00    +0.000 C 
ATOM     18  C   UNL     1      44.237  -6.019 164.399  0.00  0.00    +0.000 C 
ATOM     19  C   UNL     1      43.765  -9.021 162.709  0.00  0.00    +0.000 C 
ATOM     20  C   UNL     1      44.529  -7.056 166.347  0.00  0.00    +0.000 C 
ATOM     21  C   UNL     1      45.151  -6.188 165.294  0.00  0.00    +0.000 C 
ATOM     22  C   UNL     1      46.309  -5.264 165.484  0.00  0.00    +0.000 C 
ENDROOT
BRANCH  13  23
ATOM     23  C   UNL     1      38.854  -8.796 161.164  0.00  0.00    +0.000 C 
ATOM     24  C   UNL     1      38.747  -9.217 159.699  0.00  0.00    +0.000 C 
ATOM     25  C   UNL     1      37.644  -8.808 161.759  0.00  0.00    +0.000 C 
ENDBRANCH  13  23
BRANCH  14  26
ATOM     26  O   UNL     1      42.871  -8.799 165.770  0.00  0.00    +0.000 OA
ATOM     27  H   UNL     1      43.088  -9.222 166.624  0.00  0.00    +0.000 HD
ENDBRANCH  14  26
BRANCH  15  28
ATOM     28  O   UNL     1      42.433  -7.194 168.309  0.00  0.00    +0.000 OA
ATOM     29  H   UNL     1      41.901  -6.707 168.975  0.00  0.00    +0.000 HD
ENDBRANCH  15  28
BRANCH  17  30
ATOM     30  C   UNL     1      40.973  -4.846 160.784  0.00  0.00    +0.000 C 
ATOM     31  C   UNL     1      41.058  -3.897 160.054  0.00  0.00    +0.000 C 
BRANCH  31  32
ATOM     32  C   UNL     1      41.166  -2.686 159.124  0.00  0.00    +0.000 C 
ATOM     33  C   UNL     1      41.250  -1.737 158.394  0.00  0.00    +0.000 C 
BRANCH  33  34
ATOM     34  C   UNL     1      41.356  -0.526 157.461  0.00  0.00    +0.000 C 
ATOM     35  C   UNL     1      41.463   0.683 156.529  0.00  0.00    +0.000 C 
BRANCH  35  36
ATOM     36  C   UNL     1      41.571   1.894 155.595  0.00  0.00    +0.000 C 
ATOM     37  C   UNL     1      41.680   3.103 154.663  0.00  0.00    +0.000 C 
ATOM     38  C   UNL     1      41.790   4.313 153.729  0.00  0.00    +0.000 C 
ENDBRANCH  35  36
ENDBRANCH  33  34
ENDBRANCH  31  32
ENDBRANCH  17  30
BRANCH  16  39
ATOM     39  O   UNL     1      41.315 -10.436 161.920  0.00  0.00    +0.000 OA
BRANCH  39  41
ATOM     40  O   UNL     1      42.198  -9.928 159.860  0.00  0.00    +0.000 OA
ATOM     41  C   UNL     1      41.883 -10.738 160.715  0.00  0.00    +0.000 C 
BRANCH  41  42
ATOM     42  C   UNL     1      42.027 -12.197 160.568  0.00  0.00    +0.000 A 
ATOM     43  C   UNL     1      42.942 -12.755 159.676  0.00  0.00    +0.000 A 
ATOM     44  C   UNL     1      41.220 -13.022 161.352  0.00  0.00    +0.000 A 
ATOM     45  C   UNL     1      43.049 -14.139 159.567  0.00  0.00    +0.000 A 
ATOM     46  C   UNL     1      41.330 -14.405 161.241  0.00  0.00    +0.000 A 
ATOM     47  C   UNL     1      42.244 -14.963 160.349  0.00  0.00    +0.000 A 
ENDBRANCH  41  42
ENDBRANCH  39  41
ENDBRANCH  16  39
BRANCH   9  48
ATOM     48  C   UNL     1      39.882  -6.063 167.798  0.00  0.00    +0.000 C 
BRANCH  48  49
ATOM     49  O   UNL     1      39.081  -5.779 168.821  0.00  0.00    +0.000 OA
ATOM     50  H   UNL     1      39.331  -6.300 169.604  0.00  0.00    +0.000 HD
ENDBRANCH  48  49
ENDBRANCH   9  48
TORSDOF 12
ENDMDL
MODEL 6
REMARK VINA RESULT:      -6.6      4.988     10.592
REMARK  Name = 5358691_Yuanhuacine.pdbqt.pdb
REMARK  12 active torsions:
REMARK  status: ('A' for Active; 'I' for Inactive)
REMARK    1  A    between atoms: C_9  and  C_48
REMARK    2  A    between atoms: C_13  and  C_23
REMARK    3  A    between atoms: C_14  and  O_26
REMARK    4  A    between atoms: C_15  and  O_28
REMARK    5  A    between atoms: C_16  and  O_39
REMARK    6  A    between atoms: C_17  and  C_30
REMARK    7  A    between atoms: C_31  and  C_32
REMARK    8  A    between atoms: C_33  and  C_34
REMARK    9  A    between atoms: C_35  and  C_36
REMARK   10  A    between atoms: O_39  and  C_41
REMARK   11  A    between atoms: C_41  and  C_42
REMARK   12  A    between atoms: C_48  and  O_49
REMARK                            x       y       z     vdW  Elec       q    Type
REMARK                         _______ _______ _______ _____ _____    ______ ____
ROOT
ATOM      1  O   UNL     1      27.943   1.118 196.404  0.00  0.00    +0.000 OA
ATOM      2  O   UNL     1      28.550  -0.957 193.650  0.00  0.00    +0.000 OA
ATOM      3  O   UNL     1      29.601   1.164 193.477  0.00  0.00    +0.000 OA
ATOM      4  O   UNL     1      29.037   0.047 191.556  0.00  0.00    +0.000 OA
ATOM      5  O   UNL     1      23.755  -1.934 196.927  0.00  0.00    +0.000 OA
ATOM      6  C   UNL     1      27.417   1.142 194.117  0.00  0.00    +0.000 C 
ATOM      7  C   UNL     1      27.232  -0.357 193.840  0.00  0.00    +0.000 C 
ATOM      8  C   UNL     1      27.304   1.791 195.393  0.00  0.00    +0.000 C 
ATOM      9  C   UNL     1      26.588   1.523 196.641  0.00  0.00    +0.000 C 
ATOM     10  C   UNL     1      28.346   1.634 193.093  0.00  0.00    +0.000 C 
ATOM     11  C   UNL     1      26.585  -1.069 194.988  0.00  0.00    +0.000 C 
ATOM     12  C   UNL     1      26.419  -0.522 192.521  0.00  0.00    +0.000 C 
ATOM     13  C   UNL     1      28.095   1.153 191.643  0.00  0.00    +0.000 C 
ATOM     14  C   UNL     1      25.315  -0.547 195.620  0.00  0.00    +0.000 C 
ATOM     15  C   UNL     1      25.491   0.518 196.662  0.00  0.00    +0.000 C 
ATOM     16  C   UNL     1      26.746   0.468 191.507  0.00  0.00    +0.000 C 
ATOM     17  C   UNL     1      29.481  -0.140 192.898  0.00  0.00    +0.000 C 
ATOM     18  C   UNL     1      26.728  -2.438 195.331  0.00  0.00    +0.000 C 
ATOM     19  C   UNL     1      25.537  -1.713 192.146  0.00  0.00    +0.000 C 
ATOM     20  C   UNL     1      24.799  -1.867 196.282  0.00  0.00    +0.000 C 
ATOM     21  C   UNL     1      25.775  -2.974 196.017  0.00  0.00    +0.000 C 
ATOM     22  C   UNL     1      25.929  -4.225 196.818  0.00  0.00    +0.000 C 
ENDROOT
BRANCH  13  23
ATOM     23  C   UNL     1      28.408   2.295 190.648  0.00  0.00    +0.000 C 
ATOM     24  C   UNL     1      28.674   2.085 189.158  0.00  0.00    +0.000 C 
ATOM     25  C   UNL     1      28.758   3.540 191.030  0.00  0.00    +0.000 C 
ENDBRANCH  13  23
BRANCH  14  26
ATOM     26  O   UNL     1      24.423  -0.055 194.642  0.00  0.00    +0.000 OA
ATOM     27  H   UNL     1      24.851   0.718 194.222  0.00  0.00    +0.000 HD
ENDBRANCH  14  26
BRANCH  15  28
ATOM     28  O   UNL     1      24.457   0.671 197.589  0.00  0.00    +0.000 OA
ATOM     29  H   UNL     1      23.925  -0.137 197.754  0.00  0.00    +0.000 HD
ENDBRANCH  15  28
BRANCH  17  30
ATOM     30  C   UNL     1      30.784  -0.798 192.890  0.00  0.00    +0.000 C 
ATOM     31  C   UNL     1      31.856  -1.337 192.885  0.00  0.00    +0.000 C 
BRANCH  31  32
ATOM     32  C   UNL     1      33.224  -2.024 192.880  0.00  0.00    +0.000 C 
ATOM     33  C   UNL     1      34.297  -2.562 192.876  0.00  0.00    +0.000 C 
BRANCH  33  34
ATOM     34  C   UNL     1      35.667  -3.248 192.868  0.00  0.00    +0.000 C 
ATOM     35  C   UNL     1      37.037  -3.932 192.861  0.00  0.00    +0.000 C 
BRANCH  35  36
ATOM     36  C   UNL     1      38.407  -4.618 192.856  0.00  0.00    +0.000 C 
ATOM     37  C   UNL     1      39.776  -5.304 192.850  0.00  0.00    +0.000 C 
ATOM     38  C   UNL     1      41.146  -5.991 192.843  0.00  0.00    +0.000 C 
ENDBRANCH  35  36
ENDBRANCH  33  34
ENDBRANCH  31  32
ENDBRANCH  17  30
BRANCH  16  39
ATOM     39  O   UNL     1      25.825   0.680 190.468  0.00  0.00    +0.000 OA
BRANCH  39  41
ATOM     40  O   UNL     1      24.267   1.712 191.807  0.00  0.00    +0.000 OA
ATOM     41  C   UNL     1      24.865   1.611 190.749  0.00  0.00    +0.000 C 
BRANCH  41  42
ATOM     42  C   UNL     1      24.616   2.460 189.571  0.00  0.00    +0.000 A 
ATOM     43  C   UNL     1      23.857   2.007 188.492  0.00  0.00    +0.000 A 
ATOM     44  C   UNL     1      25.158   3.745 189.556  0.00  0.00    +0.000 A 
ATOM     45  C   UNL     1      23.642   2.841 187.397  0.00  0.00    +0.000 A 
ATOM     46  C   UNL     1      24.941   4.576 188.460  0.00  0.00    +0.000 A 
ATOM     47  C   UNL     1      24.183   4.124 187.382  0.00  0.00    +0.000 A 
ENDBRANCH  41  42
ENDBRANCH  39  41
ENDBRANCH  16  39
BRANCH   9  48
ATOM     48  C   UNL     1      26.561   2.572 197.652  0.00  0.00    +0.000 C 
BRANCH  48  49
ATOM     49  O   UNL     1      26.539   3.526 198.578  0.00  0.00    +0.000 OA
ATOM     50  H   UNL     1      25.777   4.116 198.442  0.00  0.00    +0.000 HD
ENDBRANCH  48  49
ENDBRANCH   9  48
TORSDOF 12
ENDMDL
MODEL 7
REMARK VINA RESULT:      -6.4     34.238     39.424
REMARK  Name = 5358691_Yuanhuacine.pdbqt.pdb
REMARK  12 active torsions:
REMARK  status: ('A' for Active; 'I' for Inactive)
REMARK    1  A    between atoms: C_9  and  C_48
REMARK    2  A    between atoms: C_13  and  C_23
REMARK    3  A    between atoms: C_14  and  O_26
REMARK    4  A    between atoms: C_15  and  O_28
REMARK    5  A    between atoms: C_16  and  O_39
REMARK    6  A    between atoms: C_17  and  C_30
REMARK    7  A    between atoms: C_31  and  C_32
REMARK    8  A    between atoms: C_33  and  C_34
REMARK    9  A    between atoms: C_35  and  C_36
REMARK   10  A    between atoms: O_39  and  C_41
REMARK   11  A    between atoms: C_41  and  C_42
REMARK   12  A    between atoms: C_48  and  O_49
REMARK                            x       y       z     vdW  Elec       q    Type
REMARK                         _______ _______ _______ _____ _____    ______ ____
ROOT
ATOM      1  O   UNL     1      43.952  -4.609 162.964  0.00  0.00    +0.000 OA
ATOM      2  O   UNL     1      43.136  -8.010 162.802  0.00  0.00    +0.000 OA
ATOM      3  O   UNL     1      42.788  -6.863 160.754  0.00  0.00    +0.000 OA
ATOM      4  O   UNL     1      41.521  -8.717 161.214  0.00  0.00    +0.000 OA
ATOM      5  O   UNL     1      43.109  -5.339 168.051  0.00  0.00    +0.000 OA
ATOM      6  C   UNL     1      41.998  -5.868 162.642  0.00  0.00    +0.000 C 
ATOM      7  C   UNL     1      42.279  -7.084 163.537  0.00  0.00    +0.000 C 
ATOM      8  C   UNL     1      42.595  -4.568 162.763  0.00  0.00    +0.000 C 
ATOM      9  C   UNL     1      43.184  -3.785 163.851  0.00  0.00    +0.000 C 
ATOM     10  C   UNL     1      41.605  -6.407 161.335  0.00  0.00    +0.000 C 
ATOM     11  C   UNL     1      43.009  -6.708 164.790  0.00  0.00    +0.000 C 
ATOM     12  C   UNL     1      40.928  -7.798 163.844  0.00  0.00    +0.000 C 
ATOM     13  C   UNL     1      40.608  -7.591 161.346  0.00  0.00    +0.000 C 
ATOM     14  C   UNL     1      42.527  -5.576 165.670  0.00  0.00    +0.000 C 
ATOM     15  C   UNL     1      42.960  -4.199 165.263  0.00  0.00    +0.000 C 
ATOM     16  C   UNL     1      40.001  -7.798 162.723  0.00  0.00    +0.000 C 
ATOM     17  C   UNL     1      42.813  -8.143 161.396  0.00  0.00    +0.000 C 
ATOM     18  C   UNL     1      43.873  -7.534 165.554  0.00  0.00    +0.000 C 
ATOM     19  C   UNL     1      40.617  -8.654 165.072  0.00  0.00    +0.000 C 
ATOM     20  C   UNL     1      43.221  -5.984 167.012  0.00  0.00    +0.000 C 
ATOM     21  C   UNL     1      44.026  -7.231 166.799  0.00  0.00    +0.000 C 
ATOM     22  C   UNL     1      45.179  -7.690 167.630  0.00  0.00    +0.000 C 
ENDROOT
BRANCH  13  23
ATOM     23  C   UNL     1      39.627  -7.464 160.157  0.00  0.00    +0.000 C 
ATOM     24  C   UNL     1      38.832  -6.200 159.832  0.00  0.00    +0.000 C 
ATOM     25  C   UNL     1      39.158  -8.521 159.462  0.00  0.00    +0.000 C 
ENDBRANCH  13  23
BRANCH  14  26
ATOM     26  O   UNL     1      41.119  -5.576 165.775  0.00  0.00    +0.000 OA
ATOM     27  H   UNL     1      40.821  -6.502 165.684  0.00  0.00    +0.000 HD
ENDBRANCH  14  26
BRANCH  15  28
ATOM     28  O   UNL     1      42.970  -3.220 166.260  0.00  0.00    +0.000 OA
ATOM     29  H   UNL     1      42.325  -3.361 166.985  0.00  0.00    +0.000 HD
ENDBRANCH  15  28
BRANCH  17  30
ATOM     30  C   UNL     1      43.815  -8.993 160.761  0.00  0.00    +0.000 C 
ATOM     31  C   UNL     1      44.640  -9.691 160.240  0.00  0.00    +0.000 C 
BRANCH  31  32
ATOM     32  C   UNL     1      45.694 -10.582 159.577  0.00  0.00    +0.000 C 
ATOM     33  C   UNL     1      46.520 -11.281 159.056  0.00  0.00    +0.000 C 
BRANCH  33  34
ATOM     34  C   UNL     1      47.571 -12.174 158.391  0.00  0.00    +0.000 C 
ATOM     35  C   UNL     1      48.621 -13.067 157.725  0.00  0.00    +0.000 C 
BRANCH  35  36
ATOM     36  C   UNL     1      49.672 -13.960 157.057  0.00  0.00    +0.000 C 
ATOM     37  C   UNL     1      50.723 -14.852 156.389  0.00  0.00    +0.000 C 
ATOM     38  C   UNL     1      51.775 -15.744 155.721  0.00  0.00    +0.000 C 
ENDBRANCH  35  36
ENDBRANCH  33  34
ENDBRANCH  31  32
ENDBRANCH  17  30
BRANCH  16  39
ATOM     39  O   UNL     1      38.642  -8.031 162.989  0.00  0.00    +0.000 OA
BRANCH  39  41
ATOM     40  O   UNL     1      38.402  -5.810 163.525  0.00  0.00    +0.000 OA
ATOM     41  C   UNL     1      37.973  -6.950 163.488  0.00  0.00    +0.000 C 
BRANCH  41  42
ATOM     42  C   UNL     1      36.662  -7.361 164.023  0.00  0.00    +0.000 A 
ATOM     43  C   UNL     1      35.965  -6.569 164.934  0.00  0.00    +0.000 A 
ATOM     44  C   UNL     1      36.124  -8.573 163.592  0.00  0.00    +0.000 A 
ATOM     45  C   UNL     1      34.728  -6.991 165.416  0.00  0.00    +0.000 A 
ATOM     46  C   UNL     1      34.887  -8.992 164.075  0.00  0.00    +0.000 A 
ATOM     47  C   UNL     1      34.190  -8.202 164.986  0.00  0.00    +0.000 A 
ENDBRANCH  41  42
ENDBRANCH  39  41
ENDBRANCH  16  39
BRANCH   9  48
ATOM     48  C   UNL     1      43.483  -2.382 163.599  0.00  0.00    +0.000 C 
BRANCH  48  49
ATOM     49  O   UNL     1      43.763  -1.102 163.368  0.00  0.00    +0.000 OA
ATOM     50  H   UNL     1      43.986  -0.966 162.430  0.00  0.00    +0.000 HD
ENDBRANCH  48  49
ENDBRANCH   9  48
TORSDOF 12
ENDMDL
MODEL 8
REMARK VINA RESULT:      -6.4      4.350      8.917
REMARK  Name = 5358691_Yuanhuacine.pdbqt.pdb
REMARK  12 active torsions:
REMARK  status: ('A' for Active; 'I' for Inactive)
REMARK    1  A    between atoms: C_9  and  C_48
REMARK    2  A    between atoms: C_13  and  C_23
REMARK    3  A    between atoms: C_14  and  O_26
REMARK    4  A    between atoms: C_15  and  O_28
REMARK    5  A    between atoms: C_16  and  O_39
REMARK    6  A    between atoms: C_17  and  C_30
REMARK    7  A    between atoms: C_31  and  C_32
REMARK    8  A    between atoms: C_33  and  C_34
REMARK    9  A    between atoms: C_35  and  C_36
REMARK   10  A    between atoms: O_39  and  C_41
REMARK   11  A    between atoms: C_41  and  C_42
REMARK   12  A    between atoms: C_48  and  O_49
REMARK                            x       y       z     vdW  Elec       q    Type
REMARK                         _______ _______ _______ _____ _____    ______ ____
ROOT
ATOM      1  O   UNL     1      23.093   1.443 199.768  0.00  0.00    +0.000 OA
ATOM      2  O   UNL     1      22.930  -1.680 198.194  0.00  0.00    +0.000 OA
ATOM      3  O   UNL     1      24.535  -0.224 197.227  0.00  0.00    +0.000 OA
ATOM      4  O   UNL     1      23.572  -1.840 195.916  0.00  0.00    +0.000 OA
ATOM      5  O   UNL     1      18.239   0.221 201.206  0.00  0.00    +0.000 OA
ATOM      6  C   UNL     1      22.475   0.645 197.650  0.00  0.00    +0.000 C 
ATOM      7  C   UNL     1      21.852  -0.711 198.015  0.00  0.00    +0.000 C 
ATOM      8  C   UNL     1      22.622   1.775 198.523  0.00  0.00    +0.000 C 
ATOM      9  C   UNL     1      21.927   2.276 199.710  0.00  0.00    +0.000 C 
ATOM     10  C   UNL     1      23.450   0.372 196.587  0.00  0.00    +0.000 C 
ATOM     11  C   UNL     1      21.090  -0.655 199.303  0.00  0.00    +0.000 C 
ATOM     12  C   UNL     1      20.956  -1.181 196.829  0.00  0.00    +0.000 C 
ATOM     13  C   UNL     1      22.994  -0.585 195.459  0.00  0.00    +0.000 C 
ATOM     14  C   UNL     1      20.059   0.422 199.559  0.00  0.00    +0.000 C 
ATOM     15  C   UNL     1      20.590   1.730 200.068  0.00  0.00    +0.000 C 
ATOM     16  C   UNL     1      21.500  -0.851 195.522  0.00  0.00    +0.000 C 
ATOM     17  C   UNL     1      24.015  -1.558 197.242  0.00  0.00    +0.000 C 
ATOM     18  C   UNL     1      20.852  -1.729 200.199  0.00  0.00    +0.000 C 
ATOM     19  C   UNL     1      19.750  -2.116 196.924  0.00  0.00    +0.000 C 
ATOM     20  C   UNL     1      19.222  -0.289 200.674  0.00  0.00    +0.000 C 
ATOM     21  C   UNL     1      19.823  -1.630 200.972  0.00  0.00    +0.000 C 
ATOM     22  C   UNL     1      19.653  -2.412 202.234  0.00  0.00    +0.000 C 
ENDROOT
BRANCH  13  23
ATOM     23  C   UNL     1      23.568  -0.111 194.103  0.00  0.00    +0.000 C 
ATOM     24  C   UNL     1      23.737  -1.013 192.882  0.00  0.00    +0.000 C 
ATOM     25  C   UNL     1      24.235   1.050 193.942  0.00  0.00    +0.000 C 
ENDBRANCH  13  23
BRANCH  14  26
ATOM     26  O   UNL     1      19.296   0.683 198.401  0.00  0.00    +0.000 OA
ATOM     27  H   UNL     1      19.924   0.851 197.671  0.00  0.00    +0.000 HD
ENDBRANCH  14  26
BRANCH  15  28
ATOM     28  O   UNL     1      19.694   2.545 200.764  0.00  0.00    +0.000 OA
ATOM     29  H   UNL     1      19.688   2.418 201.737  0.00  0.00    +0.000 HD
ENDBRANCH  15  28
BRANCH  17  30
ATOM     30  C   UNL     1      25.071  -2.496 197.610  0.00  0.00    +0.000 C 
ATOM     31  C   UNL     1      25.939  -3.268 197.912  0.00  0.00    +0.000 C 
BRANCH  31  32
ATOM     32  C   UNL     1      27.044  -4.254 198.298  0.00  0.00    +0.000 C 
ATOM     33  C   UNL     1      27.912  -5.027 198.599  0.00  0.00    +0.000 C 
BRANCH  33  34
ATOM     34  C   UNL     1      29.019  -6.014 198.982  0.00  0.00    +0.000 C 
ATOM     35  C   UNL     1      30.124  -7.002 199.363  0.00  0.00    +0.000 C 
BRANCH  35  36
ATOM     36  C   UNL     1      31.232  -7.991 199.744  0.00  0.00    +0.000 C 
ATOM     37  C   UNL     1      32.337  -8.980 200.125  0.00  0.00    +0.000 C 
ATOM     38  C   UNL     1      33.443  -9.970 200.505  0.00  0.00    +0.000 C 
ENDBRANCH  35  36
ENDBRANCH  33  34
ENDBRANCH  31  32
ENDBRANCH  17  30
BRANCH  16  39
ATOM     39  O   UNL     1      20.624  -0.848 194.423  0.00  0.00    +0.000 OA
BRANCH  39  41
ATOM     40  O   UNL     1      18.976   0.675 194.924  0.00  0.00    +0.000 OA
ATOM     41  C   UNL     1      19.934   0.320 194.258  0.00  0.00    +0.000 C 
BRANCH  41  42
ATOM     42  C   UNL     1      20.483   1.082 193.122  0.00  0.00    +0.000 A 
ATOM     43  C   UNL     1      20.568   0.529 191.845  0.00  0.00    +0.000 A 
ATOM     44  C   UNL     1      20.920   2.386 193.352  0.00  0.00    +0.000 A 
ATOM     45  C   UNL     1      21.092   1.282 190.796  0.00  0.00    +0.000 A 
ATOM     46  C   UNL     1      21.442   3.137 192.302  0.00  0.00    +0.000 A 
ATOM     47  C   UNL     1      21.528   2.585 191.026  0.00  0.00    +0.000 A 
ENDBRANCH  41  42
ENDBRANCH  39  41
ENDBRANCH  16  39
BRANCH   9  48
ATOM     48  C   UNL     1      22.257   3.614 200.181  0.00  0.00    +0.000 C 
BRANCH  48  49
ATOM     49  O   UNL     1      22.560   4.834 200.617  0.00  0.00    +0.000 OA
ATOM     50  H   UNL     1      21.968   5.495 200.219  0.00  0.00    +0.000 HD
ENDBRANCH  48  49
ENDBRANCH   9  48
TORSDOF 12
ENDMDL
MODEL 9
REMARK VINA RESULT:      -6.4     21.836     25.317
REMARK  Name = 5358691_Yuanhuacine.pdbqt.pdb
REMARK  12 active torsions:
REMARK  status: ('A' for Active; 'I' for Inactive)
REMARK    1  A    between atoms: C_9  and  C_48
REMARK    2  A    between atoms: C_13  and  C_23
REMARK    3  A    between atoms: C_14  and  O_26
REMARK    4  A    between atoms: C_15  and  O_28
REMARK    5  A    between atoms: C_16  and  O_39
REMARK    6  A    between atoms: C_17  and  C_30
REMARK    7  A    between atoms: C_31  and  C_32
REMARK    8  A    between atoms: C_33  and  C_34
REMARK    9  A    between atoms: C_35  and  C_36
REMARK   10  A    between atoms: O_39  and  C_41
REMARK   11  A    between atoms: C_41  and  C_42
REMARK   12  A    between atoms: C_48  and  O_49
REMARK                            x       y       z     vdW  Elec       q    Type
REMARK                         _______ _______ _______ _____ _____    ______ ____
ROOT
ATOM      1  O   UNL     1      11.894 -20.705 179.346  0.00  0.00    +0.000 OA
ATOM      2  O   UNL     1      13.447 -18.328 181.395  0.00  0.00    +0.000 OA
ATOM      3  O   UNL     1      11.164 -18.685 181.935  0.00  0.00    +0.000 OA
ATOM      4  O   UNL     1      12.108 -16.648 182.404  0.00  0.00    +0.000 OA
ATOM      5  O   UNL     1      15.711 -19.379 176.061  0.00  0.00    +0.000 OA
ATOM      6  C   UNL     1      11.673 -18.402 179.735  0.00  0.00    +0.000 C 
ATOM      7  C   UNL     1      13.132 -18.005 180.006  0.00  0.00    +0.000 C 
ATOM      8  C   UNL     1      11.227 -19.555 179.006  0.00  0.00    +0.000 C 
ATOM      9  C   UNL     1      11.781 -20.402 177.949  0.00  0.00    +0.000 C 
ATOM     10  C   UNL     1      10.889 -17.855 180.849  0.00  0.00    +0.000 C 
ATOM     11  C   UNL     1      14.094 -18.768 179.147  0.00  0.00    +0.000 C 
ATOM     12  C   UNL     1      13.272 -16.465 179.811  0.00  0.00    +0.000 C 
ATOM     13  C   UNL     1      11.217 -16.404 181.279  0.00  0.00    +0.000 C 
ATOM     14  C   UNL     1      13.902 -18.865 177.650  0.00  0.00    +0.000 C 
ATOM     15  C   UNL     1      12.967 -19.939 177.178  0.00  0.00    +0.000 C 
ATOM     16  C   UNL     1      12.117 -15.712 180.270  0.00  0.00    +0.000 C 
ATOM     17  C   UNL     1      12.382 -18.046 182.335  0.00  0.00    +0.000 C 
ATOM     18  C   UNL     1      15.445 -19.076 179.448  0.00  0.00    +0.000 C 
ATOM     19  C   UNL     1      14.548 -15.717 179.424  0.00  0.00    +0.000 C 
ATOM     20  C   UNL     1      15.370 -19.207 177.228  0.00  0.00    +0.000 C 
ATOM     21  C   UNL     1      16.232 -19.301 178.451  0.00  0.00    +0.000 C 
ATOM     22  C   UNL     1      17.526 -20.039 178.563  0.00  0.00    +0.000 C 
ENDROOT
BRANCH  13  23
ATOM     23  C   UNL     1       9.918 -15.669 181.684  0.00  0.00    +0.000 C 
ATOM     24  C   UNL     1       9.681 -15.041 183.057  0.00  0.00    +0.000 C 
ATOM     25  C   UNL     1       8.767 -15.751 180.985  0.00  0.00    +0.000 C 
ENDBRANCH  13  23
BRANCH  14  26
ATOM     26  O   UNL     1      13.462 -17.637 177.110  0.00  0.00    +0.000 OA
ATOM     27  H   UNL     1      13.572 -17.690 176.140  0.00  0.00    +0.000 HD
ENDBRANCH  14  26
BRANCH  15  28
ATOM     28  O   UNL     1      13.130 -20.384 175.863  0.00  0.00    +0.000 OA
ATOM     29  H   UNL     1      13.689 -19.810 175.297  0.00  0.00    +0.000 HD
ENDBRANCH  15  28
BRANCH  17  30
ATOM     30  C   UNL     1      12.779 -18.527 183.654  0.00  0.00    +0.000 C 
ATOM     31  C   UNL     1      13.105 -18.922 184.740  0.00  0.00    +0.000 C 
BRANCH  31  32
ATOM     32  C   UNL     1      13.518 -19.427 186.125  0.00  0.00    +0.000 C 
ATOM     33  C   UNL     1      13.841 -19.823 187.211  0.00  0.00    +0.000 C 
BRANCH  33  34
ATOM     34  C   UNL     1      14.251 -20.327 188.598  0.00  0.00    +0.000 C 
ATOM     35  C   UNL     1      14.663 -20.831 189.984  0.00  0.00    +0.000 C 
BRANCH  35  36
ATOM     36  C   UNL     1      15.074 -21.334 191.372  0.00  0.00    +0.000 C 
ATOM     37  C   UNL     1      15.487 -21.838 192.758  0.00  0.00    +0.000 C 
ATOM     38  C   UNL     1      15.900 -22.342 194.145  0.00  0.00    +0.000 C 
ENDBRANCH  35  36
ENDBRANCH  33  34
ENDBRANCH  31  32
ENDBRANCH  17  30
BRANCH  16  39
ATOM     39  O   UNL     1      11.947 -14.403 179.788  0.00  0.00    +0.000 OA
BRANCH  39  41
ATOM     40  O   UNL     1      12.739 -13.605 181.793  0.00  0.00    +0.000 OA
ATOM     41  C   UNL     1      12.393 -13.430 180.637  0.00  0.00    +0.000 C 
BRANCH  41  42
ATOM     42  C   UNL     1      12.358 -12.115 179.971  0.00  0.00    +0.000 A 
ATOM     43  C   UNL     1      11.983 -10.960 180.657  0.00  0.00    +0.000 A 
ATOM     44  C   UNL     1      12.713 -12.047 178.625  0.00  0.00    +0.000 A 
ATOM     45  C   UNL     1      11.963  -9.735 179.994  0.00  0.00    +0.000 A 
ATOM     46  C   UNL     1      12.694 -10.821 177.965  0.00  0.00    +0.000 A 
ATOM     47  C   UNL     1      12.319  -9.667 178.649  0.00  0.00    +0.000 A 
ENDBRANCH  41  42
ENDBRANCH  39  41
ENDBRANCH  16  39
BRANCH   9  48
ATOM     48  C   UNL     1      10.895 -21.365 177.309  0.00  0.00    +0.000 C 
BRANCH  48  49
ATOM     49  O   UNL     1      10.091 -22.247 176.722  0.00  0.00    +0.000 OA
ATOM     50  H   UNL     1       9.863 -22.964 177.339  0.00  0.00    +0.000 HD
ENDBRANCH  48  49
ENDBRANCH   9  48
TORSDOF 12
ENDMDL
