MODEL 1
REMARK VINA RESULT:      -6.3      0.000      0.000
REMARK  Name = 5386_Tegafur.pdbqt.pdb
REMARK  1 active torsions:
REMARK  status: ('A' for Active; 'I' for Inactive)
REMARK    1  A    between atoms: N_4  and  C_12
REMARK                            x       y       z     vdW  Elec       q    Type
REMARK                         _______ _______ _______ _____ _____    ______ ____
ROOT
ATOM      1  F   UNL     1      20.846   2.080 193.018  0.00  0.00    +0.000 F 
ATOM      2  O   UNL     1      17.235   0.618 189.233  0.00  0.00    +0.000 OA
ATOM      3  O   UNL     1      18.389   0.840 193.671  0.00  0.00    +0.000 OA
ATOM      4  N   UNL     1      19.196   1.809 189.811  0.00  0.00    +0.000 N 
ATOM      5  N   UNL     1      17.815   0.831 191.442  0.00  0.00    +0.000 N 
ATOM      6  C   UNL     1      18.023   1.060 190.061  0.00  0.00    +0.000 C 
ATOM      7  C   UNL     1      19.927   2.184 190.880  0.00  0.00    +0.000 C 
ATOM      8  C   UNL     1      19.818   2.028 192.156  0.00  0.00    +0.000 C 
ATOM      9  C   UNL     1      18.628   1.194 192.523  0.00  0.00    +0.000 C 
ATOM     10  H   UNL     1      17.009   0.266 191.667  0.00  0.00    +0.000 HD
ENDROOT
BRANCH   4  12
ATOM     11  O   UNL     1      20.839   1.728 188.026  0.00  0.00    +0.000 OA
ATOM     12  C   UNL     1      19.621   2.161 188.563  0.00  0.00    +0.000 C 
ATOM     13  C   UNL     1      18.981   2.989 187.601  0.00  0.00    +0.000 C 
ATOM     14  C   UNL     1      19.607   3.289 186.238  0.00  0.00    +0.000 C 
ATOM     15  C   UNL     1      20.662   2.384 186.872  0.00  0.00    +0.000 C 
ENDBRANCH   4  12
TORSDOF 1
ENDMDL
MODEL 2
REMARK VINA RESULT:      -5.8      3.782      6.193
REMARK  Name = 5386_Tegafur.pdbqt.pdb
REMARK  1 active torsions:
REMARK  status: ('A' for Active; 'I' for Inactive)
REMARK    1  A    between atoms: N_4  and  C_12
REMARK                            x       y       z     vdW  Elec       q    Type
REMARK                         _______ _______ _______ _____ _____    ______ ____
ROOT
ATOM      1  F   UNL     1      21.428   3.337 183.825  0.00  0.00    +0.000 F 
ATOM      2  O   UNL     1      21.319   5.128 188.952  0.00  0.00    +0.000 OA
ATOM      3  O   UNL     1      22.785   5.683 184.637  0.00  0.00    +0.000 OA
ATOM      4  N   UNL     1      20.458   3.677 187.293  0.00  0.00    +0.000 N 
ATOM      5  N   UNL     1      21.953   5.412 186.767  0.00  0.00    +0.000 N 
ATOM      6  C   UNL     1      21.230   4.754 187.789  0.00  0.00    +0.000 C 
ATOM      7  C   UNL     1      20.520   3.433 185.968  0.00  0.00    +0.000 C 
ATOM      8  C   UNL     1      21.139   3.971 184.973  0.00  0.00    +0.000 C 
ATOM      9  C   UNL     1      22.032   5.095 185.404  0.00  0.00    +0.000 C 
ATOM     10  H   UNL     1      22.550   6.165 187.079  0.00  0.00    +0.000 HD
ENDROOT
BRANCH   4  12
ATOM     11  O   UNL     1      20.156   2.221 189.212  0.00  0.00    +0.000 OA
ATOM     12  C   UNL     1      19.673   2.882 188.076  0.00  0.00    +0.000 C 
ATOM     13  C   UNL     1      18.297   2.560 187.927  0.00  0.00    +0.000 C 
ATOM     14  C   UNL     1      17.565   1.637 188.903  0.00  0.00    +0.000 C 
ATOM     15  C   UNL     1      18.974   1.655 189.490  0.00  0.00    +0.000 C 
ENDBRANCH   4  12
TORSDOF 1
ENDMDL
MODEL 3
REMARK VINA RESULT:      -5.8      2.766      5.352
REMARK  Name = 5386_Tegafur.pdbqt.pdb
REMARK  1 active torsions:
REMARK  status: ('A' for Active; 'I' for Inactive)
REMARK    1  A    between atoms: N_4  and  C_12
REMARK                            x       y       z     vdW  Elec       q    Type
REMARK                         _______ _______ _______ _____ _____    ______ ____
ROOT
ATOM      1  F   UNL     1      19.594   3.506 185.434  0.00  0.00    +0.000 F 
ATOM      2  O   UNL     1      21.903   1.029 189.680  0.00  0.00    +0.000 OA
ATOM      3  O   UNL     1      22.366   2.951 185.536  0.00  0.00    +0.000 OA
ATOM      4  N   UNL     1      20.020   2.115 188.745  0.00  0.00    +0.000 N 
ATOM      5  N   UNL     1      22.099   2.077 187.650  0.00  0.00    +0.000 N 
ATOM      6  C   UNL     1      21.365   1.681 188.793  0.00  0.00    +0.000 C 
ATOM      7  C   UNL     1      19.636   2.814 187.657  0.00  0.00    +0.000 C 
ATOM      8  C   UNL     1      20.225   3.220 186.584  0.00  0.00    +0.000 C 
ATOM      9  C   UNL     1      21.650   2.761 186.512  0.00  0.00    +0.000 C 
ATOM     10  H   UNL     1      23.057   1.756 187.621  0.00  0.00    +0.000 HD
ENDROOT
BRANCH   4  12
ATOM     11  O   UNL     1      17.892   1.206 189.477  0.00  0.00    +0.000 OA
ATOM     12  C   UNL     1      19.105   1.860 189.724  0.00  0.00    +0.000 C 
ATOM     13  C   UNL     1      19.162   2.182 191.107  0.00  0.00    +0.000 C 
ATOM     14  C   UNL     1      18.032   1.826 192.075  0.00  0.00    +0.000 C 
ATOM     15  C   UNL     1      17.494   1.279 190.754  0.00  0.00    +0.000 C 
ENDBRANCH   4  12
TORSDOF 1
ENDMDL
MODEL 4
REMARK VINA RESULT:      -5.8      2.361      3.204
REMARK  Name = 5386_Tegafur.pdbqt.pdb
REMARK  1 active torsions:
REMARK  status: ('A' for Active; 'I' for Inactive)
REMARK    1  A    between atoms: N_4  and  C_12
REMARK                            x       y       z     vdW  Elec       q    Type
REMARK                         _______ _______ _______ _____ _____    ______ ____
ROOT
ATOM      1  F   UNL     1      18.967   1.285 191.514  0.00  0.00    +0.000 F 
ATOM      2  O   UNL     1      19.304   3.184 186.436  0.00  0.00    +0.000 OA
ATOM      3  O   UNL     1      16.904   0.902 189.616  0.00  0.00    +0.000 OA
ATOM      4  N   UNL     1      20.145   3.150 188.647  0.00  0.00    +0.000 N 
ATOM      5  N   UNL     1      18.105   2.129 188.082  0.00  0.00    +0.000 N 
ATOM      6  C   UNL     1      19.218   2.868 187.617  0.00  0.00    +0.000 C 
ATOM      7  C   UNL     1      19.853   2.691 189.881  0.00  0.00    +0.000 C 
ATOM      8  C   UNL     1      18.877   2.022 190.394  0.00  0.00    +0.000 C 
ATOM      9  C   UNL     1      17.862   1.624 189.366  0.00  0.00    +0.000 C 
ATOM     10  H   UNL     1      17.434   1.870 187.373  0.00  0.00    +0.000 HD
ENDROOT
BRANCH   4  12
ATOM     11  O   UNL     1      22.550   3.225 188.331  0.00  0.00    +0.000 OA
ATOM     12  C   UNL     1      21.303   3.847 188.457  0.00  0.00    +0.000 C 
ATOM     13  C   UNL     1      21.495   5.251 188.361  0.00  0.00    +0.000 C 
ATOM     14  C   UNL     1      22.877   5.873 188.152  0.00  0.00    +0.000 C 
ATOM     15  C   UNL     1      23.208   4.382 188.188  0.00  0.00    +0.000 C 
ENDBRANCH   4  12
TORSDOF 1
ENDMDL
MODEL 5
REMARK VINA RESULT:      -5.7      3.757      6.135
REMARK  Name = 5386_Tegafur.pdbqt.pdb
REMARK  1 active torsions:
REMARK  status: ('A' for Active; 'I' for Inactive)
REMARK    1  A    between atoms: N_4  and  C_12
REMARK                            x       y       z     vdW  Elec       q    Type
REMARK                         _______ _______ _______ _____ _____    ______ ____
ROOT
ATOM      1  F   UNL     1      24.524   5.526 187.072  0.00  0.00    +0.000 F 
ATOM      2  O   UNL     1      19.703   3.346 185.844  0.00  0.00    +0.000 OA
ATOM      3  O   UNL     1      23.509   5.491 184.432  0.00  0.00    +0.000 OA
ATOM      4  N   UNL     1      21.452   3.648 187.408  0.00  0.00    +0.000 N 
ATOM      5  N   UNL     1      21.659   4.338 185.172  0.00  0.00    +0.000 N 
ATOM      6  C   UNL     1      20.829   3.729 186.142  0.00  0.00    +0.000 C 
ATOM      7  C   UNL     1      22.701   4.146 187.514  0.00  0.00    +0.000 C 
ATOM      8  C   UNL     1      23.526   4.709 186.699  0.00  0.00    +0.000 C 
ATOM      9  C   UNL     1      22.936   4.892 185.333  0.00  0.00    +0.000 C 
ATOM     10  H   UNL     1      21.242   4.453 184.259  0.00  0.00    +0.000 HD
ENDROOT
BRANCH   4  12
ATOM     11  O   UNL     1      20.784   1.724 188.729  0.00  0.00    +0.000 OA
ATOM     12  C   UNL     1      20.861   3.105 188.512  0.00  0.00    +0.000 C 
ATOM     13  C   UNL     1      20.231   3.762 189.604  0.00  0.00    +0.000 C 
ATOM     14  C   UNL     1      19.607   2.992 190.769  0.00  0.00    +0.000 C 
ATOM     15  C   UNL     1      20.132   1.857 189.892  0.00  0.00    +0.000 C 
ENDBRANCH   4  12
TORSDOF 1
ENDMDL
MODEL 6
REMARK VINA RESULT:      -5.6      2.736      5.175
REMARK  Name = 5386_Tegafur.pdbqt.pdb
REMARK  1 active torsions:
REMARK  status: ('A' for Active; 'I' for Inactive)
REMARK    1  A    between atoms: N_4  and  C_12
REMARK                            x       y       z     vdW  Elec       q    Type
REMARK                         _______ _______ _______ _____ _____    ______ ____
ROOT
ATOM      1  F   UNL     1      23.262   2.548 187.011  0.00  0.00    +0.000 F 
ATOM      2  O   UNL     1      17.887   3.044 187.609  0.00  0.00    +0.000 OA
ATOM      3  O   UNL     1      21.544   3.106 184.834  0.00  0.00    +0.000 OA
ATOM      4  N   UNL     1      19.975   2.399 188.512  0.00  0.00    +0.000 N 
ATOM      5  N   UNL     1      19.732   2.977 186.248  0.00  0.00    +0.000 N 
ATOM      6  C   UNL     1      19.086   2.818 187.496  0.00  0.00    +0.000 C 
ATOM      7  C   UNL     1      21.267   2.220 188.166  0.00  0.00    +0.000 C 
ATOM      8  C   UNL     1      21.938   2.336 187.071  0.00  0.00    +0.000 C 
ATOM      9  C   UNL     1      21.091   2.832 185.938  0.00  0.00    +0.000 C 
ATOM     10  H   UNL     1      19.143   3.314 185.499  0.00  0.00    +0.000 HD
ENDROOT
BRANCH   4  12
ATOM     11  O   UNL     1      19.442   3.207 190.738  0.00  0.00    +0.000 OA
ATOM     12  C   UNL     1      19.601   2.175 189.806  0.00  0.00    +0.000 C 
ATOM     13  C   UNL     1      19.318   0.943 190.454  0.00  0.00    +0.000 C 
ATOM     14  C   UNL     1      18.914   0.871 191.928  0.00  0.00    +0.000 C 
ATOM     15  C   UNL     1      19.100   2.374 191.730  0.00  0.00    +0.000 C 
ENDBRANCH   4  12
TORSDOF 1
ENDMDL
MODEL 7
REMARK VINA RESULT:      -5.3     33.122     34.222
REMARK  Name = 5386_Tegafur.pdbqt.pdb
REMARK  1 active torsions:
REMARK  status: ('A' for Active; 'I' for Inactive)
REMARK    1  A    between atoms: N_4  and  C_12
REMARK                            x       y       z     vdW  Elec       q    Type
REMARK                         _______ _______ _______ _____ _____    ______ ____
ROOT
ATOM      1  F   UNL     1      40.769 -10.237 163.610  0.00  0.00    +0.000 F 
ATOM      2  O   UNL     1      39.792  -5.271 165.580  0.00  0.00    +0.000 OA
ATOM      3  O   UNL     1      38.569  -8.678 162.756  0.00  0.00    +0.000 OA
ATOM      4  N   UNL     1      40.974  -7.314 165.731  0.00  0.00    +0.000 N 
ATOM      5  N   UNL     1      39.170  -7.034 164.252  0.00  0.00    +0.000 N 
ATOM      6  C   UNL     1      39.982  -6.433 165.242  0.00  0.00    +0.000 C 
ATOM      7  C   UNL     1      41.011  -8.555 165.204  0.00  0.00    +0.000 C 
ATOM      8  C   UNL     1      40.321  -9.184 164.313  0.00  0.00    +0.000 C 
ATOM      9  C   UNL     1      39.272  -8.314 163.691  0.00  0.00    +0.000 C 
ATOM     10  H   UNL     1      38.471  -6.429 163.844  0.00  0.00    +0.000 HD
ENDROOT
BRANCH   4  12
ATOM     11  O   UNL     1      43.267  -7.036 166.476  0.00  0.00    +0.000 OA
ATOM     12  C   UNL     1      41.885  -6.976 166.689  0.00  0.00    +0.000 C 
ATOM     13  C   UNL     1      41.659  -6.531 168.020  0.00  0.00    +0.000 C 
ATOM     14  C   UNL     1      42.808  -6.198 168.974  0.00  0.00    +0.000 C 
ATOM     15  C   UNL     1      43.562  -6.616 167.713  0.00  0.00    +0.000 C 
ENDBRANCH   4  12
TORSDOF 1
ENDMDL
MODEL 8
REMARK VINA RESULT:      -5.3      2.909      5.156
REMARK  Name = 5386_Tegafur.pdbqt.pdb
REMARK  1 active torsions:
REMARK  status: ('A' for Active; 'I' for Inactive)
REMARK    1  A    between atoms: N_4  and  C_12
REMARK                            x       y       z     vdW  Elec       q    Type
REMARK                         _______ _______ _______ _____ _____    ______ ____
ROOT
ATOM      1  F   UNL     1      20.901   6.179 187.697  0.00  0.00    +0.000 F 
ATOM      2  O   UNL     1      21.928   1.022 189.058  0.00  0.00    +0.000 OA
ATOM      3  O   UNL     1      23.389   4.943 187.167  0.00  0.00    +0.000 OA
ATOM      4  N   UNL     1      20.533   2.925 189.232  0.00  0.00    +0.000 N 
ATOM      5  N   UNL     1      22.644   3.027 188.204  0.00  0.00    +0.000 N 
ATOM      6  C   UNL     1      21.697   2.210 188.866  0.00  0.00    +0.000 C 
ATOM      7  C   UNL     1      20.486   4.233 188.909  0.00  0.00    +0.000 C 
ATOM      8  C   UNL     1      21.287   5.052 188.317  0.00  0.00    +0.000 C 
ATOM      9  C   UNL     1      22.536   4.375 187.838  0.00  0.00    +0.000 C 
ATOM     10  H   UNL     1      23.477   2.550 187.888  0.00  0.00    +0.000 HD
ENDROOT
BRANCH   4  12
ATOM     11  O   UNL     1      18.460   1.662 189.214  0.00  0.00    +0.000 OA
ATOM     12  C   UNL     1      19.471   2.365 189.880  0.00  0.00    +0.000 C 
ATOM     13  C   UNL     1      19.164   2.374 191.268  0.00  0.00    +0.000 C 
ATOM     14  C   UNL     1      17.914   1.696 191.832  0.00  0.00    +0.000 C 
ATOM     15  C   UNL     1      17.779   1.406 190.338  0.00  0.00    +0.000 C 
ENDBRANCH   4  12
TORSDOF 1
ENDMDL
MODEL 9
REMARK VINA RESULT:      -5.2     33.515     34.960
REMARK  Name = 5386_Tegafur.pdbqt.pdb
REMARK  1 active torsions:
REMARK  status: ('A' for Active; 'I' for Inactive)
REMARK    1  A    between atoms: N_4  and  C_12
REMARK                            x       y       z     vdW  Elec       q    Type
REMARK                         _______ _______ _______ _____ _____    ______ ____
ROOT
ATOM      1  F   UNL     1      45.620  -4.827 165.081  0.00  0.00    +0.000 F 
ATOM      2  O   UNL     1      40.837  -6.157 167.285  0.00  0.00    +0.000 OA
ATOM      3  O   UNL     1      44.192  -3.065 166.772  0.00  0.00    +0.000 OA
ATOM      4  N   UNL     1      42.548  -6.627 165.721  0.00  0.00    +0.000 N 
ATOM      5  N   UNL     1      42.494  -4.612 166.928  0.00  0.00    +0.000 N 
ATOM      6  C   UNL     1      41.861  -5.853 166.684  0.00  0.00    +0.000 C 
ATOM      7  C   UNL     1      43.671  -6.098 165.192  0.00  0.00    +0.000 C 
ATOM      8  C   UNL     1      44.314  -4.991 165.348  0.00  0.00    +0.000 C 
ATOM      9  C   UNL     1      43.692  -4.118 166.395  0.00  0.00    +0.000 C 
ATOM     10  H   UNL     1      42.059  -4.040 167.639  0.00  0.00    +0.000 HD
ENDROOT
BRANCH   4  12
ATOM     11  O   UNL     1      42.754  -9.045 165.749  0.00  0.00    +0.000 OA
ATOM     12  C   UNL     1      42.144  -7.864 165.311  0.00  0.00    +0.000 C 
ATOM     13  C   UNL     1      41.100  -8.210 164.410  0.00  0.00    +0.000 C 
ATOM     14  C   UNL     1      40.781  -9.663 164.051  0.00  0.00    +0.000 C 
ATOM     15  C   UNL     1      41.949  -9.831 165.022  0.00  0.00    +0.000 C 
ENDBRANCH   4  12
TORSDOF 1
ENDMDL
