MODEL 1
REMARK VINA RESULT:      -7.9      0.000      0.000
REMARK  Name = 5470187_Zerumbone.pdbqt.pdb
REMARK  0 active torsions:
REMARK  status: ('A' for Active; 'I' for Inactive)
REMARK                            x       y       z     vdW  Elec       q    Type
REMARK                         _______ _______ _______ _____ _____    ______ ____
ROOT
ATOM      1  O   UNL     1      19.779   1.801 192.438  0.00  0.00    +0.000 OA
ATOM      2  C   UNL     1      19.935   4.613 188.445  0.00  0.00    +0.000 C 
ATOM      3  C   UNL     1      21.277   5.118 188.070  0.00  0.00    +0.000 C 
ATOM      4  C   UNL     1      19.358   3.742 187.304  0.00  0.00    +0.000 C 
ATOM      5  C   UNL     1      18.998   5.808 188.753  0.00  0.00    +0.000 C 
ATOM      6  C   UNL     1      20.123   3.784 189.679  0.00  0.00    +0.000 C 
ATOM      7  C   UNL     1      22.786   5.421 188.030  0.00  0.00    +0.000 C 
ATOM      8  C   UNL     1      24.045   5.419 188.352  0.00  0.00    +0.000 C 
ATOM      9  C   UNL     1      24.270   4.673 189.537  0.00  0.00    +0.000 C 
ATOM     10  C   UNL     1      23.911   3.792 190.736  0.00  0.00    +0.000 C 
ATOM     11  C   UNL     1      20.363   3.140 190.671  0.00  0.00    +0.000 C 
ATOM     12  C   UNL     1      25.095   5.482 187.292  0.00  0.00    +0.000 C 
ATOM     13  C   UNL     1      23.050   2.963 191.694  0.00  0.00    +0.000 C 
ATOM     14  C   UNL     1      22.130   2.324 192.356  0.00  0.00    +0.000 C 
ATOM     15  C   UNL     1      20.702   2.375 191.872  0.00  0.00    +0.000 C 
ATOM     16  C   UNL     1      22.568   1.574 193.590  0.00  0.00    +0.000 C 
ENDROOT
TORSDOF 0
ENDMDL
MODEL 2
REMARK VINA RESULT:      -6.7     30.237     32.740
REMARK  Name = 5470187_Zerumbone.pdbqt.pdb
REMARK  0 active torsions:
REMARK  status: ('A' for Active; 'I' for Inactive)
REMARK                            x       y       z     vdW  Elec       q    Type
REMARK                         _______ _______ _______ _____ _____    ______ ____
ROOT
ATOM      1  O   UNL     1      37.318  -5.446 167.256  0.00  0.00    +0.000 OA
ATOM      2  C   UNL     1      42.121  -6.323 167.051  0.00  0.00    +0.000 C 
ATOM      3  C   UNL     1      42.539  -7.371 166.090  0.00  0.00    +0.000 C 
ATOM      4  C   UNL     1      42.772  -4.970 166.677  0.00  0.00    +0.000 C 
ATOM      5  C   UNL     1      42.518  -6.747 168.487  0.00  0.00    +0.000 C 
ATOM      6  C   UNL     1      40.629  -6.221 166.945  0.00  0.00    +0.000 C 
ATOM      7  C   UNL     1      42.551  -8.476 165.019  0.00  0.00    +0.000 C 
ATOM      8  C   UNL     1      42.130  -9.326 164.129  0.00  0.00    +0.000 C 
ATOM      9  C   UNL     1      40.717  -9.292 164.017  0.00  0.00    +0.000 C 
ATOM     10  C   UNL     1      39.292  -8.816 164.310  0.00  0.00    +0.000 C 
ATOM     11  C   UNL     1      39.432  -6.209 166.800  0.00  0.00    +0.000 C 
ATOM     12  C   UNL     1      42.972  -9.654 162.941  0.00  0.00    +0.000 C 
ATOM     13  C   UNL     1      38.158  -8.004 164.941  0.00  0.00    +0.000 C 
ATOM     14  C   UNL     1      37.378  -7.200 165.605  0.00  0.00    +0.000 C 
ATOM     15  C   UNL     1      37.982  -6.234 166.593  0.00  0.00    +0.000 C 
ATOM     16  C   UNL     1      35.896  -7.306 165.338  0.00  0.00    +0.000 C 
ENDROOT
TORSDOF 0
ENDMDL
MODEL 3
REMARK VINA RESULT:      -6.7      2.705      3.133
REMARK  Name = 5470187_Zerumbone.pdbqt.pdb
REMARK  0 active torsions:
REMARK  status: ('A' for Active; 'I' for Inactive)
REMARK                            x       y       z     vdW  Elec       q    Type
REMARK                         _______ _______ _______ _____ _____    ______ ____
ROOT
ATOM      1  O   UNL     1      18.380   0.988 193.157  0.00  0.00    +0.000 OA
ATOM      2  C   UNL     1      19.713   2.798 188.818  0.00  0.00    +0.000 C 
ATOM      3  C   UNL     1      21.046   2.373 188.330  0.00  0.00    +0.000 C 
ATOM      4  C   UNL     1      18.616   2.343 187.826  0.00  0.00    +0.000 C 
ATOM      5  C   UNL     1      19.691   4.337 188.996  0.00  0.00    +0.000 C 
ATOM      6  C   UNL     1      19.514   2.130 190.145  0.00  0.00    +0.000 C 
ATOM      7  C   UNL     1      22.432   1.716 188.195  0.00  0.00    +0.000 C 
ATOM      8  C   UNL     1      23.479   0.995 188.467  0.00  0.00    +0.000 C 
ATOM      9  C   UNL     1      23.353   0.368 189.733  0.00  0.00    +0.000 C 
ATOM     10  C   UNL     1      22.680  -0.020 191.052  0.00  0.00    +0.000 C 
ATOM     11  C   UNL     1      19.440   1.559 191.205  0.00  0.00    +0.000 C 
ATOM     12  C   UNL     1      24.244   0.331 187.371  0.00  0.00    +0.000 C 
ATOM     13  C   UNL     1      21.609  -0.088 192.144  0.00  0.00    +0.000 C 
ATOM     14  C   UNL     1      20.567   0.004 192.919  0.00  0.00    +0.000 C 
ATOM     15  C   UNL     1      19.396   0.849 192.485  0.00  0.00    +0.000 C 
ATOM     16  C   UNL     1      20.616  -0.749 194.226  0.00  0.00    +0.000 C 
ENDROOT
TORSDOF 0
ENDMDL
MODEL 4
REMARK VINA RESULT:      -6.6      2.970      4.930
REMARK  Name = 5470187_Zerumbone.pdbqt.pdb
REMARK  0 active torsions:
REMARK  status: ('A' for Active; 'I' for Inactive)
REMARK                            x       y       z     vdW  Elec       q    Type
REMARK                         _______ _______ _______ _____ _____    ______ ____
ROOT
ATOM      1  O   UNL     1      23.253  -1.190 192.898  0.00  0.00    +0.000 OA
ATOM      2  C   UNL     1      23.514   1.189 188.638  0.00  0.00    +0.000 C 
ATOM      3  C   UNL     1      22.238   1.759 188.145  0.00  0.00    +0.000 C 
ATOM      4  C   UNL     1      24.549   2.318 188.858  0.00  0.00    +0.000 C 
ATOM      5  C   UNL     1      24.043   0.147 187.622  0.00  0.00    +0.000 C 
ATOM      6  C   UNL     1      23.203   0.517 189.940  0.00  0.00    +0.000 C 
ATOM      7  C   UNL     1      20.764   2.177 187.996  0.00  0.00    +0.000 C 
ATOM      8  C   UNL     1      19.498   2.321 188.255  0.00  0.00    +0.000 C 
ATOM      9  C   UNL     1      19.146   1.670 189.465  0.00  0.00    +0.000 C 
ATOM     10  C   UNL     1      19.369   0.866 190.748  0.00  0.00    +0.000 C 
ATOM     11  C   UNL     1      22.863  -0.003 190.975  0.00  0.00    +0.000 C 
ATOM     12  C   UNL     1      18.775   3.554 187.826  0.00  0.00    +0.000 C 
ATOM     13  C   UNL     1      20.114   0.081 191.831  0.00  0.00    +0.000 C 
ATOM     14  C   UNL     1      20.950  -0.543 192.610  0.00  0.00    +0.000 C 
ATOM     15  C   UNL     1      22.404  -0.622 192.220  0.00  0.00    +0.000 C 
ATOM     16  C   UNL     1      20.386  -1.164 193.865  0.00  0.00    +0.000 C 
ENDROOT
TORSDOF 0
ENDMDL
MODEL 5
REMARK VINA RESULT:      -6.3      1.540      4.373
REMARK  Name = 5470187_Zerumbone.pdbqt.pdb
REMARK  0 active torsions:
REMARK  status: ('A' for Active; 'I' for Inactive)
REMARK                            x       y       z     vdW  Elec       q    Type
REMARK                         _______ _______ _______ _____ _____    ______ ____
ROOT
ATOM      1  O   UNL     1      20.131   1.139 193.819  0.00  0.00    +0.000 OA
ATOM      2  C   UNL     1      24.539   2.703 192.408  0.00  0.00    +0.000 C 
ATOM      3  C   UNL     1      24.573   3.453 191.129  0.00  0.00    +0.000 C 
ATOM      4  C   UNL     1      25.048   3.600 193.562  0.00  0.00    +0.000 C 
ATOM      5  C   UNL     1      25.404   1.424 192.282  0.00  0.00    +0.000 C 
ATOM      6  C   UNL     1      23.108   2.329 192.642  0.00  0.00    +0.000 C 
ATOM      7  C   UNL     1      24.186   4.152 189.814  0.00  0.00    +0.000 C 
ATOM      8  C   UNL     1      23.463   4.607 188.834  0.00  0.00    +0.000 C 
ATOM      9  C   UNL     1      22.101   4.247 188.993  0.00  0.00    +0.000 C 
ATOM     10  C   UNL     1      20.879   3.626 189.673  0.00  0.00    +0.000 C 
ATOM     11  C   UNL     1      21.935   2.065 192.749  0.00  0.00    +0.000 C 
ATOM     12  C   UNL     1      23.830   5.885 188.155  0.00  0.00    +0.000 C 
ATOM     13  C   UNL     1      20.054   2.879 190.725  0.00  0.00    +0.000 C 
ATOM     14  C   UNL     1      19.573   2.219 191.738  0.00  0.00    +0.000 C 
ATOM     15  C   UNL     1      20.504   1.765 192.834  0.00  0.00    +0.000 C 
ATOM     16  C   UNL     1      18.089   1.942 191.735  0.00  0.00    +0.000 C 
ENDROOT
TORSDOF 0
ENDMDL
MODEL 6
REMARK VINA RESULT:      -5.7     32.076     33.867
REMARK  Name = 5470187_Zerumbone.pdbqt.pdb
REMARK  0 active torsions:
REMARK  status: ('A' for Active; 'I' for Inactive)
REMARK                            x       y       z     vdW  Elec       q    Type
REMARK                         _______ _______ _______ _____ _____    ______ ____
ROOT
ATOM      1  O   UNL     1      51.755  -1.893 184.258  0.00  0.00    +0.000 OA
ATOM      2  C   UNL     1      52.458  -3.975 179.894  0.00  0.00    +0.000 C 
ATOM      3  C   UNL     1      53.453  -5.073 179.861  0.00  0.00    +0.000 C 
ATOM      4  C   UNL     1      51.070  -4.506 179.461  0.00  0.00    +0.000 C 
ATOM      5  C   UNL     1      52.922  -2.826 178.965  0.00  0.00    +0.000 C 
ATOM      6  C   UNL     1      52.404  -3.493 181.311  0.00  0.00    +0.000 C 
ATOM      7  C   UNL     1      54.516  -6.118 180.246  0.00  0.00    +0.000 C 
ATOM      8  C   UNL     1      55.346  -6.816 180.963  0.00  0.00    +0.000 C 
ATOM      9  C   UNL     1      55.356  -6.373 182.310  0.00  0.00    +0.000 C 
ATOM     10  C   UNL     1      54.942  -5.531 183.519  0.00  0.00    +0.000 C 
ATOM     11  C   UNL     1      52.428  -3.164 182.472  0.00  0.00    +0.000 C 
ATOM     12  C   UNL     1      55.599  -8.251 180.640  0.00  0.00    +0.000 C 
ATOM     13  C   UNL     1      54.193  -4.473 184.335  0.00  0.00    +0.000 C 
ATOM     14  C   UNL     1      53.443  -3.522 184.810  0.00  0.00    +0.000 C 
ATOM     15  C   UNL     1      52.494  -2.798 183.888  0.00  0.00    +0.000 C 
ATOM     16  C   UNL     1      53.589  -3.201 186.278  0.00  0.00    +0.000 C 
ENDROOT
TORSDOF 0
ENDMDL
MODEL 7
REMARK VINA RESULT:      -5.6     20.297     23.312
REMARK  Name = 5470187_Zerumbone.pdbqt.pdb
REMARK  0 active torsions:
REMARK  status: ('A' for Active; 'I' for Inactive)
REMARK                            x       y       z     vdW  Elec       q    Type
REMARK                         _______ _______ _______ _____ _____    ______ ____
ROOT
ATOM      1  O   UNL     1      22.995   7.939 167.456  0.00  0.00    +0.000 OA
ATOM      2  C   UNL     1      25.454  10.525 170.794  0.00  0.00    +0.000 C 
ATOM      3  C   UNL     1      26.459  11.473 170.256  0.00  0.00    +0.000 C 
ATOM      4  C   UNL     1      24.377  11.294 171.596  0.00  0.00    +0.000 C 
ATOM      5  C   UNL     1      26.158   9.473 171.686  0.00  0.00    +0.000 C 
ATOM      6  C   UNL     1      24.829   9.852 169.610  0.00  0.00    +0.000 C 
ATOM      7  C   UNL     1      27.363  12.298 169.323  0.00  0.00    +0.000 C 
ATOM      8  C   UNL     1      27.901  12.767 168.237  0.00  0.00    +0.000 C 
ATOM      9  C   UNL     1      27.365  12.134 167.086  0.00  0.00    +0.000 C 
ATOM     10  C   UNL     1      26.463  11.187 166.291  0.00  0.00    +0.000 C 
ATOM     11  C   UNL     1      24.385   9.357 168.603  0.00  0.00    +0.000 C 
ATOM     12  C   UNL     1      28.357  14.187 168.171  0.00  0.00    +0.000 C 
ATOM     13  C   UNL     1      25.389  10.130 166.017  0.00  0.00    +0.000 C 
ATOM     14  C   UNL     1      24.450   9.230 166.033  0.00  0.00    +0.000 C 
ATOM     15  C   UNL     1      23.880   8.781 167.355  0.00  0.00    +0.000 C 
ATOM     16  C   UNL     1      24.002   8.681 164.700  0.00  0.00    +0.000 C 
ENDROOT
TORSDOF 0
ENDMDL
MODEL 8
REMARK VINA RESULT:      -5.4     24.661     26.542
REMARK  Name = 5470187_Zerumbone.pdbqt.pdb
REMARK  0 active torsions:
REMARK  status: ('A' for Active; 'I' for Inactive)
REMARK                            x       y       z     vdW  Elec       q    Type
REMARK                         _______ _______ _______ _____ _____    ______ ____
ROOT
ATOM      1  O   UNL     1      11.239 -15.173 178.182  0.00  0.00    +0.000 OA
ATOM      2  C   UNL     1      12.925 -18.696 175.246  0.00  0.00    +0.000 C 
ATOM      3  C   UNL     1      14.180 -19.351 175.687  0.00  0.00    +0.000 C 
ATOM      4  C   UNL     1      11.786 -19.740 175.156  0.00  0.00    +0.000 C 
ATOM      5  C   UNL     1      13.152 -18.010 173.876  0.00  0.00    +0.000 C 
ATOM      6  C   UNL     1      12.597 -17.666 176.283  0.00  0.00    +0.000 C 
ATOM      7  C   UNL     1      15.442 -19.754 176.471  0.00  0.00    +0.000 C 
ATOM      8  C   UNL     1      16.352 -19.782 177.398  0.00  0.00    +0.000 C 
ATOM      9  C   UNL     1      16.103 -18.797 178.389  0.00  0.00    +0.000 C 
ATOM     10  C   UNL     1      15.354 -17.661 179.088  0.00  0.00    +0.000 C 
ATOM     11  C   UNL     1      12.412 -16.858 177.160  0.00  0.00    +0.000 C 
ATOM     12  C   UNL     1      17.018 -21.067 177.765  0.00  0.00    +0.000 C 
ATOM     13  C   UNL     1      14.266 -16.615 179.351  0.00  0.00    +0.000 C 
ATOM     14  C   UNL     1      13.241 -15.814 179.362  0.00  0.00    +0.000 C 
ATOM     15  C   UNL     1      12.231 -15.891 178.245  0.00  0.00    +0.000 C 
ATOM     16  C   UNL     1      13.143 -14.840 180.511  0.00  0.00    +0.000 C 
ENDROOT
TORSDOF 0
ENDMDL
MODEL 9
REMARK VINA RESULT:      -5.4     21.223     24.318
REMARK  Name = 5470187_Zerumbone.pdbqt.pdb
REMARK  0 active torsions:
REMARK  status: ('A' for Active; 'I' for Inactive)
REMARK                            x       y       z     vdW  Elec       q    Type
REMARK                         _______ _______ _______ _____ _____    ______ ____
ROOT
ATOM      1  O   UNL     1      24.837  11.075 163.866  0.00  0.00    +0.000 OA
ATOM      2  C   UNL     1      27.100  12.937 167.776  0.00  0.00    +0.000 C 
ATOM      3  C   UNL     1      27.042  12.108 169.004  0.00  0.00    +0.000 C 
ATOM      4  C   UNL     1      28.571  13.141 167.344  0.00  0.00    +0.000 C 
ATOM      5  C   UNL     1      26.408  14.298 168.036  0.00  0.00    +0.000 C 
ATOM      6  C   UNL     1      26.354  12.181 166.719  0.00  0.00    +0.000 C 
ATOM      7  C   UNL     1      26.758  10.987 170.020  0.00  0.00    +0.000 C 
ATOM      8  C   UNL     1      26.320   9.873 170.525  0.00  0.00    +0.000 C 
ATOM      9  C   UNL     1      25.575   9.135 169.569  0.00  0.00    +0.000 C 
ATOM     10  C   UNL     1      24.951   8.822 168.208  0.00  0.00    +0.000 C 
ATOM     11  C   UNL     1      25.733  11.510 165.931  0.00  0.00    +0.000 C 
ATOM     12  C   UNL     1      27.102   9.163 171.581  0.00  0.00    +0.000 C 
ATOM     13  C   UNL     1      24.577   8.996 166.733  0.00  0.00    +0.000 C 
ATOM     14  C   UNL     1      24.389   9.358 165.497  0.00  0.00    +0.000 C 
ATOM     15  C   UNL     1      24.969  10.663 165.013  0.00  0.00    +0.000 C 
ATOM     16  C   UNL     1      23.577   8.430 164.626  0.00  0.00    +0.000 C 
ENDROOT
TORSDOF 0
ENDMDL
