MODEL 1
REMARK VINA RESULT:      -5.9      0.000      0.000
REMARK  Name = 5azacytidine.pdbqt.pdb
REMARK  5 active torsions:
REMARK  status: ('A' for Active; 'I' for Inactive)
REMARK    1  A    between atoms: C2*_2  and  O2*_16
REMARK    2  A    between atoms: C3*_3  and  O3*_21
REMARK    3  A    between atoms: C4*_4  and  C5*_18
REMARK    4  A    between atoms: C1*_5  and  N_6
REMARK    5  A    between atoms: C5*_18  and  O5*_19
REMARK                            x       y       z     vdW  Elec       q    Type
REMARK                         _______ _______ _______ _____ _____    ______ ____
ROOT
ATOM      1  O4* UNL     1      20.591   3.318 185.488  0.00  0.00    +0.000 OA
ATOM      2  C2* UNL     1      21.625   4.715 187.004  0.00  0.00    +0.000 A 
ATOM      3  C3* UNL     1      22.087   5.052 185.692  0.00  0.00    +0.000 A 
ATOM      4  C4* UNL     1      21.427   4.182 184.761  0.00  0.00    +0.000 A 
ATOM      5  C1* UNL     1      20.706   3.612 186.864  0.00  0.00    +0.000 A 
ENDROOT
BRANCH   5   6
ATOM      6  N   UNL     1      20.046   2.875 187.802  0.00  0.00    +0.000 N 
ATOM      7  C   UNL     1      20.601   2.159 188.855  0.00  0.00    +0.000 A 
ATOM      8  O   UNL     1      21.810   2.075 189.057  0.00  0.00    +0.000 OA
ATOM      9  N   UNL     1      19.681   1.513 189.677  0.00  0.00    +0.000 NA
ATOM     10  C   UNL     1      18.397   1.598 189.434  0.00  0.00    +0.000 A 
ATOM     11  N   UNL     1      17.853   2.288 188.365  0.00  0.00    +0.000 NA
ATOM     12  C   UNL     1      18.718   2.791 187.767  0.00  0.00    +0.000 A 
ATOM     13  N   UNL     1      17.539   0.954 190.264  0.00  0.00    +0.000 N 
ATOM     14  H   UNL     1      16.655   0.705 189.841  0.00  0.00    +0.000 HD
ATOM     15  H   UNL     1      17.974   0.217 190.806  0.00  0.00    +0.000 HD
ENDBRANCH   5   6
BRANCH   2  16
ATOM     16  O2* UNL     1      22.437   4.929 188.083  0.00  0.00    +0.000 OA
ATOM     17  H2* UNL     1      23.274   5.377 187.830  0.00  0.00    +0.000 HD
ENDBRANCH   2  16
BRANCH   3  18
ATOM     18  O3* UNL     1      23.358   5.512 185.487  0.00  0.00    +0.000 OA
ATOM     19  H3* UNL     1      23.431   6.433 185.800  0.00  0.00    +0.000 HD
ENDBRANCH   3  18
BRANCH   4  20
ATOM     20  C5* UNL     1      21.757   3.955 183.411  0.00  0.00    +0.000 C 
BRANCH  20  21
ATOM     21  O5* UNL     1      22.065   3.731 182.137  0.00  0.00    +0.000 OA
ATOM     22  H5* UNL     1      21.578   2.955 181.809  0.00  0.00    +0.000 HD
ENDBRANCH  20  21
ENDBRANCH   4  20
TORSDOF 5
ENDMDL
MODEL 2
REMARK VINA RESULT:      -5.8      2.880      5.921
REMARK  Name = 5azacytidine.pdbqt.pdb
REMARK  5 active torsions:
REMARK  status: ('A' for Active; 'I' for Inactive)
REMARK    1  A    between atoms: C2*_2  and  O2*_16
REMARK    2  A    between atoms: C3*_3  and  O3*_21
REMARK    3  A    between atoms: C4*_4  and  C5*_18
REMARK    4  A    between atoms: C1*_5  and  N_6
REMARK    5  A    between atoms: C5*_18  and  O5*_19
REMARK                            x       y       z     vdW  Elec       q    Type
REMARK                         _______ _______ _______ _____ _____    ______ ____
ROOT
ATOM      1  O4* UNL     1      20.430   2.870 189.498  0.00  0.00    +0.000 OA
ATOM      2  C2* UNL     1      19.357   3.328 187.508  0.00  0.00    +0.000 A 
ATOM      3  C3* UNL     1      18.435   2.658 188.374  0.00  0.00    +0.000 A 
ATOM      4  C4* UNL     1      19.114   2.390 189.610  0.00  0.00    +0.000 A 
ATOM      5  C1* UNL     1      20.609   3.434 188.216  0.00  0.00    +0.000 A 
ENDROOT
BRANCH   5   6
ATOM      6  N   UNL     1      21.820   3.918 187.821  0.00  0.00    +0.000 N 
ATOM      7  C   UNL     1      22.575   3.512 186.727  0.00  0.00    +0.000 A 
ATOM      8  O   UNL     1      22.239   2.605 185.969  0.00  0.00    +0.000 OA
ATOM      9  N   UNL     1      23.771   4.202 186.548  0.00  0.00    +0.000 NA
ATOM     10  C   UNL     1      24.121   5.152 187.378  0.00  0.00    +0.000 A 
ATOM     11  N   UNL     1      23.380   5.531 188.483  0.00  0.00    +0.000 NA
ATOM     12  C   UNL     1      22.404   4.894 188.513  0.00  0.00    +0.000 A 
ATOM     13  N   UNL     1      25.295   5.799 187.161  0.00  0.00    +0.000 N 
ATOM     14  H   UNL     1      25.710   6.202 187.991  0.00  0.00    +0.000 HD
ATOM     15  H   UNL     1      25.937   5.285 186.569  0.00  0.00    +0.000 HD
ENDBRANCH   5   6
BRANCH   2  16
ATOM     16  O2* UNL     1      19.229   3.198 186.153  0.00  0.00    +0.000 OA
ATOM     17  H2* UNL     1      18.318   3.404 185.848  0.00  0.00    +0.000 HD
ENDBRANCH   2  16
BRANCH   3  18
ATOM     18  O3* UNL     1      17.473   1.825 187.874  0.00  0.00    +0.000 OA
ATOM     19  H3* UNL     1      17.335   2.011 186.926  0.00  0.00    +0.000 HD
ENDBRANCH   3  18
BRANCH   4  20
ATOM     20  C5* UNL     1      18.711   1.523 190.643  0.00  0.00    +0.000 C 
BRANCH  20  21
ATOM     21  O5* UNL     1      18.326   0.697 191.612  0.00  0.00    +0.000 OA
ATOM     22  H5* UNL     1      17.709   1.153 192.211  0.00  0.00    +0.000 HD
ENDBRANCH  20  21
ENDBRANCH   4  20
TORSDOF 5
ENDMDL
MODEL 3
REMARK VINA RESULT:      -5.8      2.813      6.122
REMARK  Name = 5azacytidine.pdbqt.pdb
REMARK  5 active torsions:
REMARK  status: ('A' for Active; 'I' for Inactive)
REMARK    1  A    between atoms: C2*_2  and  O2*_16
REMARK    2  A    between atoms: C3*_3  and  O3*_21
REMARK    3  A    between atoms: C4*_4  and  C5*_18
REMARK    4  A    between atoms: C1*_5  and  N_6
REMARK    5  A    between atoms: C5*_18  and  O5*_19
REMARK                            x       y       z     vdW  Elec       q    Type
REMARK                         _______ _______ _______ _____ _____    ______ ____
ROOT
ATOM      1  O4* UNL     1      20.516   1.992 189.726  0.00  0.00    +0.000 OA
ATOM      2  C2* UNL     1      18.406   2.269 188.835  0.00  0.00    +0.000 A 
ATOM      3  C3* UNL     1      18.301   1.435 189.993  0.00  0.00    +0.000 A 
ATOM      4  C4* UNL     1      19.618   1.281 190.540  0.00  0.00    +0.000 A 
ATOM      5  C1* UNL     1      19.803   2.592 188.666  0.00  0.00    +0.000 A 
ENDROOT
BRANCH   5   6
ATOM      6  N   UNL     1      20.445   3.292 187.689  0.00  0.00    +0.000 N 
ATOM      7  C   UNL     1      20.688   4.659 187.651  0.00  0.00    +0.000 A 
ATOM      8  O   UNL     1      20.305   5.441 188.519  0.00  0.00    +0.000 OA
ATOM      9  N   UNL     1      21.391   5.102 186.534  0.00  0.00    +0.000 NA
ATOM     10  C   UNL     1      21.773   4.257 185.610  0.00  0.00    +0.000 A 
ATOM     11  N   UNL     1      21.502   2.899 185.639  0.00  0.00    +0.000 NA
ATOM     12  C   UNL     1      20.925   2.656 186.622  0.00  0.00    +0.000 A 
ATOM     13  N   UNL     1      22.459   4.734 184.541  0.00  0.00    +0.000 N 
ATOM     14  H   UNL     1      22.376   4.171 183.705  0.00  0.00    +0.000 HD
ATOM     15  H   UNL     1      22.344   5.730 184.398  0.00  0.00    +0.000 HD
ENDBRANCH   5   6
BRANCH   2  16
ATOM     16  O2* UNL     1      17.503   2.134 187.817  0.00  0.00    +0.000 OA
ATOM     17  H2* UNL     1      17.911   2.300 186.939  0.00  0.00    +0.000 HD
ENDBRANCH   2  16
BRANCH   3  18
ATOM     18  O3* UNL     1      17.358   0.447 190.068  0.00  0.00    +0.000 OA
ATOM     19  H3* UNL     1      17.593  -0.281 189.463  0.00  0.00    +0.000 HD
ENDBRANCH   3  18
BRANCH   4  20
ATOM     20  C5* UNL     1      20.048   0.343 191.499  0.00  0.00    +0.000 C 
BRANCH  20  21
ATOM     21  O5* UNL     1      20.464  -0.540 192.401  0.00  0.00    +0.000 OA
ATOM     22  H5* UNL     1      19.726  -1.116 192.667  0.00  0.00    +0.000 HD
ENDBRANCH  20  21
ENDBRANCH   4  20
TORSDOF 5
ENDMDL
MODEL 4
REMARK VINA RESULT:      -5.7      3.348      6.613
REMARK  Name = 5azacytidine.pdbqt.pdb
REMARK  5 active torsions:
REMARK  status: ('A' for Active; 'I' for Inactive)
REMARK    1  A    between atoms: C2*_2  and  O2*_16
REMARK    2  A    between atoms: C3*_3  and  O3*_21
REMARK    3  A    between atoms: C4*_4  and  C5*_18
REMARK    4  A    between atoms: C1*_5  and  N_6
REMARK    5  A    between atoms: C5*_18  and  O5*_19
REMARK                            x       y       z     vdW  Elec       q    Type
REMARK                         _______ _______ _______ _____ _____    ______ ____
ROOT
ATOM      1  O4* UNL     1      20.374   2.484 191.027  0.00  0.00    +0.000 OA
ATOM      2  C2* UNL     1      18.404   1.342 190.652  0.00  0.00    +0.000 A 
ATOM      3  C3* UNL     1      18.733   1.233 192.041  0.00  0.00    +0.000 A 
ATOM      4  C4* UNL     1      19.953   1.956 192.260  0.00  0.00    +0.000 A 
ATOM      5  C1* UNL     1      19.453   2.109 190.025  0.00  0.00    +0.000 A 
ENDROOT
BRANCH   5   6
ATOM      6  N   UNL     1      19.659   2.439 188.718  0.00  0.00    +0.000 N 
ATOM      7  C   UNL     1      18.694   2.660 187.743  0.00  0.00    +0.000 A 
ATOM      8  O   UNL     1      17.487   2.548 187.943  0.00  0.00    +0.000 OA
ATOM      9  N   UNL     1      19.193   3.006 186.489  0.00  0.00    +0.000 NA
ATOM     10  C   UNL     1      20.484   3.100 186.290  0.00  0.00    +0.000 A 
ATOM     11  N   UNL     1      21.440   2.849 187.259  0.00  0.00    +0.000 NA
ATOM     12  C   UNL     1      20.899   2.585 188.257  0.00  0.00    +0.000 A 
ATOM     13  N   UNL     1      20.923   3.444 185.053  0.00  0.00    +0.000 N 
ATOM     14  H   UNL     1      21.856   3.119 184.835  0.00  0.00    +0.000 HD
ATOM     15  H   UNL     1      20.238   3.292 184.323  0.00  0.00    +0.000 HD
ENDBRANCH   5   6
BRANCH   2  16
ATOM     16  O2* UNL     1      17.686   0.349 190.046  0.00  0.00    +0.000 OA
ATOM     17  H2* UNL     1      17.960  -0.542 190.353  0.00  0.00    +0.000 HD
ENDBRANCH   2  16
BRANCH   3  18
ATOM     18  O3* UNL     1      18.408   0.114 192.757  0.00  0.00    +0.000 OA
ATOM     19  H3* UNL     1      19.217  -0.293 193.120  0.00  0.00    +0.000 HD
ENDBRANCH   3  18
BRANCH   4  20
ATOM     20  C5* UNL     1      20.795   1.903 193.386  0.00  0.00    +0.000 C 
BRANCH  20  21
ATOM     21  O5* UNL     1      21.595   1.845 194.447  0.00  0.00    +0.000 OA
ATOM     22  H5* UNL     1      22.466   2.219 194.227  0.00  0.00    +0.000 HD
ENDBRANCH  20  21
ENDBRANCH   4  20
TORSDOF 5
ENDMDL
MODEL 5
REMARK VINA RESULT:      -5.6     29.553     30.570
REMARK  Name = 5azacytidine.pdbqt.pdb
REMARK  5 active torsions:
REMARK  status: ('A' for Active; 'I' for Inactive)
REMARK    1  A    between atoms: C2*_2  and  O2*_16
REMARK    2  A    between atoms: C3*_3  and  O3*_21
REMARK    3  A    between atoms: C4*_4  and  C5*_18
REMARK    4  A    between atoms: C1*_5  and  N_6
REMARK    5  A    between atoms: C5*_18  and  O5*_19
REMARK                            x       y       z     vdW  Elec       q    Type
REMARK                         _______ _______ _______ _____ _____    ______ ____
ROOT
ATOM      1  O4* UNL     1      43.315 -19.227 188.557  0.00  0.00    +0.000 OA
ATOM      2  C2* UNL     1      42.653 -17.906 186.786  0.00  0.00    +0.000 A 
ATOM      3  C3* UNL     1      43.722 -18.750 186.345  0.00  0.00    +0.000 A 
ATOM      4  C4* UNL     1      44.114 -19.571 187.454  0.00  0.00    +0.000 A 
ATOM      5  C1* UNL     1      42.424 -18.199 188.180  0.00  0.00    +0.000 A 
ENDROOT
BRANCH   5   6
ATOM      6  N   UNL     1      41.575 -17.633 189.083  0.00  0.00    +0.000 N 
ATOM      7  C   UNL     1      41.479 -16.289 189.423  0.00  0.00    +0.000 A 
ATOM      8  O   UNL     1      42.204 -15.415 188.951  0.00  0.00    +0.000 OA
ATOM      9  N   UNL     1      40.501 -15.988 190.367  0.00  0.00    +0.000 NA
ATOM     10  C   UNL     1      39.753 -16.936 190.874  0.00  0.00    +0.000 A 
ATOM     11  N   UNL     1      39.873 -18.277 190.554  0.00  0.00    +0.000 NA
ATOM     12  C   UNL     1      40.710 -18.393 189.750  0.00  0.00    +0.000 A 
ATOM     13  N   UNL     1      38.810 -16.594 191.789  0.00  0.00    +0.000 N 
ATOM     14  H   UNL     1      38.557 -17.338 192.426  0.00  0.00    +0.000 HD
ATOM     15  H   UNL     1      38.976 -15.696 192.226  0.00  0.00    +0.000 HD
ENDBRANCH   5   6
BRANCH   2  16
ATOM     16  O2* UNL     1      42.468 -16.684 186.199  0.00  0.00    +0.000 OA
ATOM     17  H2* UNL     1      42.546 -16.731 185.221  0.00  0.00    +0.000 HD
ENDBRANCH   2  16
BRANCH   3  18
ATOM     18  O3* UNL     1      44.613 -18.325 185.399  0.00  0.00    +0.000 OA
ATOM     19  H3* UNL     1      44.395 -17.414 185.124  0.00  0.00    +0.000 HD
ENDBRANCH   3  18
BRANCH   4  20
ATOM     20  C5* UNL     1      45.283 -20.346 187.580  0.00  0.00    +0.000 C 
BRANCH  20  21
ATOM     21  O5* UNL     1      46.385 -21.079 187.710  0.00  0.00    +0.000 OA
ATOM     22  H5* UNL     1      46.335 -21.614 188.521  0.00  0.00    +0.000 HD
ENDBRANCH  20  21
ENDBRANCH   4  20
TORSDOF 5
ENDMDL
MODEL 6
REMARK VINA RESULT:      -5.6      3.409      5.805
REMARK  Name = 5azacytidine.pdbqt.pdb
REMARK  5 active torsions:
REMARK  status: ('A' for Active; 'I' for Inactive)
REMARK    1  A    between atoms: C2*_2  and  O2*_16
REMARK    2  A    between atoms: C3*_3  and  O3*_21
REMARK    3  A    between atoms: C4*_4  and  C5*_18
REMARK    4  A    between atoms: C1*_5  and  N_6
REMARK    5  A    between atoms: C5*_18  and  O5*_19
REMARK                            x       y       z     vdW  Elec       q    Type
REMARK                         _______ _______ _______ _____ _____    ______ ____
ROOT
ATOM      1  O4* UNL     1      23.220   2.308 187.901  0.00  0.00    +0.000 OA
ATOM      2  C2* UNL     1      21.582   3.739 188.670  0.00  0.00    +0.000 A 
ATOM      3  C3* UNL     1      21.856   2.774 189.692  0.00  0.00    +0.000 A 
ATOM      4  C4* UNL     1      22.883   1.900 189.203  0.00  0.00    +0.000 A 
ATOM      5  C1* UNL     1      22.428   3.421 187.545  0.00  0.00    +0.000 A 
ENDROOT
BRANCH   5   6
ATOM      6  N   UNL     1      22.509   3.978 186.304  0.00  0.00    +0.000 N 
ATOM      7  C   UNL     1      23.383   4.973 185.882  0.00  0.00    +0.000 A 
ATOM      8  O   UNL     1      24.201   5.517 186.620  0.00  0.00    +0.000 OA
ATOM      9  N   UNL     1      23.257   5.337 184.544  0.00  0.00    +0.000 NA
ATOM     10  C   UNL     1      22.365   4.761 183.778  0.00  0.00    +0.000 A 
ATOM     11  N   UNL     1      21.478   3.791 184.212  0.00  0.00    +0.000 NA
ATOM     12  C   UNL     1      21.693   3.567 185.336  0.00  0.00    +0.000 A 
ATOM     13  N   UNL     1      22.283   5.146 182.480  0.00  0.00    +0.000 N 
ATOM     14  H   UNL     1      21.376   5.001 182.057  0.00  0.00    +0.000 HD
ATOM     15  H   UNL     1      22.697   6.053 182.299  0.00  0.00    +0.000 HD
ENDBRANCH   5   6
BRANCH   2  16
ATOM     16  O2* UNL     1      20.338   4.301 188.584  0.00  0.00    +0.000 OA
ATOM     17  H2* UNL     1      20.368   5.197 188.184  0.00  0.00    +0.000 HD
ENDBRANCH   2  16
BRANCH   3  18
ATOM     18  O3* UNL     1      20.872   2.345 190.539  0.00  0.00    +0.000 OA
ATOM     19  H3* UNL     1      20.179   3.028 190.615  0.00  0.00    +0.000 HD
ENDBRANCH   3  18
BRANCH   4  20
ATOM     20  C5* UNL     1      23.278   0.656 189.731  0.00  0.00    +0.000 C 
BRANCH  20  21
ATOM     21  O5* UNL     1      23.643  -0.522 190.228  0.00  0.00    +0.000 OA
ATOM     22  H5* UNL     1      23.956  -1.102 189.513  0.00  0.00    +0.000 HD
ENDBRANCH  20  21
ENDBRANCH   4  20
TORSDOF 5
ENDMDL
MODEL 7
REMARK VINA RESULT:      -5.4     31.729     32.744
REMARK  Name = 5azacytidine.pdbqt.pdb
REMARK  5 active torsions:
REMARK  status: ('A' for Active; 'I' for Inactive)
REMARK    1  A    between atoms: C2*_2  and  O2*_16
REMARK    2  A    between atoms: C3*_3  and  O3*_21
REMARK    3  A    between atoms: C4*_4  and  C5*_18
REMARK    4  A    between atoms: C1*_5  and  N_6
REMARK    5  A    between atoms: C5*_18  and  O5*_19
REMARK                            x       y       z     vdW  Elec       q    Type
REMARK                         _______ _______ _______ _____ _____    ______ ____
ROOT
ATOM      1  O4* UNL     1      43.896  -3.716 166.631  0.00  0.00    +0.000 OA
ATOM      2  C2* UNL     1      45.529  -4.576 165.247  0.00  0.00    +0.000 A 
ATOM      3  C3* UNL     1      45.888  -3.233 165.589  0.00  0.00    +0.000 A 
ATOM      4  C4* UNL     1      44.869  -2.717 166.457  0.00  0.00    +0.000 A 
ATOM      5  C1* UNL     1      44.267  -4.857 165.889  0.00  0.00    +0.000 A 
ENDROOT
BRANCH   5   6
ATOM      6  N   UNL     1      43.462  -5.955 165.831  0.00  0.00    +0.000 N 
ATOM      7  C   UNL     1      43.446  -7.036 166.705  0.00  0.00    +0.000 A 
ATOM      8  O   UNL     1      44.212  -7.151 167.658  0.00  0.00    +0.000 OA
ATOM      9  N   UNL     1      42.496  -8.013 166.415  0.00  0.00    +0.000 NA
ATOM     10  C   UNL     1      41.702  -7.882 165.383  0.00  0.00    +0.000 A 
ATOM     11  N   UNL     1      41.743  -6.818 164.499  0.00  0.00    +0.000 NA
ATOM     12  C   UNL     1      42.563  -6.070 164.856  0.00  0.00    +0.000 A 
ATOM     13  N   UNL     1      40.790  -8.858 165.142  0.00  0.00    +0.000 N 
ATOM     14  H   UNL     1      40.502  -8.934 164.176  0.00  0.00    +0.000 HD
ATOM     15  H   UNL     1      41.011  -9.739 165.591  0.00  0.00    +0.000 HD
ENDBRANCH   5   6
BRANCH   2  16
ATOM     16  O2* UNL     1      45.939  -5.104 164.055  0.00  0.00    +0.000 OA
ATOM     17  H2* UNL     1      45.210  -5.570 163.589  0.00  0.00    +0.000 HD
ENDBRANCH   2  16
BRANCH   3  18
ATOM     18  O3* UNL     1      46.569  -2.439 164.709  0.00  0.00    +0.000 OA
ATOM     19  H3* UNL     1      47.325  -2.017 165.160  0.00  0.00    +0.000 HD
ENDBRANCH   3  18
BRANCH   4  20
ATOM     20  C5* UNL     1      44.648  -1.375 166.824  0.00  0.00    +0.000 C 
BRANCH  20  21
ATOM     21  O5* UNL     1      44.449  -0.109 167.175  0.00  0.00    +0.000 OA
ATOM     22  H5* UNL     1      45.019   0.477 166.647  0.00  0.00    +0.000 HD
ENDBRANCH  20  21
ENDBRANCH   4  20
TORSDOF 5
ENDMDL
MODEL 8
REMARK VINA RESULT:      -5.3      3.257      6.571
REMARK  Name = 5azacytidine.pdbqt.pdb
REMARK  5 active torsions:
REMARK  status: ('A' for Active; 'I' for Inactive)
REMARK    1  A    between atoms: C2*_2  and  O2*_16
REMARK    2  A    between atoms: C3*_3  and  O3*_21
REMARK    3  A    between atoms: C4*_4  and  C5*_18
REMARK    4  A    between atoms: C1*_5  and  N_6
REMARK    5  A    between atoms: C5*_18  and  O5*_19
REMARK                            x       y       z     vdW  Elec       q    Type
REMARK                         _______ _______ _______ _____ _____    ______ ____
ROOT
ATOM      1  O4* UNL     1      20.824   1.068 190.991  0.00  0.00    +0.000 OA
ATOM      2  C2* UNL     1      19.240   2.034 189.621  0.00  0.00    +0.000 A 
ATOM      3  C3* UNL     1      18.582   1.096 190.479  0.00  0.00    +0.000 A 
ATOM      4  C4* UNL     1      19.578   0.512 191.331  0.00  0.00    +0.000 A 
ATOM      5  C1* UNL     1      20.647   1.989 189.936  0.00  0.00    +0.000 A 
ENDROOT
BRANCH   5   6
ATOM      6  N   UNL     1      21.710   2.626 189.369  0.00  0.00    +0.000 N 
ATOM      7  C   UNL     1      22.094   2.601 188.034  0.00  0.00    +0.000 A 
ATOM      8  O   UNL     1      21.513   1.946 187.172  0.00  0.00    +0.000 OA
ATOM      9  N   UNL     1      23.215   3.368 187.729  0.00  0.00    +0.000 NA
ATOM     10  C   UNL     1      23.833   4.044 188.665  0.00  0.00    +0.000 A 
ATOM     11  N   UNL     1      23.464   4.041 189.999  0.00  0.00    +0.000 NA
ATOM     12  C   UNL     1      22.512   3.378 190.120  0.00  0.00    +0.000 A 
ATOM     13  N   UNL     1      24.920   4.780 188.320  0.00  0.00    +0.000 N 
ATOM     14  H   UNL     1      25.576   4.937 189.074  0.00  0.00    +0.000 HD
ATOM     15  H   UNL     1      25.339   4.498 187.442  0.00  0.00    +0.000 HD
ENDBRANCH   5   6
BRANCH   2  16
ATOM     16  O2* UNL     1      18.720   2.301 188.384  0.00  0.00    +0.000 OA
ATOM     17  H2* UNL     1      18.548   3.259 188.257  0.00  0.00    +0.000 HD
ENDBRANCH   2  16
BRANCH   3  18
ATOM     18  O3* UNL     1      17.484   0.401 190.055  0.00  0.00    +0.000 OA
ATOM     19  H3* UNL     1      16.673   0.826 190.390  0.00  0.00    +0.000 HD
ENDBRANCH   3  18
BRANCH   4  20
ATOM     20  C5* UNL     1      19.458  -0.638 192.134  0.00  0.00    +0.000 C 
BRANCH  20  21
ATOM     21  O5* UNL     1      19.334  -1.725 192.889  0.00  0.00    +0.000 OA
ATOM     22  H5* UNL     1      19.789  -1.594 193.739  0.00  0.00    +0.000 HD
ENDBRANCH  20  21
ENDBRANCH   4  20
TORSDOF 5
ENDMDL
MODEL 9
REMARK VINA RESULT:      -5.3     12.302     13.914
REMARK  Name = 5azacytidine.pdbqt.pdb
REMARK  5 active torsions:
REMARK  status: ('A' for Active; 'I' for Inactive)
REMARK    1  A    between atoms: C2*_2  and  O2*_16
REMARK    2  A    between atoms: C3*_3  and  O3*_21
REMARK    3  A    between atoms: C4*_4  and  C5*_18
REMARK    4  A    between atoms: C1*_5  and  N_6
REMARK    5  A    between atoms: C5*_18  and  O5*_19
REMARK                            x       y       z     vdW  Elec       q    Type
REMARK                         _______ _______ _______ _____ _____    ______ ____
ROOT
ATOM      1  O4* UNL     1      12.028   2.774 177.369  0.00  0.00    +0.000 OA
ATOM      2  C2* UNL     1      13.402   4.594 177.028  0.00  0.00    +0.000 A 
ATOM      3  C3* UNL     1      14.224   3.448 177.272  0.00  0.00    +0.000 A 
ATOM      4  C4* UNL     1      13.355   2.323 177.471  0.00  0.00    +0.000 A 
ATOM      5  C1* UNL     1      12.028   4.162 177.115  0.00  0.00    +0.000 A 
ENDROOT
BRANCH   5   6
ATOM      6  N   UNL     1      10.864   4.866 177.034  0.00  0.00    +0.000 N 
ATOM      7  C   UNL     1       9.955   5.112 178.055  0.00  0.00    +0.000 A 
ATOM      8  O   UNL     1      10.082   4.677 179.198  0.00  0.00    +0.000 OA
ATOM      9  N   UNL     1       8.855   5.885 177.691  0.00  0.00    +0.000 NA
ATOM     10  C   UNL     1       8.726   6.322 176.463  0.00  0.00    +0.000 A 
ATOM     11  N   UNL     1       9.621   6.048 175.443  0.00  0.00    +0.000 NA
ATOM     12  C   UNL     1      10.495   5.410 175.876  0.00  0.00    +0.000 A 
ATOM     13  N   UNL     1       7.640   7.074 176.156  0.00  0.00    +0.000 N 
ATOM     14  H   UNL     1       7.371   7.042 175.182  0.00  0.00    +0.000 HD
ATOM     15  H   UNL     1       6.876   6.970 176.813  0.00  0.00    +0.000 HD
ENDBRANCH   5   6
BRANCH   2  16
ATOM     16  O2* UNL     1      13.857   5.838 177.368  0.00  0.00    +0.000 OA
ATOM     17  H2* UNL     1      14.610   5.795 177.997  0.00  0.00    +0.000 HD
ENDBRANCH   2  16
BRANCH   3  18
ATOM     18  O3* UNL     1      15.426   3.564 177.912  0.00  0.00    +0.000 OA
ATOM     19  H3* UNL     1      15.463   2.943 178.663  0.00  0.00    +0.000 HD
ENDBRANCH   3  18
BRANCH   4  20
ATOM     20  C5* UNL     1      13.686   1.063 178.004  0.00  0.00    +0.000 C 
BRANCH  20  21
ATOM     21  O5* UNL     1      14.007  -0.128 178.500  0.00  0.00    +0.000 OA
ATOM     22  H5* UNL     1      14.971  -0.192 178.615  0.00  0.00    +0.000 HD
ENDBRANCH  20  21
ENDBRANCH   4  20
TORSDOF 5
ENDMDL
