MODEL 1
REMARK VINA RESULT:      -8.2      0.000      0.000
REMARK  Name = 60953_Capecitabine.pdbqt.pdb
REMARK  6 active torsions:
REMARK  status: ('A' for Active; 'I' for Inactive)
REMARK    1  A    between atoms: N_4  and  C_16
REMARK    2  A    between atoms: C_11  and  O_23
REMARK    3  A    between atoms: C_14  and  O_19
REMARK    4  A    between atoms: C_15  and  O_21
REMARK    5  A    between atoms: O_23  and  C_24
REMARK    6  A    between atoms: C_25  and  C_26
REMARK                            x       y       z     vdW  Elec       q    Type
REMARK                         _______ _______ _______ _____ _____    ______ ____
ROOT
ATOM      1  F   UNL     1      17.854   3.042 187.843  0.00  0.00    +0.000 F 
ATOM      2  O   UNL     1      23.165   2.464 187.446  0.00  0.00    +0.000 OA
ATOM      3  O   UNL     1      20.830   0.698 191.091  0.00  0.00    +0.000 OA
ATOM      4  N   UNL     1      21.223   3.460 186.652  0.00  0.00    +0.000 N 
ATOM      5  N   UNL     1      21.259   2.181 188.682  0.00  0.00    +0.000 NA
ATOM      6  N   UNL     1      19.247   1.893 189.874  0.00  0.00    +0.000 N 
ATOM      7  C   UNL     1      19.915   3.642 186.923  0.00  0.00    +0.000 C 
ATOM      8  C   UNL     1      21.966   2.693 187.585  0.00  0.00    +0.000 C 
ATOM      9  C   UNL     1      19.177   3.269 187.909  0.00  0.00    +0.000 C 
ATOM     10  C   UNL     1      19.989   2.416 188.835  0.00  0.00    +0.000 C 
ATOM     11  C   UNL     1      19.685   1.077 190.893  0.00  0.00    +0.000 C 
ATOM     12  H   UNL     1      18.257   2.093 189.906  0.00  0.00    +0.000 HD
ENDROOT
BRANCH   4  16
ATOM     13  O   UNL     1      21.255   3.681 184.242  0.00  0.00    +0.000 OA
ATOM     14  C   UNL     1      22.776   5.024 185.337  0.00  0.00    +0.000 A 
ATOM     15  C   UNL     1      22.946   5.208 183.928  0.00  0.00    +0.000 A 
ATOM     16  C   UNL     1      21.731   4.044 185.521  0.00  0.00    +0.000 A 
ATOM     17  C   UNL     1      21.983   4.374 183.262  0.00  0.00    +0.000 A 
ATOM     18  C   UNL     1      21.861   3.975 181.832  0.00  0.00    +0.000 C 
BRANCH  14  19
ATOM     19  O   UNL     1      23.842   5.206 186.172  0.00  0.00    +0.000 OA
ATOM     20  H   UNL     1      24.219   6.111 186.101  0.00  0.00    +0.000 HD
ENDBRANCH  14  19
BRANCH  15  21
ATOM     21  O   UNL     1      24.170   5.525 183.400  0.00  0.00    +0.000 OA
ATOM     22  H   UNL     1      24.548   4.757 182.931  0.00  0.00    +0.000 HD
ENDBRANCH  15  21
ENDBRANCH   4  16
BRANCH  11  23
ATOM     23  O   UNL     1      18.615   0.757 191.680  0.00  0.00    +0.000 OA
BRANCH  23  24
ATOM     24  C   UNL     1      18.846   0.736 192.991  0.00  0.00    +0.000 C 
ATOM     25  C   UNL     1      19.113   0.714 194.500  0.00  0.00    +0.000 C 
BRANCH  25  26
ATOM     26  C   UNL     1      19.380   0.694 196.008  0.00  0.00    +0.000 C 
ATOM     27  C   UNL     1      19.639   0.675 197.517  0.00  0.00    +0.000 C 
ATOM     28  C   UNL     1      19.888   0.650 199.029  0.00  0.00    +0.000 C 
ENDBRANCH  25  26
ENDBRANCH  23  24
ENDBRANCH  11  23
TORSDOF 6
ENDMDL
MODEL 2
REMARK VINA RESULT:      -7.8      1.893      2.127
REMARK  Name = 60953_Capecitabine.pdbqt.pdb
REMARK  6 active torsions:
REMARK  status: ('A' for Active; 'I' for Inactive)
REMARK    1  A    between atoms: N_4  and  C_16
REMARK    2  A    between atoms: C_11  and  O_23
REMARK    3  A    between atoms: C_14  and  O_19
REMARK    4  A    between atoms: C_15  and  O_21
REMARK    5  A    between atoms: O_23  and  C_24
REMARK    6  A    between atoms: C_25  and  C_26
REMARK                            x       y       z     vdW  Elec       q    Type
REMARK                         _______ _______ _______ _____ _____    ______ ____
ROOT
ATOM      1  F   UNL     1      23.040   0.542 189.127  0.00  0.00    +0.000 F 
ATOM      2  O   UNL     1      19.678   4.526 187.891  0.00  0.00    +0.000 OA
ATOM      3  O   UNL     1      18.913   1.818 191.625  0.00  0.00    +0.000 OA
ATOM      4  N   UNL     1      21.489   3.208 187.275  0.00  0.00    +0.000 N 
ATOM      5  N   UNL     1      20.163   2.722 189.215  0.00  0.00    +0.000 NA
ATOM      6  N   UNL     1      20.752   0.876 190.555  0.00  0.00    +0.000 N 
ATOM      7  C   UNL     1      22.190   2.109 187.619  0.00  0.00    +0.000 C 
ATOM      8  C   UNL     1      20.392   3.549 188.107  0.00  0.00    +0.000 C 
ATOM      9  C   UNL     1      22.046   1.255 188.570  0.00  0.00    +0.000 C 
ATOM     10  C   UNL     1      20.915   1.688 189.452  0.00  0.00    +0.000 C 
ATOM     11  C   UNL     1      19.812   0.993 191.554  0.00  0.00    +0.000 C 
ATOM     12  H   UNL     1      21.399   0.111 190.689  0.00  0.00    +0.000 HD
ENDROOT
BRANCH   4  16
ATOM     13  O   UNL     1      21.303   3.591 184.892  0.00  0.00    +0.000 OA
ATOM     14  C   UNL     1      22.861   4.925 185.949  0.00  0.00    +0.000 A 
ATOM     15  C   UNL     1      22.901   5.210 184.547  0.00  0.00    +0.000 A 
ATOM     16  C   UNL     1      21.874   3.889 186.150  0.00  0.00    +0.000 A 
ATOM     17  C   UNL     1      21.916   4.381 183.907  0.00  0.00    +0.000 A 
ATOM     18  C   UNL     1      21.686   4.074 182.467  0.00  0.00    +0.000 C 
BRANCH  14  19
ATOM     19  O   UNL     1      23.987   5.097 186.702  0.00  0.00    +0.000 OA
ATOM     20  H   UNL     1      23.784   5.172 187.661  0.00  0.00    +0.000 HD
ENDBRANCH  14  19
BRANCH  15  21
ATOM     21  O   UNL     1      24.061   5.616 183.941  0.00  0.00    +0.000 OA
ATOM     22  H   UNL     1      24.305   6.513 184.239  0.00  0.00    +0.000 HD
ENDBRANCH  15  21
ENDBRANCH   4  16
BRANCH  11  23
ATOM     23  O   UNL     1      20.035   0.008 192.475  0.00  0.00    +0.000 OA
BRANCH  23  24
ATOM     24  C   UNL     1      19.460   0.184 193.663  0.00  0.00    +0.000 C 
ATOM     25  C   UNL     1      18.797   0.389 195.029  0.00  0.00    +0.000 C 
BRANCH  25  26
ATOM     26  C   UNL     1      18.133   0.594 196.393  0.00  0.00    +0.000 C 
ATOM     27  C   UNL     1      17.472   0.794 197.760  0.00  0.00    +0.000 C 
ATOM     28  C   UNL     1      16.821   0.987 199.134  0.00  0.00    +0.000 C 
ENDBRANCH  25  26
ENDBRANCH  23  24
ENDBRANCH  11  23
TORSDOF 6
ENDMDL
MODEL 3
REMARK VINA RESULT:      -7.6      3.047      3.538
REMARK  Name = 60953_Capecitabine.pdbqt.pdb
REMARK  6 active torsions:
REMARK  status: ('A' for Active; 'I' for Inactive)
REMARK    1  A    between atoms: N_4  and  C_16
REMARK    2  A    between atoms: C_11  and  O_23
REMARK    3  A    between atoms: C_14  and  O_19
REMARK    4  A    between atoms: C_15  and  O_21
REMARK    5  A    between atoms: O_23  and  C_24
REMARK    6  A    between atoms: C_25  and  C_26
REMARK                            x       y       z     vdW  Elec       q    Type
REMARK                         _______ _______ _______ _____ _____    ______ ____
ROOT
ATOM      1  F   UNL     1      23.237   0.791 189.100  0.00  0.00    +0.000 F 
ATOM      2  O   UNL     1      19.499   4.200 187.337  0.00  0.00    +0.000 OA
ATOM      3  O   UNL     1      18.762   1.601 191.153  0.00  0.00    +0.000 OA
ATOM      4  N   UNL     1      21.521   3.119 186.961  0.00  0.00    +0.000 N 
ATOM      5  N   UNL     1      20.097   2.549 188.807  0.00  0.00    +0.000 NA
ATOM      6  N   UNL     1      20.802   0.872 190.304  0.00  0.00    +0.000 N 
ATOM      7  C   UNL     1      22.328   2.146 187.430  0.00  0.00    +0.000 C 
ATOM      8  C   UNL     1      20.315   3.344 187.673  0.00  0.00    +0.000 C 
ATOM      9  C   UNL     1      22.212   1.328 188.417  0.00  0.00    +0.000 C 
ATOM     10  C   UNL     1      20.957   1.643 189.170  0.00  0.00    +0.000 C 
ATOM     11  C   UNL     1      19.766   0.907 191.211  0.00  0.00    +0.000 C 
ATOM     12  H   UNL     1      21.530   0.213 190.540  0.00  0.00    +0.000 HD
ENDROOT
BRANCH   4  16
ATOM     13  O   UNL     1      21.336   3.495 184.577  0.00  0.00    +0.000 OA
ATOM     14  C   UNL     1      22.915   4.810 185.625  0.00  0.00    +0.000 A 
ATOM     15  C   UNL     1      22.956   5.089 184.222  0.00  0.00    +0.000 A 
ATOM     16  C   UNL     1      21.913   3.789 185.832  0.00  0.00    +0.000 A 
ATOM     17  C   UNL     1      21.959   4.272 183.587  0.00  0.00    +0.000 A 
ATOM     18  C   UNL     1      21.722   3.963 182.149  0.00  0.00    +0.000 C 
BRANCH  14  19
ATOM     19  O   UNL     1      24.045   4.969 186.376  0.00  0.00    +0.000 OA
ATOM     20  H   UNL     1      24.118   5.875 186.750  0.00  0.00    +0.000 HD
ENDBRANCH  14  19
BRANCH  15  21
ATOM     21  O   UNL     1      24.121   5.476 183.613  0.00  0.00    +0.000 OA
ATOM     22  H   UNL     1      23.956   6.220 183.003  0.00  0.00    +0.000 HD
ENDBRANCH  15  21
ENDBRANCH   4  16
BRANCH  11  23
ATOM     23  O   UNL     1      20.033   0.010 192.206  0.00  0.00    +0.000 OA
BRANCH  23  24
ATOM     24  C   UNL     1      21.316  -0.300 192.378  0.00  0.00    +0.000 C 
ATOM     25  C   UNL     1      22.793  -0.655 192.578  0.00  0.00    +0.000 C 
BRANCH  25  26
ATOM     26  C   UNL     1      24.270  -1.008 192.779  0.00  0.00    +0.000 C 
ATOM     27  C   UNL     1      25.746  -1.366 192.975  0.00  0.00    +0.000 C 
ATOM     28  C   UNL     1      27.223  -1.731 193.159  0.00  0.00    +0.000 C 
ENDBRANCH  25  26
ENDBRANCH  23  24
ENDBRANCH  11  23
TORSDOF 6
ENDMDL
MODEL 4
REMARK VINA RESULT:      -7.5      3.914      9.200
REMARK  Name = 60953_Capecitabine.pdbqt.pdb
REMARK  6 active torsions:
REMARK  status: ('A' for Active; 'I' for Inactive)
REMARK    1  A    between atoms: N_4  and  C_16
REMARK    2  A    between atoms: C_11  and  O_23
REMARK    3  A    between atoms: C_14  and  O_19
REMARK    4  A    between atoms: C_15  and  O_21
REMARK    5  A    between atoms: O_23  and  C_24
REMARK    6  A    between atoms: C_25  and  C_26
REMARK                            x       y       z     vdW  Elec       q    Type
REMARK                         _______ _______ _______ _____ _____    ______ ____
ROOT
ATOM      1  F   UNL     1      21.830   2.773 190.523  0.00  0.00    +0.000 F 
ATOM      2  O   UNL     1      20.702  -1.935 192.817  0.00  0.00    +0.000 OA
ATOM      3  O   UNL     1      17.586   0.190 190.055  0.00  0.00    +0.000 OA
ATOM      4  N   UNL     1      22.129  -0.109 192.656  0.00  0.00    +0.000 N 
ATOM      5  N   UNL     1      19.992  -0.154 191.565  0.00  0.00    +0.000 NA
ATOM      6  N   UNL     1      19.350   1.695 190.255  0.00  0.00    +0.000 N 
ATOM      7  C   UNL     1      22.247   1.124 192.122  0.00  0.00    +0.000 C 
ATOM      8  C   UNL     1      20.924  -0.807 192.382  0.00  0.00    +0.000 C 
ATOM      9  C   UNL     1      21.449   1.837 191.409  0.00  0.00    +0.000 C 
ATOM     10  C   UNL     1      20.221   1.037 191.098  0.00  0.00    +0.000 C 
ATOM     11  C   UNL     1      18.138   1.245 189.779  0.00  0.00    +0.000 C 
ATOM     12  H   UNL     1      19.614   2.606 189.906  0.00  0.00    +0.000 HD
ENDROOT
BRANCH   4  16
ATOM     13  O   UNL     1      24.434  -0.816 192.871  0.00  0.00    +0.000 OA
ATOM     14  C   UNL     1      23.216  -0.941 194.826  0.00  0.00    +0.000 A 
ATOM     15  C   UNL     1      24.531  -1.445 195.081  0.00  0.00    +0.000 A 
ATOM     16  C   UNL     1      23.159  -0.575 193.430  0.00  0.00    +0.000 A 
ATOM     17  C   UNL     1      25.279  -1.348 193.857  0.00  0.00    +0.000 A 
ATOM     18  C   UNL     1      26.591  -1.935 193.467  0.00  0.00    +0.000 C 
BRANCH  14  19
ATOM     19  O   UNL     1      22.164  -1.405 195.563  0.00  0.00    +0.000 OA
ATOM     20  H   UNL     1      22.459  -1.914 196.351  0.00  0.00    +0.000 HD
ENDBRANCH  14  19
BRANCH  15  21
ATOM     21  O   UNL     1      24.746  -2.413 196.027  0.00  0.00    +0.000 OA
ATOM     22  H   UNL     1      25.577  -2.891 195.843  0.00  0.00    +0.000 HD
ENDBRANCH  15  21
ENDBRANCH   4  16
BRANCH  11  23
ATOM     23  O   UNL     1      17.625   2.193 188.938  0.00  0.00    +0.000 OA
BRANCH  23  24
ATOM     24  C   UNL     1      18.431   2.593 187.957  0.00  0.00    +0.000 C 
ATOM     25  C   UNL     1      19.359   3.055 186.828  0.00  0.00    +0.000 C 
BRANCH  25  26
ATOM     26  C   UNL     1      20.286   3.519 185.701  0.00  0.00    +0.000 C 
ATOM     27  C   UNL     1      21.208   3.989 184.573  0.00  0.00    +0.000 C 
ATOM     28  C   UNL     1      22.127   4.472 183.445  0.00  0.00    +0.000 C 
ENDBRANCH  25  26
ENDBRANCH  23  24
ENDBRANCH  11  23
TORSDOF 6
ENDMDL
MODEL 5
REMARK VINA RESULT:      -6.9      2.316      3.346
REMARK  Name = 60953_Capecitabine.pdbqt.pdb
REMARK  6 active torsions:
REMARK  status: ('A' for Active; 'I' for Inactive)
REMARK    1  A    between atoms: N_4  and  C_16
REMARK    2  A    between atoms: C_11  and  O_23
REMARK    3  A    between atoms: C_14  and  O_19
REMARK    4  A    between atoms: C_15  and  O_21
REMARK    5  A    between atoms: O_23  and  C_24
REMARK    6  A    between atoms: C_25  and  C_26
REMARK                            x       y       z     vdW  Elec       q    Type
REMARK                         _______ _______ _______ _____ _____    ______ ____
ROOT
ATOM      1  F   UNL     1      22.890   0.063 190.905  0.00  0.00    +0.000 F 
ATOM      2  O   UNL     1      19.839   4.080 189.102  0.00  0.00    +0.000 OA
ATOM      3  O   UNL     1      18.292   1.218 192.459  0.00  0.00    +0.000 OA
ATOM      4  N   UNL     1      21.759   2.796 188.857  0.00  0.00    +0.000 N 
ATOM      5  N   UNL     1      20.038   2.225 190.429  0.00  0.00    +0.000 NA
ATOM      6  N   UNL     1      20.336   0.328 191.794  0.00  0.00    +0.000 N 
ATOM      7  C   UNL     1      22.380   1.686 189.306  0.00  0.00    +0.000 C 
ATOM      8  C   UNL     1      20.499   3.098 189.434  0.00  0.00    +0.000 C 
ATOM      9  C   UNL     1      22.037   0.793 190.167  0.00  0.00    +0.000 C 
ATOM     10  C   UNL     1      20.732   1.185 190.788  0.00  0.00    +0.000 C 
ATOM     11  C   UNL     1      19.194   0.401 192.560  0.00  0.00    +0.000 C 
ATOM     12  H   UNL     1      20.947  -0.439 192.040  0.00  0.00    +0.000 HD
ENDROOT
BRANCH   4  16
ATOM     13  O   UNL     1      23.645   4.107 188.094  0.00  0.00    +0.000 OA
ATOM     14  C   UNL     1      21.953   3.886 186.542  0.00  0.00    +0.000 A 
ATOM     15  C   UNL     1      22.966   4.730 185.986  0.00  0.00    +0.000 A 
ATOM     16  C   UNL     1      22.378   3.524 187.875  0.00  0.00    +0.000 A 
ATOM     17  C   UNL     1      24.017   4.846 186.960  0.00  0.00    +0.000 A 
ATOM     18  C   UNL     1      25.182   5.773 187.032  0.00  0.00    +0.000 C 
BRANCH  14  19
ATOM     19  O   UNL     1      20.656   4.041 186.143  0.00  0.00    +0.000 OA
ATOM     20  H   UNL     1      20.572   4.665 185.387  0.00  0.00    +0.000 HD
ENDBRANCH  14  19
BRANCH  15  21
ATOM     21  O   UNL     1      22.650   5.716 185.089  0.00  0.00    +0.000 OA
ATOM     22  H   UNL     1      23.040   5.520 184.215  0.00  0.00    +0.000 HD
ENDBRANCH  15  21
ENDBRANCH   4  16
BRANCH  11  23
ATOM     23  O   UNL     1      19.218  -0.621 193.468  0.00  0.00    +0.000 OA
BRANCH  23  24
ATOM     24  C   UNL     1      18.860  -0.301 194.710  0.00  0.00    +0.000 C 
ATOM     25  C   UNL     1      18.448   0.066 196.139  0.00  0.00    +0.000 C 
BRANCH  25  26
ATOM     26  C   UNL     1      18.035   0.430 197.568  0.00  0.00    +0.000 C 
ATOM     27  C   UNL     1      17.629   0.792 199.000  0.00  0.00    +0.000 C 
ATOM     28  C   UNL     1      17.235   1.156 200.436  0.00  0.00    +0.000 C 
ENDBRANCH  25  26
ENDBRANCH  23  24
ENDBRANCH  11  23
TORSDOF 6
ENDMDL
MODEL 6
REMARK VINA RESULT:      -6.8      4.491      8.591
REMARK  Name = 60953_Capecitabine.pdbqt.pdb
REMARK  6 active torsions:
REMARK  status: ('A' for Active; 'I' for Inactive)
REMARK    1  A    between atoms: N_4  and  C_16
REMARK    2  A    between atoms: C_11  and  O_23
REMARK    3  A    between atoms: C_14  and  O_19
REMARK    4  A    between atoms: C_15  and  O_21
REMARK    5  A    between atoms: O_23  and  C_24
REMARK    6  A    between atoms: C_25  and  C_26
REMARK                            x       y       z     vdW  Elec       q    Type
REMARK                         _______ _______ _______ _____ _____    ______ ____
ROOT
ATOM      1  F   UNL     1      22.963   2.644 188.605  0.00  0.00    +0.000 F 
ATOM      2  O   UNL     1      22.672  -0.521 192.917  0.00  0.00    +0.000 OA
ATOM      3  O   UNL     1      18.815   0.687 190.568  0.00  0.00    +0.000 OA
ATOM      4  N   UNL     1      23.957   0.872 191.574  0.00  0.00    +0.000 N 
ATOM      5  N   UNL     1      21.582   0.671 191.294  0.00  0.00    +0.000 NA
ATOM      6  N   UNL     1      20.538   1.892 189.572  0.00  0.00    +0.000 N 
ATOM      7  C   UNL     1      23.888   1.752 190.555  0.00  0.00    +0.000 C 
ATOM      8  C   UNL     1      22.734   0.290 191.996  0.00  0.00    +0.000 C 
ATOM      9  C   UNL     1      22.897   2.212 189.876  0.00  0.00    +0.000 C 
ATOM     10  C   UNL     1      21.640   1.526 190.317  0.00  0.00    +0.000 C 
ATOM     11  C   UNL     1      19.241   1.453 189.717  0.00  0.00    +0.000 C 
ATOM     12  H   UNL     1      20.669   2.537 188.805  0.00  0.00    +0.000 HD
ENDROOT
BRANCH   4  16
ATOM     13  O   UNL     1      26.086   1.688 192.388  0.00  0.00    +0.000 OA
ATOM     14  C   UNL     1      25.835  -0.601 192.517  0.00  0.00    +0.000 A 
ATOM     15  C   UNL     1      27.151  -0.267 192.968  0.00  0.00    +0.000 A 
ATOM     16  C   UNL     1      25.186   0.630 192.131  0.00  0.00    +0.000 A 
ATOM     17  C   UNL     1      27.285   1.162 192.893  0.00  0.00    +0.000 A 
ATOM     18  C   UNL     1      28.488   2.036 192.996  0.00  0.00    +0.000 C 
BRANCH  14  19
ATOM     19  O   UNL     1      25.609  -1.823 191.949  0.00  0.00    +0.000 OA
ATOM     20  H   UNL     1      26.072  -2.546 192.429  0.00  0.00    +0.000 HD
ENDBRANCH  14  19
BRANCH  15  21
ATOM     21  O   UNL     1      28.197  -1.137 192.804  0.00  0.00    +0.000 OA
ATOM     22  H   UNL     1      27.907  -2.054 192.975  0.00  0.00    +0.000 HD
ENDBRANCH  15  21
ENDBRANCH   4  16
BRANCH  11  23
ATOM     23  O   UNL     1      18.477   2.034 188.744  0.00  0.00    +0.000 OA
BRANCH  23  24
ATOM     24  C   UNL     1      19.139   2.487 187.681  0.00  0.00    +0.000 C 
ATOM     25  C   UNL     1      19.901   3.010 186.459  0.00  0.00    +0.000 C 
BRANCH  25  26
ATOM     26  C   UNL     1      20.662   3.535 185.238  0.00  0.00    +0.000 C 
ATOM     27  C   UNL     1      21.417   4.057 184.013  0.00  0.00    +0.000 C 
ATOM     28  C   UNL     1      22.161   4.582 182.780  0.00  0.00    +0.000 C 
ENDBRANCH  25  26
ENDBRANCH  23  24
ENDBRANCH  11  23
TORSDOF 6
ENDMDL
MODEL 7
REMARK VINA RESULT:      -6.6      6.943      8.586
REMARK  Name = 60953_Capecitabine.pdbqt.pdb
REMARK  6 active torsions:
REMARK  status: ('A' for Active; 'I' for Inactive)
REMARK    1  A    between atoms: N_4  and  C_16
REMARK    2  A    between atoms: C_11  and  O_23
REMARK    3  A    between atoms: C_14  and  O_19
REMARK    4  A    between atoms: C_15  and  O_21
REMARK    5  A    between atoms: O_23  and  C_24
REMARK    6  A    between atoms: C_25  and  C_26
REMARK                            x       y       z     vdW  Elec       q    Type
REMARK                         _______ _______ _______ _____ _____    ______ ____
ROOT
ATOM      1  F   UNL     1      25.708   3.242 189.050  0.00  0.00    +0.000 F 
ATOM      2  O   UNL     1      30.305   0.685 190.065  0.00  0.00    +0.000 OA
ATOM      3  O   UNL     1      26.255  -0.893 191.788  0.00  0.00    +0.000 OA
ATOM      4  N   UNL     1      29.237   2.560 189.204  0.00  0.00    +0.000 N 
ATOM      5  N   UNL     1      28.055   0.879 190.443  0.00  0.00    +0.000 NA
ATOM      6  N   UNL     1      25.732   1.123 190.751  0.00  0.00    +0.000 N 
ATOM      7  C   UNL     1      28.041   3.177 189.120  0.00  0.00    +0.000 C 
ATOM      8  C   UNL     1      29.272   1.335 189.919  0.00  0.00    +0.000 C 
ATOM      9  C   UNL     1      26.883   2.885 189.597  0.00  0.00    +0.000 C 
ATOM     10  C   UNL     1      26.957   1.559 190.290  0.00  0.00    +0.000 C 
ATOM     11  C   UNL     1      25.455  -0.043 191.428  0.00  0.00    +0.000 C 
ATOM     12  H   UNL     1      24.918   1.692 190.563  0.00  0.00    +0.000 HD
ENDROOT
BRANCH   4  16
ATOM     13  O   UNL     1      31.018   2.544 187.565  0.00  0.00    +0.000 OA
ATOM     14  C   UNL     1      30.976   4.424 188.901  0.00  0.00    +0.000 A 
ATOM     15  C   UNL     1      32.107   4.517 188.029  0.00  0.00    +0.000 A 
ATOM     16  C   UNL     1      30.316   3.169 188.619  0.00  0.00    +0.000 A 
ATOM     17  C   UNL     1      32.110   3.345 187.196  0.00  0.00    +0.000 A 
ATOM     18  C   UNL     1      33.159   2.792 186.294  0.00  0.00    +0.000 C 
BRANCH  14  19
ATOM     19  O   UNL     1      31.016   5.036 190.121  0.00  0.00    +0.000 OA
ATOM     20  H   UNL     1      31.936   5.141 190.453  0.00  0.00    +0.000 HD
ENDBRANCH  14  19
BRANCH  15  21
ATOM     21  O   UNL     1      33.243   5.178 188.414  0.00  0.00    +0.000 OA
ATOM     22  H   UNL     1      33.212   6.108 188.121  0.00  0.00    +0.000 HD
ENDBRANCH  15  21
ENDBRANCH   4  16
BRANCH  11  23
ATOM     23  O   UNL     1      24.108  -0.100 191.655  0.00  0.00    +0.000 OA
BRANCH  23  24
ATOM     24  C   UNL     1      23.338   0.429 190.707  0.00  0.00    +0.000 C 
ATOM     25  C   UNL     1      22.450   1.040 189.618  0.00  0.00    +0.000 C 
BRANCH  25  26
ATOM     26  C   UNL     1      21.562   1.652 188.530  0.00  0.00    +0.000 C 
ATOM     27  C   UNL     1      20.680   2.266 187.440  0.00  0.00    +0.000 C 
ATOM     28  C   UNL     1      19.808   2.882 186.340  0.00  0.00    +0.000 C 
ENDBRANCH  25  26
ENDBRANCH  23  24
ENDBRANCH  11  23
TORSDOF 6
ENDMDL
MODEL 8
REMARK VINA RESULT:      -6.5      5.108      8.751
REMARK  Name = 60953_Capecitabine.pdbqt.pdb
REMARK  6 active torsions:
REMARK  status: ('A' for Active; 'I' for Inactive)
REMARK    1  A    between atoms: N_4  and  C_16
REMARK    2  A    between atoms: C_11  and  O_23
REMARK    3  A    between atoms: C_14  and  O_19
REMARK    4  A    between atoms: C_15  and  O_21
REMARK    5  A    between atoms: O_23  and  C_24
REMARK    6  A    between atoms: C_25  and  C_26
REMARK                            x       y       z     vdW  Elec       q    Type
REMARK                         _______ _______ _______ _____ _____    ______ ____
ROOT
ATOM      1  F   UNL     1      25.039   0.547 189.717  0.00  0.00    +0.000 F 
ATOM      2  O   UNL     1      21.440   3.459 192.413  0.00  0.00    +0.000 OA
ATOM      3  O   UNL     1      25.995   3.743 193.428  0.00  0.00    +0.000 OA
ATOM      4  N   UNL     1      21.860   1.758 190.887  0.00  0.00    +0.000 N 
ATOM      5  N   UNL     1      23.612   2.776 192.172  0.00  0.00    +0.000 NA
ATOM      6  N   UNL     1      25.829   2.054 191.836  0.00  0.00    +0.000 N 
ATOM      7  C   UNL     1      22.841   0.994 190.367  0.00  0.00    +0.000 C 
ATOM      8  C   UNL     1      22.247   2.711 191.865  0.00  0.00    +0.000 C 
ATOM      9  C   UNL     1      24.104   0.930 190.604  0.00  0.00    +0.000 C 
ATOM     10  C   UNL     1      24.472   1.990 191.596  0.00  0.00    +0.000 C 
ATOM     11  C   UNL     1      26.493   2.908 192.688  0.00  0.00    +0.000 C 
ATOM     12  H   UNL     1      26.438   1.432 191.323  0.00  0.00    +0.000 HD
ENDROOT
BRANCH   4  16
ATOM     13  O   UNL     1      20.115   2.118 189.250  0.00  0.00    +0.000 OA
ATOM     14  C   UNL     1      19.482   0.804 191.037  0.00  0.00    +0.000 A 
ATOM     15  C   UNL     1      18.345   0.985 190.187  0.00  0.00    +0.000 A 
ATOM     16  C   UNL     1      20.579   1.541 190.453  0.00  0.00    +0.000 A 
ATOM     17  C   UNL     1      18.760   1.794 189.074  0.00  0.00    +0.000 A 
ATOM     18  C   UNL     1      17.964   2.494 188.027  0.00  0.00    +0.000 C 
BRANCH  14  19
ATOM     19  O   UNL     1      19.296   0.597 192.374  0.00  0.00    +0.000 OA
ATOM     20  H   UNL     1      18.343   0.588 192.619  0.00  0.00    +0.000 HD
ENDBRANCH  14  19
BRANCH  15  21
ATOM     21  O   UNL     1      17.075   0.993 190.699  0.00  0.00    +0.000 OA
ATOM     22  H   UNL     1      17.086   0.748 191.644  0.00  0.00    +0.000 HD
ENDBRANCH  15  21
ENDBRANCH   4  16
BRANCH  11  23
ATOM     23  O   UNL     1      27.834   2.662 192.588  0.00  0.00    +0.000 OA
BRANCH  23  24
ATOM     24  C   UNL     1      28.420   3.093 191.473  0.00  0.00    +0.000 C 
ATOM     25  C   UNL     1      29.096   3.590 190.191  0.00  0.00    +0.000 C 
BRANCH  25  26
ATOM     26  C   UNL     1      29.774   4.088 188.911  0.00  0.00    +0.000 C 
ATOM     27  C   UNL     1      30.444   4.588 187.628  0.00  0.00    +0.000 C 
ATOM     28  C   UNL     1      31.105   5.095 186.342  0.00  0.00    +0.000 C 
ENDBRANCH  25  26
ENDBRANCH  23  24
ENDBRANCH  11  23
TORSDOF 6
ENDMDL
MODEL 9
REMARK VINA RESULT:      -6.2      5.086      7.425
REMARK  Name = 60953_Capecitabine.pdbqt.pdb
REMARK  6 active torsions:
REMARK  status: ('A' for Active; 'I' for Inactive)
REMARK    1  A    between atoms: N_4  and  C_16
REMARK    2  A    between atoms: C_11  and  O_23
REMARK    3  A    between atoms: C_14  and  O_19
REMARK    4  A    between atoms: C_15  and  O_21
REMARK    5  A    between atoms: O_23  and  C_24
REMARK    6  A    between atoms: C_25  and  C_26
REMARK                            x       y       z     vdW  Elec       q    Type
REMARK                         _______ _______ _______ _____ _____    ______ ____
ROOT
ATOM      1  F   UNL     1      24.074  -0.038 192.068  0.00  0.00    +0.000 F 
ATOM      2  O   UNL     1      18.870   0.665 193.129  0.00  0.00    +0.000 OA
ATOM      3  O   UNL     1      21.695  -1.375 196.245  0.00  0.00    +0.000 OA
ATOM      4  N   UNL     1      20.597   0.742 191.576  0.00  0.00    +0.000 N 
ATOM      5  N   UNL     1      20.889  -0.214 193.757  0.00  0.00    +0.000 NA
ATOM      6  N   UNL     1      23.007  -1.057 194.350  0.00  0.00    +0.000 N 
ATOM      7  C   UNL     1      21.887   0.403 191.380  0.00  0.00    +0.000 C 
ATOM      8  C   UNL     1      20.036   0.410 192.837  0.00  0.00    +0.000 C 
ATOM      9  C   UNL     1      22.742  -0.209 192.121  0.00  0.00    +0.000 C 
ATOM     10  C   UNL     1      22.124  -0.485 193.457  0.00  0.00    +0.000 C 
ATOM     11  C   UNL     1      22.761  -1.435 195.651  0.00  0.00    +0.000 C 
ATOM     12  H   UNL     1      23.962  -1.205 194.053  0.00  0.00    +0.000 HD
ENDROOT
BRANCH   4  16
ATOM     13  O   UNL     1      20.340   2.616 190.066  0.00  0.00    +0.000 OA
ATOM     14  C   UNL     1      18.760   0.958 189.797  0.00  0.00    +0.000 A 
ATOM     15  C   UNL     1      18.453   2.023 188.892  0.00  0.00    +0.000 A 
ATOM     16  C   UNL     1      19.930   1.353 190.547  0.00  0.00    +0.000 A 
ATOM     17  C   UNL     1      19.454   3.040 189.063  0.00  0.00    +0.000 A 
ATOM     18  C   UNL     1      19.506   4.449 188.580  0.00  0.00    +0.000 C 
BRANCH  14  19
ATOM     19  O   UNL     1      17.751   0.166 190.269  0.00  0.00    +0.000 OA
ATOM     20  H   UNL     1      17.409   0.478 191.136  0.00  0.00    +0.000 HD
ENDBRANCH  14  19
BRANCH  15  21
ATOM     21  O   UNL     1      17.160   2.285 188.521  0.00  0.00    +0.000 OA
ATOM     22  H   UNL     1      16.541   2.001 189.220  0.00  0.00    +0.000 HD
ENDBRANCH  15  21
ENDBRANCH   4  16
BRANCH  11  23
ATOM     23  O   UNL     1      23.923  -1.916 196.187  0.00  0.00    +0.000 OA
BRANCH  23  24
ATOM     24  C   UNL     1      25.027  -1.685 195.480  0.00  0.00    +0.000 C 
ATOM     25  C   UNL     1      26.296  -1.421 194.663  0.00  0.00    +0.000 C 
BRANCH  25  26
ATOM     26  C   UNL     1      27.565  -1.158 193.846  0.00  0.00    +0.000 C 
ATOM     27  C   UNL     1      28.837  -0.895 193.036  0.00  0.00    +0.000 C 
ATOM     28  C   UNL     1      30.117  -0.636 192.235  0.00  0.00    +0.000 C 
ENDBRANCH  25  26
ENDBRANCH  23  24
ENDBRANCH  11  23
TORSDOF 6
ENDMDL
