MODEL 1
REMARK VINA RESULT:      -7.5      0.000      0.000
REMARK  Name = 6223_Gliotoxin.pdbqt.pdb
REMARK  3 active torsions:
REMARK  status: ('A' for Active; 'I' for Inactive)
REMARK    1  A    between atoms: C_10  and  C_21
REMARK    2  A    between atoms: C_14  and  O_19
REMARK    3  A    between atoms: C_21  and  O_22
REMARK                            x       y       z     vdW  Elec       q    Type
REMARK                         _______ _______ _______ _____ _____    ______ ____
ROOT
ATOM      1  S   UNL     1      21.526   3.177 191.590  0.00  0.00    +0.000 S 
ATOM      2  S   UNL     1      23.280   2.228 192.125  0.00  0.00    +0.000 S 
ATOM      3  O   UNL     1      23.741   0.742 188.850  0.00  0.00    +0.000 OA
ATOM      4  O   UNL     1      19.497   0.278 191.917  0.00  0.00    +0.000 OA
ATOM      5  N   UNL     1      21.648   1.484 189.443  0.00  0.00    +0.000 N 
ATOM      6  N   UNL     1      21.809  -0.068 191.667  0.00  0.00    +0.000 N 
ATOM      7  C   UNL     1      20.754   1.869 190.578  0.00  0.00    +0.000 C 
ATOM      8  C   UNL     1      21.077   1.811 188.212  0.00  0.00    +0.000 A 
ATOM      9  C   UNL     1      19.570   2.339 189.863  0.00  0.00    +0.000 C 
ATOM     10  C   UNL     1      23.082   0.599 191.233  0.00  0.00    +0.000 C 
ATOM     11  C   UNL     1      19.671   2.283 188.466  0.00  0.00    +0.000 A 
ATOM     12  C   UNL     1      22.889   0.923 189.717  0.00  0.00    +0.000 C 
ATOM     13  C   UNL     1      20.580   0.612 191.433  0.00  0.00    +0.000 C 
ATOM     14  C   UNL     1      21.738   2.108 186.919  0.00  0.00    +0.000 A 
ATOM     15  C   UNL     1      19.246   3.142 187.585  0.00  0.00    +0.000 A 
ATOM     16  C   UNL     1      20.955   3.014 186.123  0.00  0.00    +0.000 A 
ATOM     17  C   UNL     1      21.925  -1.292 192.459  0.00  0.00    +0.000 C 
ATOM     18  C   UNL     1      19.895   3.564 186.258  0.00  0.00    +0.000 A 
ENDROOT
BRANCH  14  19
ATOM     19  O   UNL     1      23.086   2.003 186.733  0.00  0.00    +0.000 OA
ATOM     20  H   UNL     1      23.354   1.150 186.335  0.00  0.00    +0.000 HD
ENDBRANCH  14  19
BRANCH  10  21
ATOM     21  C   UNL     1      24.313  -0.209 191.445  0.00  0.00    +0.000 C 
BRANCH  21  22
ATOM     22  O   UNL     1      25.420  -0.936 191.615  0.00  0.00    +0.000 OA
ATOM     23  H   UNL     1      25.206  -1.841 191.911  0.00  0.00    +0.000 HD
ENDBRANCH  21  22
ENDBRANCH  10  21
TORSDOF 3
ENDMDL
MODEL 2
REMARK VINA RESULT:      -6.8     31.143     32.783
REMARK  Name = 6223_Gliotoxin.pdbqt.pdb
REMARK  3 active torsions:
REMARK  status: ('A' for Active; 'I' for Inactive)
REMARK    1  A    between atoms: C_10  and  C_21
REMARK    2  A    between atoms: C_14  and  O_19
REMARK    3  A    between atoms: C_21  and  O_22
REMARK                            x       y       z     vdW  Elec       q    Type
REMARK                         _______ _______ _______ _____ _____    ______ ____
ROOT
ATOM      1  S   UNL     1      41.055  -5.419 163.680  0.00  0.00    +0.000 S 
ATOM      2  S   UNL     1      41.965  -4.932 165.468  0.00  0.00    +0.000 S 
ATOM      3  O   UNL     1      42.486  -8.394 166.409  0.00  0.00    +0.000 OA
ATOM      4  O   UNL     1      37.899  -6.162 165.137  0.00  0.00    +0.000 OA
ATOM      5  N   UNL     1      40.907  -7.908 164.810  0.00  0.00    +0.000 N 
ATOM      6  N   UNL     1      39.762  -6.184 166.571  0.00  0.00    +0.000 N 
ATOM      7  C   UNL     1      40.043  -6.841 164.217  0.00  0.00    +0.000 C 
ATOM      8  C   UNL     1      40.885  -9.070 164.037  0.00  0.00    +0.000 A 
ATOM      9  C   UNL     1      39.438  -7.554 163.095  0.00  0.00    +0.000 C 
ATOM     10  C   UNL     1      41.261  -6.248 166.590  0.00  0.00    +0.000 C 
ATOM     11  C   UNL     1      39.848  -8.887 162.961  0.00  0.00    +0.000 A 
ATOM     12  C   UNL     1      41.629  -7.632 165.965  0.00  0.00    +0.000 C 
ATOM     13  C   UNL     1      39.095  -6.389 165.329  0.00  0.00    +0.000 C 
ATOM     14  C   UNL     1      41.908 -10.134 163.910  0.00  0.00    +0.000 A 
ATOM     15  C   UNL     1      40.109  -9.552 161.873  0.00  0.00    +0.000 A 
ATOM     16  C   UNL     1      41.866 -10.752 162.613  0.00  0.00    +0.000 A 
ATOM     17  C   UNL     1      39.091  -5.745 167.794  0.00  0.00    +0.000 C 
ATOM     18  C   UNL     1      41.189 -10.618 161.628  0.00  0.00    +0.000 A 
ENDROOT
BRANCH  14  19
ATOM     19  O   UNL     1      43.049 -10.160 164.658  0.00  0.00    +0.000 OA
ATOM     20  H   UNL     1      43.184  -9.344 165.183  0.00  0.00    +0.000 HD
ENDBRANCH  14  19
BRANCH  10  21
ATOM     21  C   UNL     1      41.876  -6.100 167.936  0.00  0.00    +0.000 C 
BRANCH  21  22
ATOM     22  O   UNL     1      42.444  -5.963 169.137  0.00  0.00    +0.000 OA
ATOM     23  H   UNL     1      42.178  -5.125 169.560  0.00  0.00    +0.000 HD
ENDBRANCH  21  22
ENDBRANCH  10  21
TORSDOF 3
ENDMDL
MODEL 3
REMARK VINA RESULT:      -6.5     30.824     32.731
REMARK  Name = 6223_Gliotoxin.pdbqt.pdb
REMARK  3 active torsions:
REMARK  status: ('A' for Active; 'I' for Inactive)
REMARK    1  A    between atoms: C_10  and  C_21
REMARK    2  A    between atoms: C_14  and  O_19
REMARK    3  A    between atoms: C_21  and  O_22
REMARK                            x       y       z     vdW  Elec       q    Type
REMARK                         _______ _______ _______ _____ _____    ______ ____
ROOT
ATOM      1  S   UNL     1      41.931  -5.406 163.195  0.00  0.00    +0.000 S 
ATOM      2  S   UNL     1      39.992  -5.149 162.535  0.00  0.00    +0.000 S 
ATOM      3  O   UNL     1      38.539  -6.179 165.692  0.00  0.00    +0.000 OA
ATOM      4  O   UNL     1      41.933  -8.935 162.772  0.00  0.00    +0.000 OA
ATOM      5  N   UNL     1      40.711  -6.772 165.229  0.00  0.00    +0.000 N 
ATOM      6  N   UNL     1      39.834  -7.883 162.909  0.00  0.00    +0.000 N 
ATOM      7  C   UNL     1      41.737  -6.946 164.155  0.00  0.00    +0.000 C 
ATOM      8  C   UNL     1      41.281  -6.870 166.499  0.00  0.00    +0.000 A 
ATOM      9  C   UNL     1      42.924  -7.268 164.943  0.00  0.00    +0.000 C 
ATOM     10  C   UNL     1      39.153  -6.615 163.332  0.00  0.00    +0.000 C 
ATOM     11  C   UNL     1      42.715  -7.293 166.329  0.00  0.00    +0.000 A 
ATOM     12  C   UNL     1      39.395  -6.503 164.872  0.00  0.00    +0.000 C 
ATOM     13  C   UNL     1      41.211  -8.048 163.233  0.00  0.00    +0.000 C 
ATOM     14  C   UNL     1      40.827  -6.280 167.780  0.00  0.00    +0.000 A 
ATOM     15  C   UNL     1      43.497  -6.864 167.277  0.00  0.00    +0.000 A 
ATOM     16  C   UNL     1      41.933  -6.016 168.660  0.00  0.00    +0.000 A 
ATOM     17  C   UNL     1      39.087  -8.792 162.040  0.00  0.00    +0.000 C 
ATOM     18  C   UNL     1      43.123  -6.179 168.601  0.00  0.00    +0.000 A 
ENDROOT
BRANCH  14  19
ATOM     19  O   UNL     1      39.656  -5.589 167.907  0.00  0.00    +0.000 OA
ATOM     20  H   UNL     1      39.441  -5.363 168.834  0.00  0.00    +0.000 HD
ENDBRANCH  14  19
BRANCH  10  21
ATOM     21  C   UNL     1      37.699  -6.554 163.024  0.00  0.00    +0.000 C 
BRANCH  21  22
ATOM     22  O   UNL     1      36.392  -6.484 162.759  0.00  0.00    +0.000 OA
ATOM     23  H   UNL     1      36.173  -5.666 162.275  0.00  0.00    +0.000 HD
ENDBRANCH  21  22
ENDBRANCH  10  21
TORSDOF 3
ENDMDL
MODEL 4
REMARK VINA RESULT:      -6.5     32.000     33.781
REMARK  Name = 6223_Gliotoxin.pdbqt.pdb
REMARK  3 active torsions:
REMARK  status: ('A' for Active; 'I' for Inactive)
REMARK    1  A    between atoms: C_10  and  C_21
REMARK    2  A    between atoms: C_14  and  O_19
REMARK    3  A    between atoms: C_21  and  O_22
REMARK                            x       y       z     vdW  Elec       q    Type
REMARK                         _______ _______ _______ _____ _____    ______ ____
ROOT
ATOM      1  S   UNL     1      40.233  -9.132 164.692  0.00  0.00    +0.000 S 
ATOM      2  S   UNL     1      41.349  -9.735 163.064  0.00  0.00    +0.000 S 
ATOM      3  O   UNL     1      44.210  -7.708 163.986  0.00  0.00    +0.000 OA
ATOM      4  O   UNL     1      39.284  -6.014 163.275  0.00  0.00    +0.000 OA
ATOM      5  N   UNL     1      42.156  -7.193 164.879  0.00  0.00    +0.000 N 
ATOM      6  N   UNL     1      41.170  -7.071 162.349  0.00  0.00    +0.000 N 
ATOM      7  C   UNL     1      40.676  -7.362 164.742  0.00  0.00    +0.000 C 
ATOM      8  C   UNL     1      42.490  -6.599 166.097  0.00  0.00    +0.000 A 
ATOM      9  C   UNL     1      40.199  -6.699 165.953  0.00  0.00    +0.000 C 
ATOM     10  C   UNL     1      42.196  -8.135 162.608  0.00  0.00    +0.000 C 
ATOM     11  C   UNL     1      41.212  -6.179 166.771  0.00  0.00    +0.000 A 
ATOM     12  C   UNL     1      42.987  -7.656 163.867  0.00  0.00    +0.000 C 
ATOM     13  C   UNL     1      40.291  -6.712 163.411  0.00  0.00    +0.000 C 
ATOM     14  C   UNL     1      43.744  -6.703 166.880  0.00  0.00    +0.000 A 
ATOM     15  C   UNL     1      41.287  -6.179 168.070  0.00  0.00    +0.000 A 
ATOM     16  C   UNL     1      43.498  -6.554 168.289  0.00  0.00    +0.000 A 
ATOM     17  C   UNL     1      41.024  -6.595 160.974  0.00  0.00    +0.000 C 
ATOM     18  C   UNL     1      42.525  -6.350 168.965  0.00  0.00    +0.000 A 
ENDROOT
BRANCH  14  19
ATOM     19  O   UNL     1      44.846  -7.371 166.431  0.00  0.00    +0.000 OA
ATOM     20  H   UNL     1      45.340  -7.821 167.146  0.00  0.00    +0.000 HD
ENDBRANCH  14  19
BRANCH  10  21
ATOM     21  C   UNL     1      43.123  -8.396 161.474  0.00  0.00    +0.000 C 
BRANCH  21  22
ATOM     22  O   UNL     1      43.969  -8.624 160.466  0.00  0.00    +0.000 OA
ATOM     23  H   UNL     1      44.682  -7.958 160.445  0.00  0.00    +0.000 HD
ENDBRANCH  21  22
ENDBRANCH  10  21
TORSDOF 3
ENDMDL
MODEL 5
REMARK VINA RESULT:      -6.4      2.741      3.003
REMARK  Name = 6223_Gliotoxin.pdbqt.pdb
REMARK  3 active torsions:
REMARK  status: ('A' for Active; 'I' for Inactive)
REMARK    1  A    between atoms: C_10  and  C_21
REMARK    2  A    between atoms: C_14  and  O_19
REMARK    3  A    between atoms: C_21  and  O_22
REMARK                            x       y       z     vdW  Elec       q    Type
REMARK                         _______ _______ _______ _____ _____    ______ ____
ROOT
ATOM      1  S   UNL     1      22.303   3.172 192.791  0.00  0.00    +0.000 S 
ATOM      2  S   UNL     1      24.343   3.382 193.026  0.00  0.00    +0.000 S 
ATOM      3  O   UNL     1      24.848   4.524 189.623  0.00  0.00    +0.000 OA
ATOM      4  O   UNL     1      22.510   0.053 191.099  0.00  0.00    +0.000 OA
ATOM      5  N   UNL     1      22.917   3.385 190.132  0.00  0.00    +0.000 N 
ATOM      6  N   UNL     1      24.453   1.377 191.127  0.00  0.00    +0.000 N 
ATOM      7  C   UNL     1      22.249   2.469 191.107  0.00  0.00    +0.000 C 
ATOM      8  C   UNL     1      22.008   3.891 189.202  0.00  0.00    +0.000 A 
ATOM      9  C   UNL     1      20.893   2.414 190.566  0.00  0.00    +0.000 C 
ATOM     10  C   UNL     1      24.951   2.771 191.370  0.00  0.00    +0.000 C 
ATOM     11  C   UNL     1      20.694   3.187 189.413  0.00  0.00    +0.000 A 
ATOM     12  C   UNL     1      24.273   3.655 190.275  0.00  0.00    +0.000 C 
ATOM     13  C   UNL     1      23.045   1.163 191.084  0.00  0.00    +0.000 C 
ATOM     14  C   UNL     1      22.058   5.155 188.430  0.00  0.00    +0.000 A 
ATOM     15  C   UNL     1      19.661   3.909 189.087  0.00  0.00    +0.000 A 
ATOM     16  C   UNL     1      20.738   5.644 188.135  0.00  0.00    +0.000 A 
ATOM     17  C   UNL     1      25.442   0.299 191.123  0.00  0.00    +0.000 C 
ATOM     18  C   UNL     1      19.620   5.259 188.353  0.00  0.00    +0.000 A 
ENDROOT
BRANCH  14  19
ATOM     19  O   UNL     1      23.125   6.005 188.466  0.00  0.00    +0.000 OA
ATOM     20  H   UNL     1      23.966   5.557 188.687  0.00  0.00    +0.000 HD
ENDBRANCH  14  19
BRANCH  10  21
ATOM     21  C   UNL     1      26.431   2.922 191.324  0.00  0.00    +0.000 C 
BRANCH  21  22
ATOM     22  O   UNL     1      27.758   3.063 191.300  0.00  0.00    +0.000 OA
ATOM     23  H   UNL     1      28.023   3.836 190.766  0.00  0.00    +0.000 HD
ENDBRANCH  21  22
ENDBRANCH  10  21
TORSDOF 3
ENDMDL
MODEL 6
REMARK VINA RESULT:      -6.3      2.448      4.156
REMARK  Name = 6223_Gliotoxin.pdbqt.pdb
REMARK  3 active torsions:
REMARK  status: ('A' for Active; 'I' for Inactive)
REMARK    1  A    between atoms: C_10  and  C_21
REMARK    2  A    between atoms: C_14  and  O_19
REMARK    3  A    between atoms: C_21  and  O_22
REMARK                            x       y       z     vdW  Elec       q    Type
REMARK                         _______ _______ _______ _____ _____    ______ ____
ROOT
ATOM      1  S   UNL     1      21.772   3.331 192.651  0.00  0.00    +0.000 S 
ATOM      2  S   UNL     1      20.794   1.689 193.432  0.00  0.00    +0.000 S 
ATOM      3  O   UNL     1      22.642  -0.669 191.391  0.00  0.00    +0.000 OA
ATOM      4  O   UNL     1      19.851   3.437 189.662  0.00  0.00    +0.000 OA
ATOM      5  N   UNL     1      22.575   1.536 190.746  0.00  0.00    +0.000 N 
ATOM      6  N   UNL     1      19.863   1.405 190.845  0.00  0.00    +0.000 N 
ATOM      7  C   UNL     1      21.859   2.841 190.894  0.00  0.00    +0.000 C 
ATOM      8  C   UNL     1      23.772   1.689 190.046  0.00  0.00    +0.000 A 
ATOM      9  C   UNL     1      22.713   3.727 190.107  0.00  0.00    +0.000 C 
ATOM     10  C   UNL     1      20.600   0.636 191.902  0.00  0.00    +0.000 C 
ATOM     11  C   UNL     1      23.830   3.103 189.534  0.00  0.00    +0.000 A 
ATOM     12  C   UNL     1      22.031   0.395 191.323  0.00  0.00    +0.000 C 
ATOM     13  C   UNL     1      20.441   2.615 190.367  0.00  0.00    +0.000 C 
ATOM     14  C   UNL     1      25.005   0.868 190.103  0.00  0.00    +0.000 A 
ATOM     15  C   UNL     1      25.043   3.560 189.411  0.00  0.00    +0.000 A 
ATOM     16  C   UNL     1      26.174   1.653 189.814  0.00  0.00    +0.000 A 
ATOM     17  C   UNL     1      18.515   0.953 190.500  0.00  0.00    +0.000 C 
ATOM     18  C   UNL     1      26.376   2.803 189.524  0.00  0.00    +0.000 A 
ENDROOT
BRANCH  14  19
ATOM     19  O   UNL     1      25.100  -0.280 190.835  0.00  0.00    +0.000 OA
ATOM     20  H   UNL     1      25.898  -0.311 191.400  0.00  0.00    +0.000 HD
ENDBRANCH  14  19
BRANCH  10  21
ATOM     21  C   UNL     1      19.968  -0.653 192.292  0.00  0.00    +0.000 C 
BRANCH  21  22
ATOM     22  O   UNL     1      19.394  -1.802 192.658  0.00  0.00    +0.000 OA
ATOM     23  H   UNL     1      19.618  -2.031 193.580  0.00  0.00    +0.000 HD
ENDBRANCH  21  22
ENDBRANCH  10  21
TORSDOF 3
ENDMDL
MODEL 7
REMARK VINA RESULT:      -6.3     33.149     34.551
REMARK  Name = 6223_Gliotoxin.pdbqt.pdb
REMARK  3 active torsions:
REMARK  status: ('A' for Active; 'I' for Inactive)
REMARK    1  A    between atoms: C_10  and  C_21
REMARK    2  A    between atoms: C_14  and  O_19
REMARK    3  A    between atoms: C_21  and  O_22
REMARK                            x       y       z     vdW  Elec       q    Type
REMARK                         _______ _______ _______ _____ _____    ______ ____
ROOT
ATOM      1  S   UNL     1      41.231 -22.728 170.384  0.00  0.00    +0.000 S 
ATOM      2  S   UNL     1      42.055 -21.430 169.007  0.00  0.00    +0.000 S 
ATOM      3  O   UNL     1      41.069 -18.475 170.860  0.00  0.00    +0.000 OA
ATOM      4  O   UNL     1      37.897 -22.333 169.220  0.00  0.00    +0.000 OA
ATOM      5  N   UNL     1      39.995 -20.461 171.293  0.00  0.00    +0.000 N 
ATOM      6  N   UNL     1      39.430 -20.647 168.641  0.00  0.00    +0.000 N 
ATOM      7  C   UNL     1      39.691 -21.833 170.781  0.00  0.00    +0.000 C 
ATOM      8  C   UNL     1      39.605 -20.316 172.625  0.00  0.00    +0.000 A 
ATOM      9  C   UNL     1      38.983 -22.412 171.920  0.00  0.00    +0.000 C 
ATOM     10  C   UNL     1      40.772 -20.074 168.992  0.00  0.00    +0.000 C 
ATOM     11  C   UNL     1      38.850 -21.556 173.021  0.00  0.00    +0.000 A 
ATOM     12  C   UNL     1      40.634 -19.553 170.458  0.00  0.00    +0.000 C 
ATOM     13  C   UNL     1      38.878 -21.642 169.499  0.00  0.00    +0.000 C 
ATOM     14  C   UNL     1      40.136 -19.405 173.666  0.00  0.00    +0.000 A 
ATOM     15  C   UNL     1      38.948 -21.839 174.288  0.00  0.00    +0.000 A 
ATOM     16  C   UNL     1      40.000 -19.971 174.980  0.00  0.00    +0.000 A 
ATOM     17  C   UNL     1      38.853 -20.273 167.350  0.00  0.00    +0.000 C 
ATOM     18  C   UNL     1      39.544 -20.991 175.423  0.00  0.00    +0.000 A 
ENDROOT
BRANCH  14  19
ATOM     19  O   UNL     1      41.085 -18.458 173.409  0.00  0.00    +0.000 OA
ATOM     20  H   UNL     1      40.750 -17.543 173.500  0.00  0.00    +0.000 HD
ENDBRANCH  14  19
BRANCH  10  21
ATOM     21  C   UNL     1      41.241 -18.988 168.090  0.00  0.00    +0.000 C 
BRANCH  21  22
ATOM     22  O   UNL     1      41.652 -18.020 167.267  0.00  0.00    +0.000 OA
ATOM     23  H   UNL     1      40.906 -17.458 166.982  0.00  0.00    +0.000 HD
ENDBRANCH  21  22
ENDBRANCH  10  21
TORSDOF 3
ENDMDL
MODEL 8
REMARK VINA RESULT:      -6.2     20.738     22.950
REMARK  Name = 6223_Gliotoxin.pdbqt.pdb
REMARK  3 active torsions:
REMARK  status: ('A' for Active; 'I' for Inactive)
REMARK    1  A    between atoms: C_10  and  C_21
REMARK    2  A    between atoms: C_14  and  O_19
REMARK    3  A    between atoms: C_21  and  O_22
REMARK                            x       y       z     vdW  Elec       q    Type
REMARK                         _______ _______ _______ _____ _____    ______ ____
ROOT
ATOM      1  S   UNL     1      23.425  11.594 167.549  0.00  0.00    +0.000 S 
ATOM      2  S   UNL     1      21.380  11.497 167.807  0.00  0.00    +0.000 S 
ATOM      3  O   UNL     1      21.616   9.259 170.649  0.00  0.00    +0.000 OA
ATOM      4  O   UNL     1      23.672   8.469 165.875  0.00  0.00    +0.000 OA
ATOM      5  N   UNL     1      23.412   9.430 169.224  0.00  0.00    +0.000 N 
ATOM      6  N   UNL     1      21.740   8.832 167.167  0.00  0.00    +0.000 N 
ATOM      7  C   UNL     1      23.868   9.852 167.864  0.00  0.00    +0.000 C 
ATOM      8  C   UNL     1      24.493   9.132 170.054  0.00  0.00    +0.000 A 
ATOM      9  C   UNL     1      25.311   9.650 167.971  0.00  0.00    +0.000 C 
ATOM     10  C   UNL     1      21.169   9.696 168.252  0.00  0.00    +0.000 C 
ATOM     11  C   UNL     1      25.743   9.177 169.217  0.00  0.00    +0.000 A 
ATOM     12  C   UNL     1      22.052   9.425 169.512  0.00  0.00    +0.000 C 
ATOM     13  C   UNL     1      23.127   8.959 166.866  0.00  0.00    +0.000 C 
ATOM     14  C   UNL     1      24.586   9.187 171.532  0.00  0.00    +0.000 A 
ATOM     15  C   UNL     1      26.805   9.512 169.890  0.00  0.00    +0.000 A 
ATOM     16  C   UNL     1      25.926   9.477 171.965  0.00  0.00    +0.000 A 
ATOM     17  C   UNL     1      20.803   8.043 166.369  0.00  0.00    +0.000 C 
ATOM     18  C   UNL     1      26.977   9.664 171.410  0.00  0.00    +0.000 A 
ENDROOT
BRANCH  14  19
ATOM     19  O   UNL     1      23.518   9.472 172.334  0.00  0.00    +0.000 OA
ATOM     20  H   UNL     1      22.663   9.198 171.946  0.00  0.00    +0.000 HD
ENDBRANCH  14  19
BRANCH  10  21
ATOM     21  C   UNL     1      19.733   9.449 168.556  0.00  0.00    +0.000 C 
BRANCH  21  22
ATOM     22  O   UNL     1      18.450   9.215 168.842  0.00  0.00    +0.000 OA
ATOM     23  H   UNL     1      18.310   9.141 169.805  0.00  0.00    +0.000 HD
ENDBRANCH  21  22
ENDBRANCH  10  21
TORSDOF 3
ENDMDL
MODEL 9
REMARK VINA RESULT:      -6.0      2.447      3.480
REMARK  Name = 6223_Gliotoxin.pdbqt.pdb
REMARK  3 active torsions:
REMARK  status: ('A' for Active; 'I' for Inactive)
REMARK    1  A    between atoms: C_10  and  C_21
REMARK    2  A    between atoms: C_14  and  O_19
REMARK    3  A    between atoms: C_21  and  O_22
REMARK                            x       y       z     vdW  Elec       q    Type
REMARK                         _______ _______ _______ _____ _____    ______ ____
ROOT
ATOM      1  S   UNL     1      23.111   2.727 192.996  0.00  0.00    +0.000 S 
ATOM      2  S   UNL     1      24.653   2.570 191.633  0.00  0.00    +0.000 S 
ATOM      3  O   UNL     1      22.592   0.924 189.146  0.00  0.00    +0.000 OA
ATOM      4  O   UNL     1      23.342  -0.640 194.109  0.00  0.00    +0.000 OA
ATOM      5  N   UNL     1      21.897   0.919 191.337  0.00  0.00    +0.000 N 
ATOM      6  N   UNL     1      24.302  -0.144 192.020  0.00  0.00    +0.000 N 
ATOM      7  C   UNL     1      22.314   1.102 192.762  0.00  0.00    +0.000 C 
ATOM      8  C   UNL     1      20.509   0.842 191.219  0.00  0.00    +0.000 A 
ATOM      9  C   UNL     1      21.030   1.001 193.451  0.00  0.00    +0.000 C 
ATOM     10  C   UNL     1      24.320   0.877 190.920  0.00  0.00    +0.000 C 
ATOM     11  C   UNL     1      19.930   0.795 192.607  0.00  0.00    +0.000 A 
ATOM     12  C   UNL     1      22.868   0.896 190.344  0.00  0.00    +0.000 C 
ATOM     13  C   UNL     1      23.333  -0.002 193.054  0.00  0.00    +0.000 C 
ATOM     14  C   UNL     1      19.643   1.180 190.064  0.00  0.00    +0.000 A 
ATOM     15  C   UNL     1      18.736   1.308 192.688  0.00  0.00    +0.000 A 
ATOM     16  C   UNL     1      18.342   1.618 190.492  0.00  0.00    +0.000 A 
ATOM     17  C   UNL     1      25.392  -1.119 192.053  0.00  0.00    +0.000 C 
ATOM     18  C   UNL     1      17.798   1.753 191.555  0.00  0.00    +0.000 A 
ENDROOT
BRANCH  14  19
ATOM     19  O   UNL     1      20.139   1.553 188.848  0.00  0.00    +0.000 OA
ATOM     20  H   UNL     1      20.770   2.300 188.903  0.00  0.00    +0.000 HD
ENDBRANCH  14  19
BRANCH  10  21
ATOM     21  C   UNL     1      25.310   0.614 189.841  0.00  0.00    +0.000 C 
BRANCH  21  22
ATOM     22  O   UNL     1      26.207   0.395 188.877  0.00  0.00    +0.000 OA
ATOM     23  H   UNL     1      25.813   0.515 187.993  0.00  0.00    +0.000 HD
ENDBRANCH  21  22
ENDBRANCH  10  21
TORSDOF 3
ENDMDL
