MODEL 1
REMARK VINA RESULT:      -7.2      0.000      0.000
REMARK  Name = 6256_Trifluridine.pdbqt.pdb
REMARK  5 active torsions:
REMARK  status: ('A' for Active; 'I' for Inactive)
REMARK    1  A    between atoms: N_3  and  C1*_11
REMARK    2  A    between atoms: C_7  and  C_23
REMARK    3  A    between atoms: C3*_12  and  O3*_15
REMARK    4  A    between atoms: C4*_14  and  C5*_17
REMARK    5  A    between atoms: C5*_17  and  O5*_18
REMARK                            x       y       z     vdW  Elec       q    Type
REMARK                         _______ _______ _______ _____ _____    ______ ____
ROOT
ATOM      1  O   UNL     1      19.633   3.151 185.376  0.00  0.00    +0.000 OA
ATOM      2  O   UNL     1      23.624   5.412 185.514  0.00  0.00    +0.000 OA
ATOM      3  N   UNL     1      20.704   3.392 187.475  0.00  0.00    +0.000 N 
ATOM      4  N   UNL     1      21.629   4.279 185.511  0.00  0.00    +0.000 N 
ATOM      5  C   UNL     1      21.808   3.925 188.033  0.00  0.00    +0.000 A 
ATOM      6  C   UNL     1      20.552   3.555 186.079  0.00  0.00    +0.000 A 
ATOM      7  C   UNL     1      22.832   4.588 187.605  0.00  0.00    +0.000 A 
ATOM      8  C   UNL     1      22.761   4.812 186.138  0.00  0.00    +0.000 A 
ATOM      9  H   UNL     1      21.568   4.421 184.512  0.00  0.00    +0.000 HD
ENDROOT
BRANCH   3  11
ATOM     10  O4* UNL     1      20.217   1.988 189.382  0.00  0.00    +0.000 OA
ATOM     11  C1* UNL     1      19.812   2.730 188.268  0.00  0.00    +0.000 A 
ATOM     12  C3* UNL     1      17.916   1.837 189.165  0.00  0.00    +0.000 A 
ATOM     13  C2* UNL     1      18.414   2.636 188.121  0.00  0.00    +0.000 A 
ATOM     14  C4* UNL     1      19.060   1.431 189.943  0.00  0.00    +0.000 A 
BRANCH  12  15
ATOM     15  O3* UNL     1      16.817   1.032 189.058  0.00  0.00    +0.000 OA
ATOM     16  H3* UNL     1      16.771   0.404 189.800  0.00  0.00    +0.000 HD
ENDBRANCH  12  15
BRANCH  14  17
ATOM     17  C5* UNL     1      19.105   0.459 190.961  0.00  0.00    +0.000 C 
BRANCH  17  18
ATOM     18  O5* UNL     1      19.145  -0.462 191.919  0.00  0.00    +0.000 OA
ATOM     19  H5* UNL     1      19.944  -1.009 191.827  0.00  0.00    +0.000 HD
ENDBRANCH  17  18
ENDBRANCH  14  17
ENDBRANCH   3  11
BRANCH   7  23
ATOM     20  F   UNL     1      24.150   6.441 188.202  0.00  0.00    +0.000 F 
ATOM     21  F   UNL     1      23.903   4.860 189.671  0.00  0.00    +0.000 F 
ATOM     22  F   UNL     1      25.158   4.519 187.932  0.00  0.00    +0.000 F 
ATOM     23  C   UNL     1      24.000   5.099 188.333  0.00  0.00    +0.000 C 
ENDBRANCH   7  23
TORSDOF 5
ENDMDL
MODEL 2
REMARK VINA RESULT:      -7.0      3.252      4.319
REMARK  Name = 6256_Trifluridine.pdbqt.pdb
REMARK  5 active torsions:
REMARK  status: ('A' for Active; 'I' for Inactive)
REMARK    1  A    between atoms: N_3  and  C1*_11
REMARK    2  A    between atoms: C_7  and  C_23
REMARK    3  A    between atoms: C3*_12  and  O3*_15
REMARK    4  A    between atoms: C4*_14  and  C5*_17
REMARK    5  A    between atoms: C5*_17  and  O5*_18
REMARK                            x       y       z     vdW  Elec       q    Type
REMARK                         _______ _______ _______ _____ _____    ______ ____
ROOT
ATOM      1  O   UNL     1      23.179   0.261 190.056  0.00  0.00    +0.000 OA
ATOM      2  O   UNL     1      22.389   2.565 186.167  0.00  0.00    +0.000 OA
ATOM      3  N   UNL     1      21.146   1.460 189.866  0.00  0.00    +0.000 N 
ATOM      4  N   UNL     1      22.724   1.428 188.132  0.00  0.00    +0.000 N 
ATOM      5  C   UNL     1      20.467   2.244 189.005  0.00  0.00    +0.000 A 
ATOM      6  C   UNL     1      22.403   0.979 189.436  0.00  0.00    +0.000 A 
ATOM      7  C   UNL     1      20.674   2.705 187.815  0.00  0.00    +0.000 A 
ATOM      8  C   UNL     1      21.981   2.249 187.275  0.00  0.00    +0.000 A 
ATOM      9  H   UNL     1      23.616   1.112 187.778  0.00  0.00    +0.000 HD
ENDROOT
BRANCH   3  11
ATOM     10  O4* UNL     1      21.144   1.675 192.275  0.00  0.00    +0.000 OA
ATOM     11  C1* UNL     1      20.597   1.182 191.085  0.00  0.00    +0.000 A 
ATOM     12  C3* UNL     1      19.295   0.371 192.770  0.00  0.00    +0.000 A 
ATOM     13  C2* UNL     1      19.477   0.379 191.376  0.00  0.00    +0.000 A 
ATOM     14  C4* UNL     1      20.353   1.181 193.320  0.00  0.00    +0.000 A 
BRANCH  12  15
ATOM     15  O3* UNL     1      18.780  -0.683 193.471  0.00  0.00    +0.000 OA
ATOM     16  H3* UNL     1      19.232  -0.788 194.326  0.00  0.00    +0.000 HD
ENDBRANCH  12  15
BRANCH  14  17
ATOM     17  C5* UNL     1      20.723   1.307 194.673  0.00  0.00    +0.000 C 
BRANCH  17  18
ATOM     18  O5* UNL     1      21.070   1.423 195.952  0.00  0.00    +0.000 OA
ATOM     19  H5* UNL     1      20.460   0.914 196.513  0.00  0.00    +0.000 HD
ENDBRANCH  17  18
ENDBRANCH  14  17
ENDBRANCH   3  11
BRANCH   7  23
ATOM     20  F   UNL     1      19.447   2.993 185.831  0.00  0.00    +0.000 F 
ATOM     21  F   UNL     1      18.704   3.958 187.629  0.00  0.00    +0.000 F 
ATOM     22  F   UNL     1      20.480   4.738 186.653  0.00  0.00    +0.000 F 
ATOM     23  C   UNL     1      19.845   3.587 186.984  0.00  0.00    +0.000 C 
ENDBRANCH   7  23
TORSDOF 5
ENDMDL
MODEL 3
REMARK VINA RESULT:      -6.7      3.525      4.492
REMARK  Name = 6256_Trifluridine.pdbqt.pdb
REMARK  5 active torsions:
REMARK  status: ('A' for Active; 'I' for Inactive)
REMARK    1  A    between atoms: N_3  and  C1*_11
REMARK    2  A    between atoms: C_7  and  C_23
REMARK    3  A    between atoms: C3*_12  and  O3*_15
REMARK    4  A    between atoms: C4*_14  and  C5*_17
REMARK    5  A    between atoms: C5*_17  and  O5*_18
REMARK                            x       y       z     vdW  Elec       q    Type
REMARK                         _______ _______ _______ _____ _____    ______ ____
ROOT
ATOM      1  O   UNL     1      24.781   3.532 191.315  0.00  0.00    +0.000 OA
ATOM      2  O   UNL     1      23.136   5.827 187.697  0.00  0.00    +0.000 OA
ATOM      3  N   UNL     1      22.484   3.289 190.793  0.00  0.00    +0.000 N 
ATOM      4  N   UNL     1      23.901   4.649 189.513  0.00  0.00    +0.000 N 
ATOM      5  C   UNL     1      21.560   3.707 189.905  0.00  0.00    +0.000 A 
ATOM      6  C   UNL     1      23.799   3.779 190.626  0.00  0.00    +0.000 A 
ATOM      7  C   UNL     1      21.556   4.489 188.876  0.00  0.00    +0.000 A 
ATOM      8  C   UNL     1      22.904   5.057 188.618  0.00  0.00    +0.000 A 
ATOM      9  H   UNL     1      24.823   5.029 189.351  0.00  0.00    +0.000 HD
ENDROOT
BRANCH   3  11
ATOM     10  O4* UNL     1      22.310   1.055 191.703  0.00  0.00    +0.000 OA
ATOM     11  C1* UNL     1      22.108   2.436 191.791  0.00  0.00    +0.000 A 
ATOM     12  C3* UNL     1      21.260   1.542 193.708  0.00  0.00    +0.000 A 
ATOM     13  C2* UNL     1      21.460   2.742 193.004  0.00  0.00    +0.000 A 
ATOM     14  C4* UNL     1      21.791   0.492 192.876  0.00  0.00    +0.000 A 
BRANCH  12  15
ATOM     15  O3* UNL     1      20.205   1.311 194.545  0.00  0.00    +0.000 OA
ATOM     16  H3* UNL     1      19.458   1.899 194.336  0.00  0.00    +0.000 HD
ENDBRANCH  12  15
BRANCH  14  17
ATOM     17  C5* UNL     1      21.638  -0.898 193.045  0.00  0.00    +0.000 C 
BRANCH  17  18
ATOM     18  O5* UNL     1      21.490  -2.210 193.204  0.00  0.00    +0.000 OA
ATOM     19  H5* UNL     1      22.288  -2.677 192.903  0.00  0.00    +0.000 HD
ENDBRANCH  17  18
ENDBRANCH  14  17
ENDBRANCH   3  11
BRANCH   7  23
ATOM     20  F   UNL     1      20.729   4.669 186.682  0.00  0.00    +0.000 F 
ATOM     21  F   UNL     1      19.318   4.178 188.258  0.00  0.00    +0.000 F 
ATOM     22  F   UNL     1      20.118   6.192 188.130  0.00  0.00    +0.000 F 
ATOM     23  C   UNL     1      20.451   4.885 187.993  0.00  0.00    +0.000 C 
ENDBRANCH   7  23
TORSDOF 5
ENDMDL
MODEL 4
REMARK VINA RESULT:      -6.7      3.830      4.907
REMARK  Name = 6256_Trifluridine.pdbqt.pdb
REMARK  5 active torsions:
REMARK  status: ('A' for Active; 'I' for Inactive)
REMARK    1  A    between atoms: N_3  and  C1*_11
REMARK    2  A    between atoms: C_7  and  C_23
REMARK    3  A    between atoms: C3*_12  and  O3*_15
REMARK    4  A    between atoms: C4*_14  and  C5*_17
REMARK    5  A    between atoms: C5*_17  and  O5*_18
REMARK                            x       y       z     vdW  Elec       q    Type
REMARK                         _______ _______ _______ _____ _____    ______ ____
ROOT
ATOM      1  O   UNL     1      23.931   3.733 190.687  0.00  0.00    +0.000 OA
ATOM      2  O   UNL     1      20.941   5.652 187.782  0.00  0.00    +0.000 OA
ATOM      3  N   UNL     1      22.246   2.356 189.753  0.00  0.00    +0.000 N 
ATOM      4  N   UNL     1      22.410   4.634 189.221  0.00  0.00    +0.000 N 
ATOM      5  C   UNL     1      21.196   2.409 188.910  0.00  0.00    +0.000 A 
ATOM      6  C   UNL     1      22.956   3.559 189.965  0.00  0.00    +0.000 A 
ATOM      7  C   UNL     1      20.628   3.327 188.199  0.00  0.00    +0.000 A 
ATOM      8  C   UNL     1      21.309   4.637 188.357  0.00  0.00    +0.000 A 
ATOM      9  H   UNL     1      22.882   5.519 189.340  0.00  0.00    +0.000 HD
ENDROOT
BRANCH   3  11
ATOM     10  O4* UNL     1      21.664   0.504 191.196  0.00  0.00    +0.000 OA
ATOM     11  C1* UNL     1      22.559   1.169 190.350  0.00  0.00    +0.000 A 
ATOM     12  C3* UNL     1      23.631  -0.711 191.066  0.00  0.00    +0.000 A 
ATOM     13  C2* UNL     1      23.763   0.442 190.272  0.00  0.00    +0.000 A 
ATOM     14  C4* UNL     1      22.312  -0.654 191.645  0.00  0.00    +0.000 A 
BRANCH  12  15
ATOM     15  O3* UNL     1      24.665  -1.308 191.730  0.00  0.00    +0.000 OA
ATOM     16  H3* UNL     1      24.803  -0.898 192.602  0.00  0.00    +0.000 HD
ENDBRANCH  12  15
BRANCH  14  17
ATOM     17  C5* UNL     1      21.789  -1.464 192.672  0.00  0.00    +0.000 C 
BRANCH  17  18
ATOM     18  O5* UNL     1      21.295  -2.225 193.644  0.00  0.00    +0.000 OA
ATOM     19  H5* UNL     1      21.917  -2.942 193.857  0.00  0.00    +0.000 HD
ENDBRANCH  17  18
ENDBRANCH  14  17
ENDBRANCH   3  11
BRANCH   7  23
ATOM     20  F   UNL     1      19.699   3.723 186.076  0.00  0.00    +0.000 F 
ATOM     21  F   UNL     1      19.022   1.970 187.165  0.00  0.00    +0.000 F 
ATOM     22  F   UNL     1      18.392   3.942 187.817  0.00  0.00    +0.000 F 
ATOM     23  C   UNL     1      19.450   3.253 187.324  0.00  0.00    +0.000 C 
ENDBRANCH   7  23
TORSDOF 5
ENDMDL
MODEL 5
REMARK VINA RESULT:      -6.5      4.189      6.484
REMARK  Name = 6256_Trifluridine.pdbqt.pdb
REMARK  5 active torsions:
REMARK  status: ('A' for Active; 'I' for Inactive)
REMARK    1  A    between atoms: N_3  and  C1*_11
REMARK    2  A    between atoms: C_7  and  C_23
REMARK    3  A    between atoms: C3*_12  and  O3*_15
REMARK    4  A    between atoms: C4*_14  and  C5*_17
REMARK    5  A    between atoms: C5*_17  and  O5*_18
REMARK                            x       y       z     vdW  Elec       q    Type
REMARK                         _______ _______ _______ _____ _____    ______ ____
ROOT
ATOM      1  O   UNL     1      20.283  -0.186 192.645  0.00  0.00    +0.000 OA
ATOM      2  O   UNL     1      16.930   1.264 189.867  0.00  0.00    +0.000 OA
ATOM      3  N   UNL     1      20.891   1.032 190.707  0.00  0.00    +0.000 N 
ATOM      4  N   UNL     1      18.650   0.572 191.220  0.00  0.00    +0.000 N 
ATOM      5  C   UNL     1      20.344   1.642 189.637  0.00  0.00    +0.000 A 
ATOM      6  C   UNL     1      20.001   0.420 191.618  0.00  0.00    +0.000 A 
ATOM      7  C   UNL     1      19.145   1.828 189.193  0.00  0.00    +0.000 A 
ATOM      8  C   UNL     1      18.132   1.217 190.090  0.00  0.00    +0.000 A 
ATOM      9  H   UNL     1      17.972   0.150 191.838  0.00  0.00    +0.000 HD
ENDROOT
BRANCH   3  11
ATOM     10  O4* UNL     1      22.938   2.106 191.419  0.00  0.00    +0.000 OA
ATOM     11  C1* UNL     1      22.249   1.030 190.849  0.00  0.00    +0.000 A 
ATOM     12  C3* UNL     1      24.460   0.480 190.787  0.00  0.00    +0.000 A 
ATOM     13  C2* UNL     1      23.168   0.039 190.452  0.00  0.00    +0.000 A 
ATOM     14  C4* UNL     1      24.300   1.781 191.386  0.00  0.00    +0.000 A 
BRANCH  12  15
ATOM     15  O3* UNL     1      25.586   0.165 190.080  0.00  0.00    +0.000 OA
ATOM     16  H3* UNL     1      25.413  -0.558 189.452  0.00  0.00    +0.000 HD
ENDBRANCH  12  15
BRANCH  14  17
ATOM     17  C5* UNL     1      25.308   2.716 191.692  0.00  0.00    +0.000 C 
BRANCH  17  18
ATOM     18  O5* UNL     1      26.261   3.596 191.985  0.00  0.00    +0.000 OA
ATOM     19  H5* UNL     1      26.370   4.229 191.254  0.00  0.00    +0.000 HD
ENDBRANCH  17  18
ENDBRANCH  14  17
ENDBRANCH   3  11
BRANCH   7  23
ATOM     20  F   UNL     1      18.533   3.843 188.148  0.00  0.00    +0.000 F 
ATOM     21  F   UNL     1      19.564   2.355 186.949  0.00  0.00    +0.000 F 
ATOM     22  F   UNL     1      17.499   2.019 187.527  0.00  0.00    +0.000 F 
ATOM     23  C   UNL     1      18.682   2.506 187.975  0.00  0.00    +0.000 C 
ENDBRANCH   7  23
TORSDOF 5
ENDMDL
MODEL 6
REMARK VINA RESULT:      -6.4      4.016      6.168
REMARK  Name = 6256_Trifluridine.pdbqt.pdb
REMARK  5 active torsions:
REMARK  status: ('A' for Active; 'I' for Inactive)
REMARK    1  A    between atoms: N_3  and  C1*_11
REMARK    2  A    between atoms: C_7  and  C_23
REMARK    3  A    between atoms: C3*_12  and  O3*_15
REMARK    4  A    between atoms: C4*_14  and  C5*_17
REMARK    5  A    between atoms: C5*_17  and  O5*_18
REMARK                            x       y       z     vdW  Elec       q    Type
REMARK                         _______ _______ _______ _____ _____    ______ ____
ROOT
ATOM      1  O   UNL     1      21.716   0.373 191.448  0.00  0.00    +0.000 OA
ATOM      2  O   UNL     1      18.027   1.843 189.147  0.00  0.00    +0.000 OA
ATOM      3  N   UNL     1      22.025   2.045 189.801  0.00  0.00    +0.000 N 
ATOM      4  N   UNL     1      19.907   1.154 190.268  0.00  0.00    +0.000 N 
ATOM      5  C   UNL     1      21.332   2.775 188.904  0.00  0.00    +0.000 A 
ATOM      6  C   UNL     1      21.288   1.129 190.584  0.00  0.00    +0.000 A 
ATOM      7  C   UNL     1      20.094   2.865 188.545  0.00  0.00    +0.000 A 
ATOM      8  C   UNL     1      19.234   1.933 189.320  0.00  0.00    +0.000 A 
ATOM      9  H   UNL     1      19.335   0.515 190.801  0.00  0.00    +0.000 HD
ENDROOT
BRANCH   3  11
ATOM     10  O4* UNL     1      24.284   1.258 189.446  0.00  0.00    +0.000 OA
ATOM     11  C1* UNL     1      23.376   2.221 189.899  0.00  0.00    +0.000 A 
ATOM     12  C3* UNL     1      25.453   3.040 190.353  0.00  0.00    +0.000 A 
ATOM     13  C2* UNL     1      24.077   3.305 190.462  0.00  0.00    +0.000 A 
ATOM     14  C4* UNL     1      25.567   1.749 189.721  0.00  0.00    +0.000 A 
BRANCH  12  15
ATOM     15  O3* UNL     1      26.391   3.469 191.250  0.00  0.00    +0.000 OA
ATOM     16  H3* UNL     1      26.265   4.410 191.463  0.00  0.00    +0.000 HD
ENDBRANCH  12  15
BRANCH  14  17
ATOM     17  C5* UNL     1      26.725   0.959 189.586  0.00  0.00    +0.000 C 
BRANCH  17  18
ATOM     18  O5* UNL     1      27.817   0.209 189.461  0.00  0.00    +0.000 OA
ATOM     19  H5* UNL     1      28.600   0.706 189.753  0.00  0.00    +0.000 HD
ENDBRANCH  17  18
ENDBRANCH  14  17
ENDBRANCH   3  11
BRANCH   7  23
ATOM     20  F   UNL     1      18.802   2.973 186.584  0.00  0.00    +0.000 F 
ATOM     21  F   UNL     1      18.547   4.554 188.051  0.00  0.00    +0.000 F 
ATOM     22  F   UNL     1      20.362   4.482 186.861  0.00  0.00    +0.000 F 
ATOM     23  C   UNL     1      19.466   3.703 187.516  0.00  0.00    +0.000 C 
ENDBRANCH   7  23
TORSDOF 5
ENDMDL
MODEL 7
REMARK VINA RESULT:      -6.3     30.271     31.774
REMARK  Name = 6256_Trifluridine.pdbqt.pdb
REMARK  5 active torsions:
REMARK  status: ('A' for Active; 'I' for Inactive)
REMARK    1  A    between atoms: N_3  and  C1*_11
REMARK    2  A    between atoms: C_7  and  C_23
REMARK    3  A    between atoms: C3*_12  and  O3*_15
REMARK    4  A    between atoms: C4*_14  and  C5*_17
REMARK    5  A    between atoms: C5*_17  and  O5*_18
REMARK                            x       y       z     vdW  Elec       q    Type
REMARK                         _______ _______ _______ _____ _____    ______ ____
ROOT
ATOM      1  O   UNL     1      41.523  -9.030 163.402  0.00  0.00    +0.000 OA
ATOM      2  O   UNL     1      44.555  -7.809 166.624  0.00  0.00    +0.000 OA
ATOM      3  N   UNL     1      40.801  -7.555 165.108  0.00  0.00    +0.000 N 
ATOM      4  N   UNL     1      42.996  -8.377 165.039  0.00  0.00    +0.000 N 
ATOM      5  C   UNL     1      41.253  -6.927 166.212  0.00  0.00    +0.000 A 
ATOM      6  C   UNL     1      41.723  -8.373 164.417  0.00  0.00    +0.000 A 
ATOM      7  C   UNL     1      42.376  -6.872 166.849  0.00  0.00    +0.000 A 
ATOM      8  C   UNL     1      43.415  -7.706 166.193  0.00  0.00    +0.000 A 
ATOM      9  H   UNL     1      43.692  -8.950 164.583  0.00  0.00    +0.000 HD
ENDROOT
BRANCH   3  11
ATOM     10  O4* UNL     1      38.466  -8.173 165.223  0.00  0.00    +0.000 OA
ATOM     11  C1* UNL     1      39.502  -7.376 164.727  0.00  0.00    +0.000 A 
ATOM     12  C3* UNL     1      37.594  -6.644 163.718  0.00  0.00    +0.000 A 
ATOM     13  C2* UNL     1      38.984  -6.448 163.802  0.00  0.00    +0.000 A 
ATOM     14  C4* UNL     1      37.285  -7.734 164.610  0.00  0.00    +0.000 A 
BRANCH  12  15
ATOM     15  O3* UNL     1      36.855  -6.429 162.589  0.00  0.00    +0.000 OA
ATOM     16  H3* UNL     1      36.118  -5.818 162.766  0.00  0.00    +0.000 HD
ENDBRANCH  12  15
BRANCH  14  17
ATOM     17  C5* UNL     1      36.070  -8.438 164.717  0.00  0.00    +0.000 C 
BRANCH  17  18
ATOM     18  O5* UNL     1      34.921  -9.100 164.816  0.00  0.00    +0.000 OA
ATOM     19  H5* UNL     1      34.282  -8.587 165.340  0.00  0.00    +0.000 HD
ENDBRANCH  17  18
ENDBRANCH  14  17
ENDBRANCH   3  11
BRANCH   7  23
ATOM     20  F   UNL     1      43.578  -5.116 167.850  0.00  0.00    +0.000 F 
ATOM     21  F   UNL     1      41.635  -5.614 168.682  0.00  0.00    +0.000 F 
ATOM     22  F   UNL     1      43.311  -6.956 169.004  0.00  0.00    +0.000 F 
ATOM     23  C   UNL     1      42.732  -6.151 168.079  0.00  0.00    +0.000 C 
ENDBRANCH   7  23
TORSDOF 5
ENDMDL
MODEL 8
REMARK VINA RESULT:      -6.1      4.102      6.557
REMARK  Name = 6256_Trifluridine.pdbqt.pdb
REMARK  5 active torsions:
REMARK  status: ('A' for Active; 'I' for Inactive)
REMARK    1  A    between atoms: N_3  and  C1*_11
REMARK    2  A    between atoms: C_7  and  C_23
REMARK    3  A    between atoms: C3*_12  and  O3*_15
REMARK    4  A    between atoms: C4*_14  and  C5*_17
REMARK    5  A    between atoms: C5*_17  and  O5*_18
REMARK                            x       y       z     vdW  Elec       q    Type
REMARK                         _______ _______ _______ _____ _____    ______ ____
ROOT
ATOM      1  O   UNL     1      23.038   1.283 191.583  0.00  0.00    +0.000 OA
ATOM      2  O   UNL     1      19.469   3.461 189.691  0.00  0.00    +0.000 OA
ATOM      3  N   UNL     1      23.485   3.088 190.115  0.00  0.00    +0.000 N 
ATOM      4  N   UNL     1      21.294   2.417 190.611  0.00  0.00    +0.000 N 
ATOM      5  C   UNL     1      22.852   3.998 189.350  0.00  0.00    +0.000 A 
ATOM      6  C   UNL     1      22.673   2.184 190.836  0.00  0.00    +0.000 A 
ATOM      7  C   UNL     1      21.620   4.283 189.081  0.00  0.00    +0.000 A 
ATOM      8  C   UNL     1      20.684   3.380 189.798  0.00  0.00    +0.000 A 
ATOM      9  H   UNL     1      20.669   1.795 191.103  0.00  0.00    +0.000 HD
ENDROOT
BRANCH   3  11
ATOM     10  O4* UNL     1      25.565   3.293 191.333  0.00  0.00    +0.000 OA
ATOM     11  C1* UNL     1      24.850   3.081 190.149  0.00  0.00    +0.000 A 
ATOM     12  C3* UNL     1      27.057   2.994 189.587  0.00  0.00    +0.000 A 
ATOM     13  C2* UNL     1      25.750   2.908 189.078  0.00  0.00    +0.000 A 
ATOM     14  C4* UNL     1      26.925   3.243 191.001  0.00  0.00    +0.000 A 
BRANCH  12  15
ATOM     15  O3* UNL     1      28.124   3.479 188.884  0.00  0.00    +0.000 OA
ATOM     16  H3* UNL     1      28.072   3.218 187.948  0.00  0.00    +0.000 HD
ENDBRANCH  12  15
BRANCH  14  17
ATOM     17  C5* UNL     1      27.939   3.615 191.906  0.00  0.00    +0.000 C 
BRANCH  17  18
ATOM     18  O5* UNL     1      28.895   3.969 192.760  0.00  0.00    +0.000 OA
ATOM     19  H5* UNL     1      29.713   3.478 192.571  0.00  0.00    +0.000 HD
ENDBRANCH  17  18
ENDBRANCH  14  17
ENDBRANCH   3  11
BRANCH   7  23
ATOM     20  F   UNL     1      22.017   6.054 187.587  0.00  0.00    +0.000 F 
ATOM     21  F   UNL     1      20.323   4.755 187.187  0.00  0.00    +0.000 F 
ATOM     22  F   UNL     1      20.227   6.160 188.840  0.00  0.00    +0.000 F 
ATOM     23  C   UNL     1      21.059   5.308 188.191  0.00  0.00    +0.000 C 
ENDBRANCH   7  23
TORSDOF 5
ENDMDL
MODEL 9
REMARK VINA RESULT:      -6.1      4.101      5.035
REMARK  Name = 6256_Trifluridine.pdbqt.pdb
REMARK  5 active torsions:
REMARK  status: ('A' for Active; 'I' for Inactive)
REMARK    1  A    between atoms: N_3  and  C1*_11
REMARK    2  A    between atoms: C_7  and  C_23
REMARK    3  A    between atoms: C3*_12  and  O3*_15
REMARK    4  A    between atoms: C4*_14  and  C5*_17
REMARK    5  A    between atoms: C5*_17  and  O5*_18
REMARK                            x       y       z     vdW  Elec       q    Type
REMARK                         _______ _______ _______ _____ _____    ______ ____
ROOT
ATOM      1  O   UNL     1      24.939   0.960 188.502  0.00  0.00    +0.000 OA
ATOM      2  O   UNL     1      22.002   2.950 185.590  0.00  0.00    +0.000 OA
ATOM      3  N   UNL     1      22.767   1.479 189.291  0.00  0.00    +0.000 N 
ATOM      4  N   UNL     1      23.423   1.950 187.090  0.00  0.00    +0.000 N 
ATOM      5  C   UNL     1      21.605   2.025 188.882  0.00  0.00    +0.000 A 
ATOM      6  C   UNL     1      23.811   1.412 188.341  0.00  0.00    +0.000 A 
ATOM      7  C   UNL     1      21.163   2.539 187.781  0.00  0.00    +0.000 A 
ATOM      8  C   UNL     1      22.196   2.512 186.715  0.00  0.00    +0.000 A 
ATOM      9  H   UNL     1      24.136   1.927 186.374  0.00  0.00    +0.000 HD
ENDROOT
BRANCH   3  11
ATOM     10  O4* UNL     1      23.153   1.898 191.642  0.00  0.00    +0.000 OA
ATOM     11  C1* UNL     1      22.876   1.033 190.577  0.00  0.00    +0.000 A 
ATOM     12  C3* UNL     1      22.970  -0.266 192.448  0.00  0.00    +0.000 A 
ATOM     13  C2* UNL     1      22.772  -0.288 191.056  0.00  0.00    +0.000 A 
ATOM     14  C4* UNL     1      23.215   1.111 192.799  0.00  0.00    +0.000 A 
BRANCH  12  15
ATOM     15  O3* UNL     1      23.539  -1.285 193.158  0.00  0.00    +0.000 OA
ATOM     16  H3* UNL     1      24.462  -1.078 193.387  0.00  0.00    +0.000 HD
ENDBRANCH  12  15
BRANCH  14  17
ATOM     17  C5* UNL     1      23.675   1.614 194.032  0.00  0.00    +0.000 C 
BRANCH  17  18
ATOM     18  O5* UNL     1      24.108   2.085 195.198  0.00  0.00    +0.000 OA
ATOM     19  H5* UNL     1      23.421   1.980 195.878  0.00  0.00    +0.000 HD
ENDBRANCH  17  18
ENDBRANCH  14  17
ENDBRANCH   3  11
BRANCH   7  23
ATOM     20  F   UNL     1      19.293   2.601 186.358  0.00  0.00    +0.000 F 
ATOM     21  F   UNL     1      18.961   2.928 188.479  0.00  0.00    +0.000 F 
ATOM     22  F   UNL     1      19.922   4.475 187.296  0.00  0.00    +0.000 F 
ATOM     23  C   UNL     1      19.856   3.132 187.472  0.00  0.00    +0.000 C 
ENDBRANCH   7  23
TORSDOF 5
ENDMDL
