MODEL 1
REMARK VINA RESULT:      -6.1      0.000      0.000
REMARK  Name = 6323266_Tipiracil.pdbqt.pdb
REMARK  2 active torsions:
REMARK  status: ('A' for Active; 'I' for Inactive)
REMARK    1  A    between atoms: C_6  and  C_12
REMARK    2  A    between atoms: C_12  and  N_13
REMARK                            x       y       z     vdW  Elec       q    Type
REMARK                         _______ _______ _______ _____ _____    ______ ____
ROOT
ATOM      1 CL   UNL     1      18.783   2.081 191.856  0.00  0.00    +0.000 Cl
ATOM      2  O   UNL     1      20.627   1.699 194.197  0.00  0.00    +0.000 OA
ATOM      3  O   UNL     1      24.273   3.756 192.469  0.00  0.00    +0.000 OA
ATOM      4  N   UNL     1      22.389   3.645 191.210  0.00  0.00    +0.000 N 
ATOM      5  N   UNL     1      22.439   2.737 193.330  0.00  0.00    +0.000 N 
ATOM      6  C   UNL     1      21.083   3.263 191.035  0.00  0.00    +0.000 A 
ATOM      7  C   UNL     1      20.417   2.604 191.993  0.00  0.00    +0.000 A 
ATOM      8  C   UNL     1      21.142   2.302 193.260  0.00  0.00    +0.000 A 
ATOM      9  C   UNL     1      23.106   3.403 192.344  0.00  0.00    +0.000 A 
ATOM     10  H   UNL     1      22.873   4.141 190.465  0.00  0.00    +0.000 HD
ATOM     11  H   UNL     1      22.949   2.543 194.180  0.00  0.00    +0.000 HD
ENDROOT
BRANCH   6  12
ATOM     12  C   UNL     1      20.506   3.609 189.784  0.00  0.00    +0.000 C 
BRANCH  12  13
ATOM     13  N   UNL     1      19.947   4.085 188.533  0.00  0.00    +0.000 N 
ATOM     14  N   UNL     1      21.817   5.557 187.873  0.00  0.00    +0.000 NA
ATOM     15  C   UNL     1      19.384   3.093 187.618  0.00  0.00    +0.000 C 
ATOM     16  C   UNL     1      19.698   3.046 186.127  0.00  0.00    +0.000 C 
ATOM     17  C   UNL     1      20.649   4.220 186.364  0.00  0.00    +0.000 C 
ATOM     18  C   UNL     1      20.852   4.733 187.702  0.00  0.00    +0.000 C 
ATOM     19  H   UNL     1      22.274   5.772 186.979  0.00  0.00    +0.000 HD
ENDBRANCH  12  13
ENDBRANCH   6  12
TORSDOF 2
ENDMDL
MODEL 2
REMARK VINA RESULT:      -6.0     32.425     33.949
REMARK  Name = 6323266_Tipiracil.pdbqt.pdb
REMARK  2 active torsions:
REMARK  status: ('A' for Active; 'I' for Inactive)
REMARK    1  A    between atoms: C_6  and  C_12
REMARK    2  A    between atoms: C_12  and  N_13
REMARK                            x       y       z     vdW  Elec       q    Type
REMARK                         _______ _______ _______ _____ _____    ______ ____
ROOT
ATOM      1 CL   UNL     1      38.555  -6.984 164.771  0.00  0.00    +0.000 Cl
ATOM      2  O   UNL     1      38.306  -5.569 167.410  0.00  0.00    +0.000 OA
ATOM      3  O   UNL     1      42.573  -6.123 168.826  0.00  0.00    +0.000 OA
ATOM      4  N   UNL     1      41.979  -6.972 166.807  0.00  0.00    +0.000 N 
ATOM      5  N   UNL     1      40.441  -5.842 168.104  0.00  0.00    +0.000 N 
ATOM      6  C   UNL     1      41.047  -7.189 165.825  0.00  0.00    +0.000 A 
ATOM      7  C   UNL     1      39.788  -6.748 165.950  0.00  0.00    +0.000 A 
ATOM      8  C   UNL     1      39.431  -6.009 167.193  0.00  0.00    +0.000 A 
ATOM      9  C   UNL     1      41.718  -6.300 167.966  0.00  0.00    +0.000 A 
ATOM     10  H   UNL     1      42.927  -7.320 166.689  0.00  0.00    +0.000 HD
ATOM     11  H   UNL     1      40.221  -5.343 168.954  0.00  0.00    +0.000 HD
ENDROOT
BRANCH   6  12
ATOM     12  C   UNL     1      41.511  -7.907 164.689  0.00  0.00    +0.000 C 
BRANCH  12  13
ATOM     13  N   UNL     1      42.017  -8.735 163.612  0.00  0.00    +0.000 N 
ATOM     14  N   UNL     1      42.601 -10.719 164.961  0.00  0.00    +0.000 NA
ATOM     15  C   UNL     1      41.211  -8.837 162.396  0.00  0.00    +0.000 C 
ATOM     16  C   UNL     1      40.882 -10.158 161.709  0.00  0.00    +0.000 C 
ATOM     17  C   UNL     1      41.635 -10.852 162.846  0.00  0.00    +0.000 C 
ATOM     18  C   UNL     1      42.183 -10.075 163.937  0.00  0.00    +0.000 C 
ATOM     19  H   UNL     1      42.528 -11.731 164.810  0.00  0.00    +0.000 HD
ENDBRANCH  12  13
ENDBRANCH   6  12
TORSDOF 2
ENDMDL
MODEL 3
REMARK VINA RESULT:      -6.0     30.739     32.387
REMARK  Name = 6323266_Tipiracil.pdbqt.pdb
REMARK  2 active torsions:
REMARK  status: ('A' for Active; 'I' for Inactive)
REMARK    1  A    between atoms: C_6  and  C_12
REMARK    2  A    between atoms: C_12  and  N_13
REMARK                            x       y       z     vdW  Elec       q    Type
REMARK                         _______ _______ _______ _____ _____    ______ ____
ROOT
ATOM      1 CL   UNL     1      39.663  -6.851 163.948  0.00  0.00    +0.000 Cl
ATOM      2  O   UNL     1      36.731  -6.979 164.591  0.00  0.00    +0.000 OA
ATOM      3  O   UNL     1      36.995  -5.845 168.968  0.00  0.00    +0.000 OA
ATOM      4  N   UNL     1      38.911  -5.962 167.757  0.00  0.00    +0.000 N 
ATOM      5  N   UNL     1      36.871  -6.402 166.773  0.00  0.00    +0.000 N 
ATOM      6  C   UNL     1      39.573  -6.192 166.579  0.00  0.00    +0.000 A 
ATOM      7  C   UNL     1      38.912  -6.537 165.466  0.00  0.00    +0.000 A 
ATOM      8  C   UNL     1      37.429  -6.662 165.549  0.00  0.00    +0.000 A 
ATOM      9  C   UNL     1      37.557  -6.056 167.900  0.00  0.00    +0.000 A 
ATOM     10  H   UNL     1      39.437  -5.704 168.590  0.00  0.00    +0.000 HD
ATOM     11  H   UNL     1      35.868  -6.481 166.852  0.00  0.00    +0.000 HD
ENDROOT
BRANCH   6  12
ATOM     12  C   UNL     1      40.985  -6.041 166.630  0.00  0.00    +0.000 C 
BRANCH  12  13
ATOM     13  N   UNL     1      42.408  -5.763 166.652  0.00  0.00    +0.000 N 
ATOM     14  N   UNL     1      42.805  -6.246 169.041  0.00  0.00    +0.000 NA
ATOM     15  C   UNL     1      43.233  -6.351 165.597  0.00  0.00    +0.000 C 
ATOM     16  C   UNL     1      44.544  -7.084 165.860  0.00  0.00    +0.000 C 
ATOM     17  C   UNL     1      44.286  -6.857 167.350  0.00  0.00    +0.000 C 
ATOM     18  C   UNL     1      43.070  -6.208 167.789  0.00  0.00    +0.000 C 
ATOM     19  H   UNL     1      43.564  -6.702 169.560  0.00  0.00    +0.000 HD
ENDBRANCH  12  13
ENDBRANCH   6  12
TORSDOF 2
ENDMDL
MODEL 4
REMARK VINA RESULT:      -5.9      2.747      3.396
REMARK  Name = 6323266_Tipiracil.pdbqt.pdb
REMARK  2 active torsions:
REMARK  status: ('A' for Active; 'I' for Inactive)
REMARK    1  A    between atoms: C_6  and  C_12
REMARK    2  A    between atoms: C_12  and  N_13
REMARK                            x       y       z     vdW  Elec       q    Type
REMARK                         _______ _______ _______ _____ _____    ______ ____
ROOT
ATOM      1 CL   UNL     1      22.691   1.739 189.038  0.00  0.00    +0.000 Cl
ATOM      2  O   UNL     1      21.796   0.229 191.476  0.00  0.00    +0.000 OA
ATOM      3  O   UNL     1      17.458   1.530 191.465  0.00  0.00    +0.000 OA
ATOM      4  N   UNL     1      18.830   2.309 189.834  0.00  0.00    +0.000 N 
ATOM      5  N   UNL     1      19.629   0.876 191.457  0.00  0.00    +0.000 N 
ATOM      6  C   UNL     1      20.061   2.376 189.233  0.00  0.00    +0.000 A 
ATOM      7  C   UNL     1      21.112   1.705 189.723  0.00  0.00    +0.000 A 
ATOM      8  C   UNL     1      20.900   0.877 190.944  0.00  0.00    +0.000 A 
ATOM      9  C   UNL     1      18.569   1.569 190.950  0.00  0.00    +0.000 A 
ATOM     10  H   UNL     1      18.049   2.832 189.445  0.00  0.00    +0.000 HD
ATOM     11  H   UNL     1      19.463   0.322 192.284  0.00  0.00    +0.000 HD
ENDROOT
BRANCH   6  12
ATOM     12  C   UNL     1      20.134   3.199 188.077  0.00  0.00    +0.000 C 
BRANCH  12  13
ATOM     13  N   UNL     1      20.265   4.128 186.971  0.00  0.00    +0.000 N 
ATOM     14  N   UNL     1      21.762   5.751 188.076  0.00  0.00    +0.000 NA
ATOM     15  C   UNL     1      20.563   3.576 185.650  0.00  0.00    +0.000 C 
ATOM     16  C   UNL     1      21.650   4.124 184.732  0.00  0.00    +0.000 C 
ATOM     17  C   UNL     1      21.991   5.113 185.847  0.00  0.00    +0.000 C 
ATOM     18  C   UNL     1      21.288   5.057 187.110  0.00  0.00    +0.000 C 
ATOM     19  H   UNL     1      22.569   6.305 187.764  0.00  0.00    +0.000 HD
ENDBRANCH  12  13
ENDBRANCH   6  12
TORSDOF 2
ENDMDL
MODEL 5
REMARK VINA RESULT:      -5.9     33.498     34.904
REMARK  Name = 6323266_Tipiracil.pdbqt.pdb
REMARK  2 active torsions:
REMARK  status: ('A' for Active; 'I' for Inactive)
REMARK    1  A    between atoms: C_6  and  C_12
REMARK    2  A    between atoms: C_12  and  N_13
REMARK                            x       y       z     vdW  Elec       q    Type
REMARK                         _______ _______ _______ _____ _____    ______ ____
ROOT
ATOM      1 CL   UNL     1      46.750  -5.102 164.657  0.00  0.00    +0.000 Cl
ATOM      2  O   UNL     1      47.982  -2.529 165.598  0.00  0.00    +0.000 OA
ATOM      3  O   UNL     1      44.305  -0.750 167.557  0.00  0.00    +0.000 OA
ATOM      4  N   UNL     1      44.136  -2.791 166.577  0.00  0.00    +0.000 N 
ATOM      5  N   UNL     1      46.143  -1.653 166.582  0.00  0.00    +0.000 N 
ATOM      6  C   UNL     1      44.689  -3.841 165.891  0.00  0.00    +0.000 A 
ATOM      7  C   UNL     1      45.978  -3.832 165.525  0.00  0.00    +0.000 A 
ATOM      8  C   UNL     1      46.795  -2.640 165.891  0.00  0.00    +0.000 A 
ATOM      9  C   UNL     1      44.829  -1.674 166.944  0.00  0.00    +0.000 A 
ATOM     10  H   UNL     1      43.154  -2.821 166.841  0.00  0.00    +0.000 HD
ATOM     11  H   UNL     1      46.678  -0.837 166.840  0.00  0.00    +0.000 HD
ENDROOT
BRANCH   6  12
ATOM     12  C   UNL     1      43.806  -4.917 165.603  0.00  0.00    +0.000 C 
BRANCH  12  13
ATOM     13  N   UNL     1      42.963  -6.024 165.194  0.00  0.00    +0.000 N 
ATOM     14  N   UNL     1      44.292  -7.844 166.203  0.00  0.00    +0.000 NA
ATOM     15  C   UNL     1      41.523  -5.902 165.418  0.00  0.00    +0.000 C 
ATOM     16  C   UNL     1      40.672  -6.996 166.054  0.00  0.00    +0.000 C 
ATOM     17  C   UNL     1      41.963  -7.798 166.227  0.00  0.00    +0.000 C 
ATOM     18  C   UNL     1      43.233  -7.227 165.833  0.00  0.00    +0.000 C 
ATOM     19  H   UNL     1      44.054  -8.715 166.692  0.00  0.00    +0.000 HD
ENDBRANCH  12  13
ENDBRANCH   6  12
TORSDOF 2
ENDMDL
MODEL 6
REMARK VINA RESULT:      -5.8      3.888      5.980
REMARK  Name = 6323266_Tipiracil.pdbqt.pdb
REMARK  2 active torsions:
REMARK  status: ('A' for Active; 'I' for Inactive)
REMARK    1  A    between atoms: C_6  and  C_12
REMARK    2  A    between atoms: C_12  and  N_13
REMARK                            x       y       z     vdW  Elec       q    Type
REMARK                         _______ _______ _______ _____ _____    ______ ____
ROOT
ATOM      1 CL   UNL     1      23.550   5.141 189.240  0.00  0.00    +0.000 Cl
ATOM      2  O   UNL     1      25.139   5.728 186.758  0.00  0.00    +0.000 OA
ATOM      3  O   UNL     1      22.090   4.334 183.713  0.00  0.00    +0.000 OA
ATOM      4  N   UNL     1      21.569   4.190 185.918  0.00  0.00    +0.000 N 
ATOM      5  N   UNL     1      23.606   5.039 185.245  0.00  0.00    +0.000 N 
ATOM      6  C   UNL     1      21.887   4.372 187.239  0.00  0.00    +0.000 A 
ATOM      7  C   UNL     1      23.068   4.886 187.607  0.00  0.00    +0.000 A 
ATOM      8  C   UNL     1      24.030   5.257 186.530  0.00  0.00    +0.000 A 
ATOM      9  C   UNL     1      22.402   4.511 184.886  0.00  0.00    +0.000 A 
ATOM     10  H   UNL     1      20.667   3.794 185.665  0.00  0.00    +0.000 HD
ATOM     11  H   UNL     1      24.242   5.284 184.500  0.00  0.00    +0.000 HD
ENDROOT
BRANCH   6  12
ATOM     12  C   UNL     1      20.886   3.979 188.169  0.00  0.00    +0.000 C 
BRANCH  12  13
ATOM     13  N   UNL     1      19.902   3.678 189.190  0.00  0.00    +0.000 N 
ATOM     14  N   UNL     1      18.266   2.523 187.744  0.00  0.00    +0.000 NA
ATOM     15  C   UNL     1      20.377   3.090 190.442  0.00  0.00    +0.000 C 
ATOM     16  C   UNL     1      19.738   1.872 191.099  0.00  0.00    +0.000 C 
ATOM     17  C   UNL     1      18.788   1.816 189.902  0.00  0.00    +0.000 C 
ATOM     18  C   UNL     1      18.935   2.755 188.811  0.00  0.00    +0.000 C 
ATOM     19  H   UNL     1      17.662   1.702 187.865  0.00  0.00    +0.000 HD
ENDBRANCH  12  13
ENDBRANCH   6  12
TORSDOF 2
ENDMDL
MODEL 7
REMARK VINA RESULT:      -5.7      1.615      2.477
REMARK  Name = 6323266_Tipiracil.pdbqt.pdb
REMARK  2 active torsions:
REMARK  status: ('A' for Active; 'I' for Inactive)
REMARK    1  A    between atoms: C_6  and  C_12
REMARK    2  A    between atoms: C_12  and  N_13
REMARK                            x       y       z     vdW  Elec       q    Type
REMARK                         _______ _______ _______ _____ _____    ______ ____
ROOT
ATOM      1 CL   UNL     1      23.640   4.015 190.164  0.00  0.00    +0.000 Cl
ATOM      2  O   UNL     1      24.532   3.022 192.855  0.00  0.00    +0.000 OA
ATOM      3  O   UNL     1      20.506   1.605 194.369  0.00  0.00    +0.000 OA
ATOM      4  N   UNL     1      20.626   2.523 192.297  0.00  0.00    +0.000 N 
ATOM      5  N   UNL     1      22.519   2.308 193.599  0.00  0.00    +0.000 N 
ATOM      6  C   UNL     1      21.345   3.096 191.279  0.00  0.00    +0.000 A 
ATOM      7  C   UNL     1      22.665   3.297 191.387  0.00  0.00    +0.000 A 
ATOM      8  C   UNL     1      23.331   2.876 192.652  0.00  0.00    +0.000 A 
ATOM      9  C   UNL     1      21.175   2.112 193.477  0.00  0.00    +0.000 A 
ATOM     10  H   UNL     1      19.624   2.384 192.192  0.00  0.00    +0.000 HD
ATOM     11  H   UNL     1      22.950   2.015 194.463  0.00  0.00    +0.000 HD
ENDROOT
BRANCH   6  12
ATOM     12  C   UNL     1      20.594   3.454 190.127  0.00  0.00    +0.000 C 
BRANCH  12  13
ATOM     13  N   UNL     1      19.821   3.693 188.924  0.00  0.00    +0.000 N 
ATOM     14  N   UNL     1      21.069   5.664 188.114  0.00  0.00    +0.000 NA
ATOM     15  C   UNL     1      19.537   2.549 188.057  0.00  0.00    +0.000 C 
ATOM     16  C   UNL     1      19.738   2.563 186.546  0.00  0.00    +0.000 C 
ATOM     17  C   UNL     1      20.280   3.985 186.706  0.00  0.00    +0.000 C 
ATOM     18  C   UNL     1      20.407   4.572 188.021  0.00  0.00    +0.000 C 
ATOM     19  H   UNL     1      21.366   5.990 187.186  0.00  0.00    +0.000 HD
ENDBRANCH  12  13
ENDBRANCH   6  12
TORSDOF 2
ENDMDL
MODEL 8
REMARK VINA RESULT:      -5.7      2.429      3.000
REMARK  Name = 6323266_Tipiracil.pdbqt.pdb
REMARK  2 active torsions:
REMARK  status: ('A' for Active; 'I' for Inactive)
REMARK    1  A    between atoms: C_6  and  C_12
REMARK    2  A    between atoms: C_12  and  N_13
REMARK                            x       y       z     vdW  Elec       q    Type
REMARK                         _______ _______ _______ _____ _____    ______ ____
ROOT
ATOM      1 CL   UNL     1      21.652   3.413 191.620  0.00  0.00    +0.000 Cl
ATOM      2  O   UNL     1      24.375   3.119 192.853  0.00  0.00    +0.000 OA
ATOM      3  O   UNL     1      26.828   3.533 189.068  0.00  0.00    +0.000 OA
ATOM      4  N   UNL     1      24.567   3.656 188.917  0.00  0.00    +0.000 N 
ATOM      5  N   UNL     1      25.592   3.337 190.959  0.00  0.00    +0.000 N 
ATOM      6  C   UNL     1      23.323   3.635 189.495  0.00  0.00    +0.000 A 
ATOM      7  C   UNL     1      23.172   3.460 190.815  0.00  0.00    +0.000 A 
ATOM      8  C   UNL     1      24.403   3.291 191.638  0.00  0.00    +0.000 A 
ATOM      9  C   UNL     1      25.731   3.511 189.614  0.00  0.00    +0.000 A 
ATOM     10  H   UNL     1      24.654   3.787 187.912  0.00  0.00    +0.000 HD
ATOM     11  H   UNL     1      26.439   3.224 191.498  0.00  0.00    +0.000 HD
ENDROOT
BRANCH   6  12
ATOM     12  C   UNL     1      22.231   3.806 188.603  0.00  0.00    +0.000 C 
BRANCH  12  13
ATOM     13  N   UNL     1      21.116   4.105 187.726  0.00  0.00    +0.000 N 
ATOM     14  N   UNL     1      22.051   3.136 185.656  0.00  0.00    +0.000 NA
ATOM     15  C   UNL     1      19.771   3.772 188.196  0.00  0.00    +0.000 C 
ATOM     16  C   UNL     1      18.741   3.030 187.352  0.00  0.00    +0.000 C 
ATOM     17  C   UNL     1      19.812   2.931 186.264  0.00  0.00    +0.000 C 
ATOM     18  C   UNL     1      21.143   3.444 186.504  0.00  0.00    +0.000 C 
ATOM     19  H   UNL     1      21.654   2.598 184.877  0.00  0.00    +0.000 HD
ENDBRANCH  12  13
ENDBRANCH   6  12
TORSDOF 2
ENDMDL
MODEL 9
REMARK VINA RESULT:      -5.7      3.016      3.740
REMARK  Name = 6323266_Tipiracil.pdbqt.pdb
REMARK  2 active torsions:
REMARK  status: ('A' for Active; 'I' for Inactive)
REMARK    1  A    between atoms: C_6  and  C_12
REMARK    2  A    between atoms: C_12  and  N_13
REMARK                            x       y       z     vdW  Elec       q    Type
REMARK                         _______ _______ _______ _____ _____    ______ ____
ROOT
ATOM      1 CL   UNL     1      23.026   1.120 190.163  0.00  0.00    +0.000 Cl
ATOM      2  O   UNL     1      23.715  -1.070 192.102  0.00  0.00    +0.000 OA
ATOM      3  O   UNL     1      19.558  -1.780 193.754  0.00  0.00    +0.000 OA
ATOM      4  N   UNL     1      19.838  -0.187 192.162  0.00  0.00    +0.000 N 
ATOM      5  N   UNL     1      21.634  -1.424 192.913  0.00  0.00    +0.000 N 
ATOM      6  C   UNL     1      20.636   0.517 191.296  0.00  0.00    +0.000 A 
ATOM      7  C   UNL     1      21.952   0.279 191.214  0.00  0.00    +0.000 A 
ATOM      8  C   UNL     1      22.523  -0.779 192.094  0.00  0.00    +0.000 A 
ATOM      9  C   UNL     1      20.297  -1.169 192.990  0.00  0.00    +0.000 A 
ATOM     10  H   UNL     1      18.842   0.015 192.208  0.00  0.00    +0.000 HD
ATOM     11  H   UNL     1      22.000  -2.145 193.518  0.00  0.00    +0.000 HD
ENDROOT
BRANCH   6  12
ATOM     12  C   UNL     1      19.971   1.499 190.513  0.00  0.00    +0.000 C 
BRANCH  12  13
ATOM     13  N   UNL     1      19.341   2.589 189.794  0.00  0.00    +0.000 N 
ATOM     14  N   UNL     1      21.286   4.109 189.723  0.00  0.00    +0.000 NA
ATOM     15  C   UNL     1      18.573   2.260 188.594  0.00  0.00    +0.000 C 
ATOM     16  C   UNL     1      18.719   3.000 187.269  0.00  0.00    +0.000 C 
ATOM     17  C   UNL     1      19.819   3.827 187.936  0.00  0.00    +0.000 C 
ATOM     18  C   UNL     1      20.220   3.542 189.296  0.00  0.00    +0.000 C 
ATOM     19  H   UNL     1      21.668   4.747 189.015  0.00  0.00    +0.000 HD
ENDBRANCH  12  13
ENDBRANCH   6  12
TORSDOF 2
ENDMDL
