MODEL 1
REMARK VINA RESULT:      -8.7      0.000      0.000
REMARK  Name = 6325056_Deoxyelephantopin.pdbqt.pdb
REMARK  3 active torsions:
REMARK  status: ('A' for Active; 'I' for Inactive)
REMARK    1  A    between atoms: C_6  and  O_20
REMARK    2  A    between atoms: O_20  and  C_22
REMARK    3  A    between atoms: C_22  and  C_23
REMARK                            x       y       z     vdW  Elec       q    Type
REMARK                         _______ _______ _______ _____ _____    ______ ____
ROOT
ATOM      1  O   UNL     1      24.665   3.953 191.294  0.00  0.00    +0.000 OA
ATOM      2  O   UNL     1      21.173   4.362 185.802  0.00  0.00    +0.000 OA
ATOM      3  O   UNL     1      24.815   3.385 193.514  0.00  0.00    +0.000 OA
ATOM      4  O   UNL     1      19.870   2.517 186.338  0.00  0.00    +0.000 OA
ATOM      5  C   UNL     1      22.486   3.174 190.833  0.00  0.00    +0.000 C 
ATOM      6  C   UNL     1      21.265   2.791 190.122  0.00  0.00    +0.000 C 
ATOM      7  C   UNL     1      23.675   3.823 190.312  0.00  0.00    +0.000 C 
ATOM      8  C   UNL     1      20.684   3.572 189.089  0.00  0.00    +0.000 C 
ATOM      9  C   UNL     1      22.805   2.920 192.222  0.00  0.00    +0.000 C 
ATOM     10  C   UNL     1      20.230   4.299 187.943  0.00  0.00    +0.000 C 
ATOM     11  C   UNL     1      23.911   4.379 189.033  0.00  0.00    +0.000 C 
ATOM     12  C   UNL     1      21.618   5.429 186.612  0.00  0.00    +0.000 C 
ATOM     13  C   UNL     1      22.996   5.356 186.976  0.00  0.00    +0.000 C 
ATOM     14  C   UNL     1      24.113   5.011 187.771  0.00  0.00    +0.000 C 
ATOM     15  C   UNL     1      20.726   5.587 187.691  0.00  0.00    +0.000 C 
ATOM     16  C   UNL     1      24.186   3.416 192.471  0.00  0.00    +0.000 C 
ATOM     17  C   UNL     1      20.342   3.605 186.616  0.00  0.00    +0.000 C 
ATOM     18  C   UNL     1      21.991   2.406 193.151  0.00  0.00    +0.000 C 
ATOM     19  C   UNL     1      25.466   5.541 187.419  0.00  0.00    +0.000 C 
ENDROOT
BRANCH   6  20
ATOM     20  O   UNL     1      20.466   1.747 190.618  0.00  0.00    +0.000 OA
BRANCH  20  22
ATOM     21  O   UNL     1      18.788   2.944 191.643  0.00  0.00    +0.000 OA
ATOM     22  C   UNL     1      19.148   2.075 190.853  0.00  0.00    +0.000 C 
BRANCH  22  23
ATOM     23  C   UNL     1      18.245   1.221 189.999  0.00  0.00    +0.000 C 
ATOM     24  C   UNL     1      17.523   1.749 188.770  0.00  0.00    +0.000 C 
ATOM     25  C   UNL     1      18.071  -0.084 190.239  0.00  0.00    +0.000 C 
ENDBRANCH  22  23
ENDBRANCH  20  22
ENDBRANCH   6  20
TORSDOF 3
ENDMDL
MODEL 2
REMARK VINA RESULT:      -8.7      1.634      2.434
REMARK  Name = 6325056_Deoxyelephantopin.pdbqt.pdb
REMARK  3 active torsions:
REMARK  status: ('A' for Active; 'I' for Inactive)
REMARK    1  A    between atoms: C_6  and  O_20
REMARK    2  A    between atoms: O_20  and  C_22
REMARK    3  A    between atoms: C_22  and  C_23
REMARK                            x       y       z     vdW  Elec       q    Type
REMARK                         _______ _______ _______ _____ _____    ______ ____
ROOT
ATOM      1  O   UNL     1      24.245   2.319 192.142  0.00  0.00    +0.000 OA
ATOM      2  O   UNL     1      24.007   5.146 186.271  0.00  0.00    +0.000 OA
ATOM      3  O   UNL     1      23.197   1.686 194.086  0.00  0.00    +0.000 OA
ATOM      4  O   UNL     1      21.785   4.562 185.934  0.00  0.00    +0.000 OA
ATOM      5  C   UNL     1      22.390   3.159 190.949  0.00  0.00    +0.000 C 
ATOM      6  C   UNL     1      21.550   3.692 189.876  0.00  0.00    +0.000 C 
ATOM      7  C   UNL     1      23.820   2.906 190.944  0.00  0.00    +0.000 C 
ATOM      8  C   UNL     1      21.975   4.709 188.982  0.00  0.00    +0.000 C 
ATOM      9  C   UNL     1      21.957   2.694 192.250  0.00  0.00    +0.000 C 
ATOM     10  C   UNL     1      22.500   5.609 188.001  0.00  0.00    +0.000 C 
ATOM     11  C   UNL     1      24.790   3.236 189.969  0.00  0.00    +0.000 C 
ATOM     12  C   UNL     1      24.656   5.631 187.427  0.00  0.00    +0.000 C 
ATOM     13  C   UNL     1      25.468   4.667 188.095  0.00  0.00    +0.000 C 
ATOM     14  C   UNL     1      25.774   3.645 189.021  0.00  0.00    +0.000 C 
ATOM     15  C   UNL     1      23.709   6.279 188.245  0.00  0.00    +0.000 C 
ATOM     16  C   UNL     1      23.149   2.166 192.966  0.00  0.00    +0.000 C 
ATOM     17  C   UNL     1      22.663   5.070 186.609  0.00  0.00    +0.000 C 
ATOM     18  C   UNL     1      20.726   2.787 192.765  0.00  0.00    +0.000 C 
ATOM     19  C   UNL     1      27.188   3.188 189.183  0.00  0.00    +0.000 C 
ENDROOT
BRANCH   6  20
ATOM     20  O   UNL     1      20.177   3.392 189.848  0.00  0.00    +0.000 OA
BRANCH  20  22
ATOM     21  O   UNL     1      20.001   1.098 189.774  0.00  0.00    +0.000 OA
ATOM     22  C   UNL     1      19.848   2.197 189.246  0.00  0.00    +0.000 C 
BRANCH  22  23
ATOM     23  C   UNL     1      19.276   2.451 187.875  0.00  0.00    +0.000 C 
ATOM     24  C   UNL     1      20.037   2.162 186.591  0.00  0.00    +0.000 C 
ATOM     25  C   UNL     1      18.024   2.894 187.701  0.00  0.00    +0.000 C 
ENDBRANCH  22  23
ENDBRANCH  20  22
ENDBRANCH   6  20
TORSDOF 3
ENDMDL
MODEL 3
REMARK VINA RESULT:      -8.6      2.677      3.760
REMARK  Name = 6325056_Deoxyelephantopin.pdbqt.pdb
REMARK  3 active torsions:
REMARK  status: ('A' for Active; 'I' for Inactive)
REMARK    1  A    between atoms: C_6  and  O_20
REMARK    2  A    between atoms: O_20  and  C_22
REMARK    3  A    between atoms: C_22  and  C_23
REMARK                            x       y       z     vdW  Elec       q    Type
REMARK                         _______ _______ _______ _____ _____    ______ ____
ROOT
ATOM      1  O   UNL     1      24.233   1.985 187.522  0.00  0.00    +0.000 OA
ATOM      2  O   UNL     1      17.751   2.419 188.090  0.00  0.00    +0.000 OA
ATOM      3  O   UNL     1      26.282   1.522 188.452  0.00  0.00    +0.000 OA
ATOM      4  O   UNL     1      17.645   0.729 189.677  0.00  0.00    +0.000 OA
ATOM      5  C   UNL     1      22.835   1.381 189.325  0.00  0.00    +0.000 C 
ATOM      6  C   UNL     1      21.649   1.073 190.125  0.00  0.00    +0.000 C 
ATOM      7  C   UNL     1      22.909   1.893 187.968  0.00  0.00    +0.000 C 
ATOM      8  C   UNL     1      20.460   1.847 190.091  0.00  0.00    +0.000 C 
ATOM      9  C   UNL     1      24.218   1.172 189.696  0.00  0.00    +0.000 C 
ATOM     10  C   UNL     1      19.229   2.552 189.900  0.00  0.00    +0.000 C 
ATOM     11  C   UNL     1      21.874   2.359 187.124  0.00  0.00    +0.000 C 
ATOM     12  C   UNL     1      18.669   3.482 187.951  0.00  0.00    +0.000 C 
ATOM     13  C   UNL     1      19.621   3.305 186.903  0.00  0.00    +0.000 C 
ATOM     14  C   UNL     1      20.839   2.904 186.309  0.00  0.00    +0.000 C 
ATOM     15  C   UNL     1      19.223   3.776 189.213  0.00  0.00    +0.000 C 
ATOM     16  C   UNL     1      25.066   1.554 188.535  0.00  0.00    +0.000 C 
ATOM     17  C   UNL     1      18.102   1.783 189.272  0.00  0.00    +0.000 C 
ATOM     18  C   UNL     1      24.678   0.782 190.891  0.00  0.00    +0.000 C 
ATOM     19  C   UNL     1      21.139   3.292 184.896  0.00  0.00    +0.000 C 
ENDROOT
BRANCH   6  20
ATOM     20  O   UNL     1      21.732   0.132 191.165  0.00  0.00    +0.000 OA
BRANCH  20  22
ATOM     21  O   UNL     1      21.939   1.412 193.066  0.00  0.00    +0.000 OA
ATOM     22  C   UNL     1      21.324   0.583 192.401  0.00  0.00    +0.000 C 
BRANCH  22  23
ATOM     23  C   UNL     1      20.028  -0.082 192.790  0.00  0.00    +0.000 C 
ATOM     24  C   UNL     1      18.825   0.686 193.312  0.00  0.00    +0.000 C 
ATOM     25  C   UNL     1      19.835  -1.399 192.638  0.00  0.00    +0.000 C 
ENDBRANCH  22  23
ENDBRANCH  20  22
ENDBRANCH   6  20
TORSDOF 3
ENDMDL
MODEL 4
REMARK VINA RESULT:      -8.5      2.035      5.083
REMARK  Name = 6325056_Deoxyelephantopin.pdbqt.pdb
REMARK  3 active torsions:
REMARK  status: ('A' for Active; 'I' for Inactive)
REMARK    1  A    between atoms: C_6  and  O_20
REMARK    2  A    between atoms: O_20  and  C_22
REMARK    3  A    between atoms: C_22  and  C_23
REMARK                            x       y       z     vdW  Elec       q    Type
REMARK                         _______ _______ _______ _____ _____    ______ ____
ROOT
ATOM      1  O   UNL     1      21.618   0.114 191.773  0.00  0.00    +0.000 OA
ATOM      2  O   UNL     1      19.062   3.965 187.173  0.00  0.00    +0.000 OA
ATOM      3  O   UNL     1      23.435  -0.956 192.683  0.00  0.00    +0.000 OA
ATOM      4  O   UNL     1      21.030   5.168 186.901  0.00  0.00    +0.000 OA
ATOM      5  C   UNL     1      22.691   1.322 190.053  0.00  0.00    +0.000 C 
ATOM      6  C   UNL     1      22.941   2.257 188.955  0.00  0.00    +0.000 C 
ATOM      7  C   UNL     1      21.435   1.008 190.711  0.00  0.00    +0.000 C 
ATOM      8  C   UNL     1      22.044   2.453 187.874  0.00  0.00    +0.000 C 
ATOM      9  C   UNL     1      23.671   0.544 190.780  0.00  0.00    +0.000 C 
ATOM     10  C   UNL     1      21.038   2.743 186.897  0.00  0.00    +0.000 C 
ATOM     11  C   UNL     1      20.119   1.406 190.378  0.00  0.00    +0.000 C 
ATOM     12  C   UNL     1      18.858   2.579 187.336  0.00  0.00    +0.000 C 
ATOM     13  C   UNL     1      18.539   2.183 188.669  0.00  0.00    +0.000 C 
ATOM     14  C   UNL     1      18.789   1.743 189.989  0.00  0.00    +0.000 C 
ATOM     15  C   UNL     1      19.937   1.885 186.753  0.00  0.00    +0.000 C 
ATOM     16  C   UNL     1      22.960  -0.194 191.858  0.00  0.00    +0.000 C 
ATOM     17  C   UNL     1      20.424   4.112 186.948  0.00  0.00    +0.000 C 
ATOM     18  C   UNL     1      24.975   0.433 190.500  0.00  0.00    +0.000 C 
ATOM     19  C   UNL     1      17.646   1.380 190.880  0.00  0.00    +0.000 C 
ENDROOT
BRANCH   6  20
ATOM     20  O   UNL     1      24.219   2.820 188.795  0.00  0.00    +0.000 OA
BRANCH  20  22
ATOM     21  O   UNL     1      24.665   4.088 190.663  0.00  0.00    +0.000 OA
ATOM     22  C   UNL     1      24.427   4.008 189.461  0.00  0.00    +0.000 C 
BRANCH  22  23
ATOM     23  C   UNL     1      24.326   5.164 188.498  0.00  0.00    +0.000 C 
ATOM     24  C   UNL     1      25.298   5.373 187.348  0.00  0.00    +0.000 C 
ATOM     25  C   UNL     1      23.324   6.051 188.560  0.00  0.00    +0.000 C 
ENDBRANCH  22  23
ENDBRANCH  20  22
ENDBRANCH   6  20
TORSDOF 3
ENDMDL
MODEL 5
REMARK VINA RESULT:      -8.4      1.883      6.229
REMARK  Name = 6325056_Deoxyelephantopin.pdbqt.pdb
REMARK  3 active torsions:
REMARK  status: ('A' for Active; 'I' for Inactive)
REMARK    1  A    between atoms: C_6  and  O_20
REMARK    2  A    between atoms: O_20  and  C_22
REMARK    3  A    between atoms: C_22  and  C_23
REMARK                            x       y       z     vdW  Elec       q    Type
REMARK                         _______ _______ _______ _____ _____    ______ ____
ROOT
ATOM      1  O   UNL     1      18.967   0.621 190.546  0.00  0.00    +0.000 OA
ATOM      2  O   UNL     1      25.234   2.226 191.373  0.00  0.00    +0.000 OA
ATOM      3  O   UNL     1      16.953   0.956 189.494  0.00  0.00    +0.000 OA
ATOM      4  O   UNL     1      25.485   2.911 189.169  0.00  0.00    +0.000 OA
ATOM      5  C   UNL     1      20.301   2.155 189.346  0.00  0.00    +0.000 C 
ATOM      6  C   UNL     1      21.455   2.897 188.839  0.00  0.00    +0.000 C 
ATOM      7  C   UNL     1      20.251   1.163 190.405  0.00  0.00    +0.000 C 
ATOM      8  C   UNL     1      22.505   3.373 189.668  0.00  0.00    +0.000 C 
ATOM      9  C   UNL     1      18.944   2.198 188.844  0.00  0.00    +0.000 C 
ATOM     10  C   UNL     1      23.619   3.684 190.511  0.00  0.00    +0.000 C 
ATOM     11  C   UNL     1      21.260   0.762 191.312  0.00  0.00    +0.000 C 
ATOM     12  C   UNL     1      24.171   2.439 192.277  0.00  0.00    +0.000 C 
ATOM     13  C   UNL     1      23.343   1.297 192.493  0.00  0.00    +0.000 C 
ATOM     14  C   UNL     1      22.255   0.422 192.275  0.00  0.00    +0.000 C 
ATOM     15  C   UNL     1      23.482   3.610 191.906  0.00  0.00    +0.000 C 
ATOM     16  C   UNL     1      18.139   1.215 189.617  0.00  0.00    +0.000 C 
ATOM     17  C   UNL     1      24.899   2.948 190.236  0.00  0.00    +0.000 C 
ATOM     18  C   UNL     1      18.462   3.024 187.908  0.00  0.00    +0.000 C 
ATOM     19  C   UNL     1      22.007  -0.705 193.226  0.00  0.00    +0.000 C 
ENDROOT
BRANCH   6  20
ATOM     20  O   UNL     1      21.444   3.397 187.526  0.00  0.00    +0.000 OA
BRANCH  20  22
ATOM     21  O   UNL     1      23.104   2.077 186.634  0.00  0.00    +0.000 OA
ATOM     22  C   UNL     1      22.597   3.183 186.804  0.00  0.00    +0.000 C 
BRANCH  22  23
ATOM     23  C   UNL     1      23.118   4.491 186.264  0.00  0.00    +0.000 C 
ATOM     24  C   UNL     1      24.235   5.277 186.928  0.00  0.00    +0.000 C 
ATOM     25  C   UNL     1      22.664   5.012 185.117  0.00  0.00    +0.000 C 
ENDBRANCH  22  23
ENDBRANCH  20  22
ENDBRANCH   6  20
TORSDOF 3
ENDMDL
MODEL 6
REMARK VINA RESULT:      -8.1      2.233      5.024
REMARK  Name = 6325056_Deoxyelephantopin.pdbqt.pdb
REMARK  3 active torsions:
REMARK  status: ('A' for Active; 'I' for Inactive)
REMARK    1  A    between atoms: C_6  and  O_20
REMARK    2  A    between atoms: O_20  and  C_22
REMARK    3  A    between atoms: C_22  and  C_23
REMARK                            x       y       z     vdW  Elec       q    Type
REMARK                         _______ _______ _______ _____ _____    ______ ____
ROOT
ATOM      1  O   UNL     1      19.747   2.673 191.205  0.00  0.00    +0.000 OA
ATOM      2  O   UNL     1      23.438   5.728 186.781  0.00  0.00    +0.000 OA
ATOM      3  O   UNL     1      19.422   0.916 192.648  0.00  0.00    +0.000 OA
ATOM      4  O   UNL     1      25.421   4.970 187.719  0.00  0.00    +0.000 OA
ATOM      5  C   UNL     1      21.937   2.185 190.475  0.00  0.00    +0.000 C 
ATOM      6  C   UNL     1      23.249   2.295 189.834  0.00  0.00    +0.000 C 
ATOM      7  C   UNL     1      20.801   3.083 190.379  0.00  0.00    +0.000 C 
ATOM      8  C   UNL     1      23.436   2.786 188.516  0.00  0.00    +0.000 C 
ATOM      9  C   UNL     1      21.507   1.175 191.418  0.00  0.00    +0.000 C 
ATOM     10  C   UNL     1      23.596   3.442 187.254  0.00  0.00    +0.000 C 
ATOM     11  C   UNL     1      20.608   4.207 189.542  0.00  0.00    +0.000 C 
ATOM     12  C   UNL     1      22.219   5.052 186.557  0.00  0.00    +0.000 C 
ATOM     13  C   UNL     1      21.179   5.394 187.471  0.00  0.00    +0.000 C 
ATOM     14  C   UNL     1      20.388   5.287 188.638  0.00  0.00    +0.000 C 
ATOM     15  C   UNL     1      22.477   3.672 186.439  0.00  0.00    +0.000 C 
ATOM     16  C   UNL     1      20.129   1.521 191.860  0.00  0.00    +0.000 C 
ATOM     17  C   UNL     1      24.309   4.764 187.267  0.00  0.00    +0.000 C 
ATOM     18  C   UNL     1      22.180   0.076 191.779  0.00  0.00    +0.000 C 
ATOM     19  C   UNL     1      19.165   6.135 188.786  0.00  0.00    +0.000 C 
ENDROOT
BRANCH   6  20
ATOM     20  O   UNL     1      24.366   1.670 190.415  0.00  0.00    +0.000 OA
BRANCH  20  22
ATOM     21  O   UNL     1      25.332   3.519 191.387  0.00  0.00    +0.000 OA
ATOM     22  C   UNL     1      25.424   2.504 190.701  0.00  0.00    +0.000 C 
BRANCH  22  23
ATOM     23  C   UNL     1      26.683   1.978 190.059  0.00  0.00    +0.000 C 
ATOM     24  C   UNL     1      27.780   2.881 189.520  0.00  0.00    +0.000 C 
ATOM     25  C   UNL     1      26.942   0.666 189.981  0.00  0.00    +0.000 C 
ENDBRANCH  22  23
ENDBRANCH  20  22
ENDBRANCH   6  20
TORSDOF 3
ENDMDL
MODEL 7
REMARK VINA RESULT:      -8.1      2.179      4.701
REMARK  Name = 6325056_Deoxyelephantopin.pdbqt.pdb
REMARK  3 active torsions:
REMARK  status: ('A' for Active; 'I' for Inactive)
REMARK    1  A    between atoms: C_6  and  O_20
REMARK    2  A    between atoms: O_20  and  C_22
REMARK    3  A    between atoms: C_22  and  C_23
REMARK                            x       y       z     vdW  Elec       q    Type
REMARK                         _______ _______ _______ _____ _____    ______ ____
ROOT
ATOM      1  O   UNL     1      18.826   2.697 191.390  0.00  0.00    +0.000 OA
ATOM      2  O   UNL     1      23.071   4.441 186.756  0.00  0.00    +0.000 OA
ATOM      3  O   UNL     1      18.075   1.154 192.917  0.00  0.00    +0.000 OA
ATOM      4  O   UNL     1      24.796   3.195 187.684  0.00  0.00    +0.000 OA
ATOM      5  C   UNL     1      20.771   1.593 190.636  0.00  0.00    +0.000 C 
ATOM      6  C   UNL     1      22.039   1.310 189.963  0.00  0.00    +0.000 C 
ATOM      7  C   UNL     1      19.925   2.767 190.525  0.00  0.00    +0.000 C 
ATOM      8  C   UNL     1      22.312   1.680 188.620  0.00  0.00    +0.000 C 
ATOM      9  C   UNL     1      20.108   0.777 191.631  0.00  0.00    +0.000 C 
ATOM     10  C   UNL     1      22.605   2.219 187.327  0.00  0.00    +0.000 C 
ATOM     11  C   UNL     1      20.024   3.869 189.642  0.00  0.00    +0.000 C 
ATOM     12  C   UNL     1      21.706   4.122 186.589  0.00  0.00    +0.000 C 
ATOM     13  C   UNL     1      20.832   4.773 187.509  0.00  0.00    +0.000 C 
ATOM     14  C   UNL     1      20.081   4.934 188.696  0.00  0.00    +0.000 C 
ATOM     15  C   UNL     1      21.567   2.721 186.527  0.00  0.00    +0.000 C 
ATOM     16  C   UNL     1      18.896   1.508 192.088  0.00  0.00    +0.000 C 
ATOM     17  C   UNL     1      23.656   3.290 187.266  0.00  0.00    +0.000 C 
ATOM     18  C   UNL     1      20.463  -0.451 192.026  0.00  0.00    +0.000 C 
ATOM     19  C   UNL     1      19.147   6.092 188.832  0.00  0.00    +0.000 C 
ENDROOT
BRANCH   6  20
ATOM     20  O   UNL     1      22.958   0.421 190.546  0.00  0.00    +0.000 OA
BRANCH  20  22
ATOM     21  O   UNL     1      25.224   0.633 190.203  0.00  0.00    +0.000 OA
ATOM     22  C   UNL     1      24.203   0.949 190.808  0.00  0.00    +0.000 C 
BRANCH  22  23
ATOM     23  C   UNL     1      24.110   1.959 191.924  0.00  0.00    +0.000 C 
ATOM     24  C   UNL     1      23.613   1.612 193.318  0.00  0.00    +0.000 C 
ATOM     25  C   UNL     1      24.524   3.223 191.770  0.00  0.00    +0.000 C 
ENDBRANCH  22  23
ENDBRANCH  20  22
ENDBRANCH   6  20
TORSDOF 3
ENDMDL
MODEL 8
REMARK VINA RESULT:      -8.0      2.138      5.787
REMARK  Name = 6325056_Deoxyelephantopin.pdbqt.pdb
REMARK  3 active torsions:
REMARK  status: ('A' for Active; 'I' for Inactive)
REMARK    1  A    between atoms: C_6  and  O_20
REMARK    2  A    between atoms: O_20  and  C_22
REMARK    3  A    between atoms: C_22  and  C_23
REMARK                            x       y       z     vdW  Elec       q    Type
REMARK                         _______ _______ _______ _____ _____    ______ ____
ROOT
ATOM      1  O   UNL     1      21.877   4.231 186.436  0.00  0.00    +0.000 OA
ATOM      2  O   UNL     1      19.224   0.883 191.363  0.00  0.00    +0.000 OA
ATOM      3  O   UNL     1      23.634   5.430 185.568  0.00  0.00    +0.000 OA
ATOM      4  O   UNL     1      21.281   0.130 192.133  0.00  0.00    +0.000 OA
ATOM      5  C   UNL     1      22.826   3.574 188.495  0.00  0.00    +0.000 C 
ATOM      6  C   UNL     1      23.034   2.916 189.785  0.00  0.00    +0.000 C 
ATOM      7  C   UNL     1      21.662   3.528 187.628  0.00  0.00    +0.000 C 
ATOM      8  C   UNL     1      22.012   2.761 190.758  0.00  0.00    +0.000 C 
ATOM      9  C   UNL     1      23.782   4.371 187.755  0.00  0.00    +0.000 C 
ATOM     10  C   UNL     1      20.917   2.475 191.633  0.00  0.00    +0.000 C 
ATOM     11  C   UNL     1      20.386   2.964 187.862  0.00  0.00    +0.000 C 
ATOM     12  C   UNL     1      18.839   2.156 190.890  0.00  0.00    +0.000 C 
ATOM     13  C   UNL     1      18.685   2.237 189.474  0.00  0.00    +0.000 C 
ATOM     14  C   UNL     1      19.078   2.467 188.136  0.00  0.00    +0.000 C 
ATOM     15  C   UNL     1      19.689   3.129 191.452  0.00  0.00    +0.000 C 
ATOM     16  C   UNL     1      23.152   4.758 186.464  0.00  0.00    +0.000 C 
ATOM     17  C   UNL     1      20.536   1.031 191.789  0.00  0.00    +0.000 C 
ATOM     18  C   UNL     1      24.989   4.768 188.174  0.00  0.00    +0.000 C 
ATOM     19  C   UNL     1      18.054   2.446 187.047  0.00  0.00    +0.000 C 
ENDROOT
BRANCH   6  20
ATOM     20  O   UNL     1      24.339   2.635 190.224  0.00  0.00    +0.000 OA
BRANCH  20  22
ATOM     21  O   UNL     1      24.564   0.522 191.109  0.00  0.00    +0.000 OA
ATOM     22  C   UNL     1      24.703   1.307 190.175  0.00  0.00    +0.000 C 
BRANCH  22  23
ATOM     23  C   UNL     1      25.277   0.980 188.819  0.00  0.00    +0.000 C 
ATOM     24  C   UNL     1      24.473   0.308 187.718  0.00  0.00    +0.000 C 
ATOM     25  C   UNL     1      26.525   1.323 188.478  0.00  0.00    +0.000 C 
ENDBRANCH  22  23
ENDBRANCH  20  22
ENDBRANCH   6  20
TORSDOF 3
ENDMDL
MODEL 9
REMARK VINA RESULT:      -8.0      2.000      2.457
REMARK  Name = 6325056_Deoxyelephantopin.pdbqt.pdb
REMARK  3 active torsions:
REMARK  status: ('A' for Active; 'I' for Inactive)
REMARK    1  A    between atoms: C_6  and  O_20
REMARK    2  A    between atoms: O_20  and  C_22
REMARK    3  A    between atoms: C_22  and  C_23
REMARK                            x       y       z     vdW  Elec       q    Type
REMARK                         _______ _______ _______ _____ _____    ______ ____
ROOT
ATOM      1  O   UNL     1      23.711   1.668 191.254  0.00  0.00    +0.000 OA
ATOM      2  O   UNL     1      19.621   2.720 186.285  0.00  0.00    +0.000 OA
ATOM      3  O   UNL     1      24.193   1.814 193.496  0.00  0.00    +0.000 OA
ATOM      4  O   UNL     1      17.734   2.485 187.617  0.00  0.00    +0.000 OA
ATOM      5  C   UNL     1      21.490   2.466 191.274  0.00  0.00    +0.000 C 
ATOM      6  C   UNL     1      20.134   2.820 190.854  0.00  0.00    +0.000 C 
ATOM      7  C   UNL     1      22.589   1.962 190.470  0.00  0.00    +0.000 C 
ATOM      8  C   UNL     1      19.837   3.447 189.616  0.00  0.00    +0.000 C 
ATOM      9  C   UNL     1      22.018   2.475 192.622  0.00  0.00    +0.000 C 
ATOM     10  C   UNL     1      19.567   3.921 188.293  0.00  0.00    +0.000 C 
ATOM     11  C   UNL     1      22.686   1.819 189.066  0.00  0.00    +0.000 C 
ATOM     12  C   UNL     1      20.841   3.382 186.543  0.00  0.00    +0.000 C 
ATOM     13  C   UNL     1      21.933   2.513 186.837  0.00  0.00    +0.000 C 
ATOM     14  C   UNL     1      22.808   1.755 187.647  0.00  0.00    +0.000 C 
ATOM     15  C   UNL     1      20.618   4.398 187.494  0.00  0.00    +0.000 C 
ATOM     16  C   UNL     1      23.413   1.959 192.570  0.00  0.00    +0.000 C 
ATOM     17  C   UNL     1      18.817   2.992 187.383  0.00  0.00    +0.000 C 
ATOM     18  C   UNL     1      21.407   2.935 193.720  0.00  0.00    +0.000 C 
ATOM     19  C   UNL     1      24.011   1.109 187.039  0.00  0.00    +0.000 C 
ENDROOT
BRANCH   6  20
ATOM     20  O   UNL     1      19.081   2.783 191.785  0.00  0.00    +0.000 OA
BRANCH  20  22
ATOM     21  O   UNL     1      17.290   1.559 191.015  0.00  0.00    +0.000 OA
ATOM     22  C   UNL     1      18.285   1.660 191.729  0.00  0.00    +0.000 C 
BRANCH  22  23
ATOM     23  C   UNL     1      18.825   0.599 192.654  0.00  0.00    +0.000 C 
ATOM     24  C   UNL     1      19.703  -0.547 192.181  0.00  0.00    +0.000 C 
ATOM     25  C   UNL     1      18.612   0.639 193.976  0.00  0.00    +0.000 C 
ENDBRANCH  22  23
ENDBRANCH  20  22
ENDBRANCH   6  20
TORSDOF 3
ENDMDL
