MODEL 1
REMARK VINA RESULT:      -7.5      0.000      0.000
REMARK  Name = 641785_Cardamonin.pdbqt.pdb
REMARK  6 active torsions:
REMARK  status: ('A' for Active; 'I' for Inactive)
REMARK    1  A    between atoms: C_1  and  C_14
REMARK    2  A    between atoms: C_2  and  O_7
REMARK    3  A    between atoms: C_3  and  O_9
REMARK    4  A    between atoms: C_6  and  O_11
REMARK    5  A    between atoms: C_14  and  C_15
REMARK    6  A    between atoms: C_16  and  C_17
REMARK                            x       y       z     vdW  Elec       q    Type
REMARK                         _______ _______ _______ _____ _____    ______ ____
ROOT
ATOM      1  C   UNL     1      20.367   4.551 187.521  0.00  0.00    +0.000 A 
ATOM      2  C   UNL     1      21.568   5.103 187.034  0.00  0.00    +0.000 A 
ATOM      3  C   UNL     1      19.689   3.598 186.734  0.00  0.00    +0.000 A 
ATOM      4  C   UNL     1      22.041   4.711 185.773  0.00  0.00    +0.000 A 
ATOM      5  C   UNL     1      20.168   3.228 185.478  0.00  0.00    +0.000 A 
ATOM      6  C   UNL     1      21.340   3.792 185.002  0.00  0.00    +0.000 A 
ENDROOT
BRANCH   2   7
ATOM      7  O   UNL     1      22.287   5.955 187.840  0.00  0.00    +0.000 OA
ATOM      8  C   UNL     1      23.652   5.673 187.968  0.00  0.00    +0.000 C 
ENDBRANCH   2   7
BRANCH   3   9
ATOM      9  O   UNL     1      18.531   2.976 187.126  0.00  0.00    +0.000 OA
ATOM     10  H   UNL     1      18.225   3.354 187.980  0.00  0.00    +0.000 HD
ENDBRANCH   3   9
BRANCH   6  11
ATOM     11  O   UNL     1      21.795   3.422 183.774  0.00  0.00    +0.000 OA
ATOM     12  H   UNL     1      22.706   3.088 183.863  0.00  0.00    +0.000 HD
ENDBRANCH   6  11
BRANCH   1  14
ATOM     13  O   UNL     1      19.273   6.024 188.997  0.00  0.00    +0.000 OA
ATOM     14  C   UNL     1      19.770   4.916 188.831  0.00  0.00    +0.000 C 
BRANCH  14  15
ATOM     15  C   UNL     1      19.834   4.003 189.946  0.00  0.00    +0.000 C 
ATOM     16  C   UNL     1      19.882   3.256 190.887  0.00  0.00    +0.000 C 
BRANCH  16  17
ATOM     17  C   UNL     1      19.943   2.366 191.999  0.00  0.00    +0.000 A 
ATOM     18  C   UNL     1      21.043   2.397 192.854  0.00  0.00    +0.000 A 
ATOM     19  C   UNL     1      18.905   1.466 192.227  0.00  0.00    +0.000 A 
ATOM     20  C   UNL     1      21.104   1.526 193.939  0.00  0.00    +0.000 A 
ATOM     21  C   UNL     1      18.966   0.595 193.313  0.00  0.00    +0.000 A 
ATOM     22  C   UNL     1      20.066   0.626 194.168  0.00  0.00    +0.000 A 
ENDBRANCH  16  17
ENDBRANCH  14  15
ENDBRANCH   1  14
TORSDOF 6
ENDMDL
MODEL 2
REMARK VINA RESULT:      -7.3      3.616      7.382
REMARK  Name = 641785_Cardamonin.pdbqt.pdb
REMARK  6 active torsions:
REMARK  status: ('A' for Active; 'I' for Inactive)
REMARK    1  A    between atoms: C_1  and  C_14
REMARK    2  A    between atoms: C_2  and  O_7
REMARK    3  A    between atoms: C_3  and  O_9
REMARK    4  A    between atoms: C_6  and  O_11
REMARK    5  A    between atoms: C_14  and  C_15
REMARK    6  A    between atoms: C_16  and  C_17
REMARK                            x       y       z     vdW  Elec       q    Type
REMARK                         _______ _______ _______ _____ _____    ______ ____
ROOT
ATOM      1  C   UNL     1      20.085   0.353 192.635  0.00  0.00    +0.000 A 
ATOM      2  C   UNL     1      21.078   1.034 193.363  0.00  0.00    +0.000 A 
ATOM      3  C   UNL     1      19.986  -1.047 192.765  0.00  0.00    +0.000 A 
ATOM      4  C   UNL     1      21.956   0.302 194.176  0.00  0.00    +0.000 A 
ATOM      5  C   UNL     1      20.873  -1.761 193.569  0.00  0.00    +0.000 A 
ATOM      6  C   UNL     1      21.858  -1.081 194.266  0.00  0.00    +0.000 A 
ENDROOT
BRANCH   2   7
ATOM      7  O   UNL     1      21.114   2.409 193.321  0.00  0.00    +0.000 OA
ATOM      8  C   UNL     1      22.204   2.974 192.648  0.00  0.00    +0.000 C 
ENDBRANCH   2   7
BRANCH   3   9
ATOM      9  O   UNL     1      19.036  -1.804 192.126  0.00  0.00    +0.000 OA
ATOM     10  H   UNL     1      19.384  -2.107 191.258  0.00  0.00    +0.000 HD
ENDBRANCH   3   9
BRANCH   6  11
ATOM     11  O   UNL     1      22.719  -1.791 195.047  0.00  0.00    +0.000 OA
ATOM     12  H   UNL     1      22.205  -2.304 195.696  0.00  0.00    +0.000 HD
ENDBRANCH   6  11
BRANCH   1  14
ATOM     13  O   UNL     1      17.947   1.155 192.057  0.00  0.00    +0.000 OA
ATOM     14  C   UNL     1      19.122   1.032 191.730  0.00  0.00    +0.000 C 
BRANCH  14  15
ATOM     15  C   UNL     1      19.537   1.489 190.427  0.00  0.00    +0.000 C 
ATOM     16  C   UNL     1      19.895   1.883 189.348  0.00  0.00    +0.000 C 
BRANCH  16  17
ATOM     17  C   UNL     1      20.314   2.346 188.066  0.00  0.00    +0.000 A 
ATOM     18  C   UNL     1      19.372   2.840 187.165  0.00  0.00    +0.000 A 
ATOM     19  C   UNL     1      21.661   2.302 187.716  0.00  0.00    +0.000 A 
ATOM     20  C   UNL     1      19.780   3.292 185.912  0.00  0.00    +0.000 A 
ATOM     21  C   UNL     1      22.068   2.754 186.463  0.00  0.00    +0.000 A 
ATOM     22  C   UNL     1      21.128   3.248 185.562  0.00  0.00    +0.000 A 
ENDBRANCH  16  17
ENDBRANCH  14  15
ENDBRANCH   1  14
TORSDOF 6
ENDMDL
MODEL 3
REMARK VINA RESULT:      -7.2      3.726      7.610
REMARK  Name = 641785_Cardamonin.pdbqt.pdb
REMARK  6 active torsions:
REMARK  status: ('A' for Active; 'I' for Inactive)
REMARK    1  A    between atoms: C_1  and  C_14
REMARK    2  A    between atoms: C_2  and  O_7
REMARK    3  A    between atoms: C_3  and  O_9
REMARK    4  A    between atoms: C_6  and  O_11
REMARK    5  A    between atoms: C_14  and  C_15
REMARK    6  A    between atoms: C_16  and  C_17
REMARK                            x       y       z     vdW  Elec       q    Type
REMARK                         _______ _______ _______ _____ _____    ______ ____
ROOT
ATOM      1  C   UNL     1      20.921   0.153 192.395  0.00  0.00    +0.000 A 
ATOM      2  C   UNL     1      19.998   1.124 192.828  0.00  0.00    +0.000 A 
ATOM      3  C   UNL     1      20.832  -1.152 192.920  0.00  0.00    +0.000 A 
ATOM      4  C   UNL     1      19.033   0.774 193.784  0.00  0.00    +0.000 A 
ATOM      5  C   UNL     1      19.873  -1.480 193.879  0.00  0.00    +0.000 A 
ATOM      6  C   UNL     1      18.983  -0.511 194.310  0.00  0.00    +0.000 A 
ENDROOT
BRANCH   2   7
ATOM      7  O   UNL     1      20.015   2.369 192.244  0.00  0.00    +0.000 OA
ATOM      8  C   UNL     1      18.872   2.722 191.516  0.00  0.00    +0.000 C 
ENDBRANCH   2   7
BRANCH   3   9
ATOM      9  O   UNL     1      21.660  -2.180 192.545  0.00  0.00    +0.000 OA
ATOM     10  H   UNL     1      21.175  -3.033 192.602  0.00  0.00    +0.000 HD
ENDBRANCH   3   9
BRANCH   6  11
ATOM     11  O   UNL     1      18.053  -0.845 195.247  0.00  0.00    +0.000 OA
ATOM     12  H   UNL     1      18.485  -0.886 196.118  0.00  0.00    +0.000 HD
ENDBRANCH   6  11
BRANCH   1  14
ATOM     13  O   UNL     1      23.161   0.155 191.665  0.00  0.00    +0.000 OA
ATOM     14  C   UNL     1      21.994   0.427 191.405  0.00  0.00    +0.000 C 
BRANCH  14  15
ATOM     15  C   UNL     1      21.690   1.083 190.157  0.00  0.00    +0.000 C 
ATOM     16  C   UNL     1      21.443   1.615 189.108  0.00  0.00    +0.000 C 
BRANCH  16  17
ATOM     17  C   UNL     1      21.149   2.253 187.866  0.00  0.00    +0.000 A 
ATOM     18  C   UNL     1      22.187   2.625 187.014  0.00  0.00    +0.000 A 
ATOM     19  C   UNL     1      19.827   2.503 187.508  0.00  0.00    +0.000 A 
ATOM     20  C   UNL     1      21.901   3.250 185.802  0.00  0.00    +0.000 A 
ATOM     21  C   UNL     1      19.541   3.127 186.296  0.00  0.00    +0.000 A 
ATOM     22  C   UNL     1      20.579   3.500 185.444  0.00  0.00    +0.000 A 
ENDBRANCH  16  17
ENDBRANCH  14  15
ENDBRANCH   1  14
TORSDOF 6
ENDMDL
MODEL 4
REMARK VINA RESULT:      -6.9      1.759      2.596
REMARK  Name = 641785_Cardamonin.pdbqt.pdb
REMARK  6 active torsions:
REMARK  status: ('A' for Active; 'I' for Inactive)
REMARK    1  A    between atoms: C_1  and  C_14
REMARK    2  A    between atoms: C_2  and  O_7
REMARK    3  A    between atoms: C_3  and  O_9
REMARK    4  A    between atoms: C_6  and  O_11
REMARK    5  A    between atoms: C_14  and  C_15
REMARK    6  A    between atoms: C_16  and  C_17
REMARK                            x       y       z     vdW  Elec       q    Type
REMARK                         _______ _______ _______ _____ _____    ______ ____
ROOT
ATOM      1  C   UNL     1      21.035   3.838 187.987  0.00  0.00    +0.000 A 
ATOM      2  C   UNL     1      22.006   2.970 187.453  0.00  0.00    +0.000 A 
ATOM      3  C   UNL     1      21.269   5.228 187.947  0.00  0.00    +0.000 A 
ATOM      4  C   UNL     1      23.188   3.508 186.922  0.00  0.00    +0.000 A 
ATOM      5  C   UNL     1      22.454   5.744 187.424  0.00  0.00    +0.000 A 
ATOM      6  C   UNL     1      23.410   4.879 186.920  0.00  0.00    +0.000 A 
ENDROOT
BRANCH   2   7
ATOM      7  O   UNL     1      21.738   1.622 187.396  0.00  0.00    +0.000 OA
ATOM      8  C   UNL     1      22.495   0.809 188.249  0.00  0.00    +0.000 C 
ENDBRANCH   2   7
BRANCH   3   9
ATOM      9  O   UNL     1      20.377   6.162 188.409  0.00  0.00    +0.000 OA
ATOM     10  H   UNL     1      19.527   6.076 187.923  0.00  0.00    +0.000 HD
ENDBRANCH   3   9
BRANCH   6  11
ATOM     11  O   UNL     1      24.563   5.397 186.413  0.00  0.00    +0.000 OA
ATOM     12  H   UNL     1      25.039   5.861 187.125  0.00  0.00    +0.000 HD
ENDBRANCH   6  11
BRANCH   1  14
ATOM     13  O   UNL     1      18.701   3.515 187.995  0.00  0.00    +0.000 OA
ATOM     14  C   UNL     1      19.762   3.370 188.593  0.00  0.00    +0.000 C 
BRANCH  14  15
ATOM     15  C   UNL     1      19.745   2.807 189.921  0.00  0.00    +0.000 C 
ATOM     16  C   UNL     1      19.747   2.348 191.032  0.00  0.00    +0.000 C 
BRANCH  16  17
ATOM     17  C   UNL     1      19.744   1.799 192.348  0.00  0.00    +0.000 A 
ATOM     18  C   UNL     1      20.823   2.031 193.199  0.00  0.00    +0.000 A 
ATOM     19  C   UNL     1      18.665   1.030 192.779  0.00  0.00    +0.000 A 
ATOM     20  C   UNL     1      20.822   1.494 194.484  0.00  0.00    +0.000 A 
ATOM     21  C   UNL     1      18.665   0.493 194.065  0.00  0.00    +0.000 A 
ATOM     22  C   UNL     1      19.743   0.725 194.915  0.00  0.00    +0.000 A 
ENDBRANCH  16  17
ENDBRANCH  14  15
ENDBRANCH   1  14
TORSDOF 6
ENDMDL
MODEL 5
REMARK VINA RESULT:      -6.9      2.934      6.821
REMARK  Name = 641785_Cardamonin.pdbqt.pdb
REMARK  6 active torsions:
REMARK  status: ('A' for Active; 'I' for Inactive)
REMARK    1  A    between atoms: C_1  and  C_14
REMARK    2  A    between atoms: C_2  and  O_7
REMARK    3  A    between atoms: C_3  and  O_9
REMARK    4  A    between atoms: C_6  and  O_11
REMARK    5  A    between atoms: C_14  and  C_15
REMARK    6  A    between atoms: C_16  and  C_17
REMARK                            x       y       z     vdW  Elec       q    Type
REMARK                         _______ _______ _______ _____ _____    ______ ____
ROOT
ATOM      1  C   UNL     1      20.296   1.404 191.462  0.00  0.00    +0.000 A 
ATOM      2  C   UNL     1      21.660   1.194 191.740  0.00  0.00    +0.000 A 
ATOM      3  C   UNL     1      19.374   0.383 191.773  0.00  0.00    +0.000 A 
ATOM      4  C   UNL     1      22.067  -0.029 192.294  0.00  0.00    +0.000 A 
ATOM      5  C   UNL     1      19.797  -0.830 192.314  0.00  0.00    +0.000 A 
ATOM      6  C   UNL     1      21.144  -1.031 192.565  0.00  0.00    +0.000 A 
ENDROOT
BRANCH   2   7
ATOM      7  O   UNL     1      22.550   2.223 191.534  0.00  0.00    +0.000 OA
ATOM      8  C   UNL     1      22.884   2.981 192.663  0.00  0.00    +0.000 C 
ENDBRANCH   2   7
BRANCH   3   9
ATOM      9  O   UNL     1      18.021   0.496 191.573  0.00  0.00    +0.000 OA
ATOM     10  H   UNL     1      17.842   1.206 190.918  0.00  0.00    +0.000 HD
ENDBRANCH   3   9
BRANCH   6  11
ATOM     11  O   UNL     1      21.543  -2.221 193.092  0.00  0.00    +0.000 OA
ATOM     12  H   UNL     1      20.807  -2.602 193.604  0.00  0.00    +0.000 HD
ENDBRANCH   6  11
BRANCH   1  14
ATOM     13  O   UNL     1      18.905   3.304 191.436  0.00  0.00    +0.000 OA
ATOM     14  C   UNL     1      19.766   2.652 190.856  0.00  0.00    +0.000 C 
BRANCH  14  15
ATOM     15  C   UNL     1      20.200   3.074 189.547  0.00  0.00    +0.000 C 
ATOM     16  C   UNL     1      20.572   3.410 188.454  0.00  0.00    +0.000 C 
BRANCH  16  17
ATOM     17  C   UNL     1      21.011   3.814 187.159  0.00  0.00    +0.000 A 
ATOM     18  C   UNL     1      21.826   4.936 187.021  0.00  0.00    +0.000 A 
ATOM     19  C   UNL     1      20.623   3.089 186.035  0.00  0.00    +0.000 A 
ATOM     20  C   UNL     1      22.254   5.333 185.756  0.00  0.00    +0.000 A 
ATOM     21  C   UNL     1      21.052   3.487 184.770  0.00  0.00    +0.000 A 
ATOM     22  C   UNL     1      21.866   4.608 184.632  0.00  0.00    +0.000 A 
ENDBRANCH  16  17
ENDBRANCH  14  15
ENDBRANCH   1  14
TORSDOF 6
ENDMDL
MODEL 6
REMARK VINA RESULT:      -6.8      1.313      2.968
REMARK  Name = 641785_Cardamonin.pdbqt.pdb
REMARK  6 active torsions:
REMARK  status: ('A' for Active; 'I' for Inactive)
REMARK    1  A    between atoms: C_1  and  C_14
REMARK    2  A    between atoms: C_2  and  O_7
REMARK    3  A    between atoms: C_3  and  O_9
REMARK    4  A    between atoms: C_6  and  O_11
REMARK    5  A    between atoms: C_14  and  C_15
REMARK    6  A    between atoms: C_16  and  C_17
REMARK                            x       y       z     vdW  Elec       q    Type
REMARK                         _______ _______ _______ _____ _____    ______ ____
ROOT
ATOM      1  C   UNL     1      22.086   4.752 186.766  0.00  0.00    +0.000 A 
ATOM      2  C   UNL     1      20.876   4.188 186.318  0.00  0.00    +0.000 A 
ATOM      3  C   UNL     1      23.119   4.976 185.832  0.00  0.00    +0.000 A 
ATOM      4  C   UNL     1      20.742   3.840 184.965  0.00  0.00    +0.000 A 
ATOM      5  C   UNL     1      22.971   4.615 184.494  0.00  0.00    +0.000 A 
ATOM      6  C   UNL     1      21.784   4.042 184.070  0.00  0.00    +0.000 A 
ENDROOT
BRANCH   2   7
ATOM      7  O   UNL     1      19.830   4.062 187.201  0.00  0.00    +0.000 OA
ATOM      8  C   UNL     1      19.076   2.887 187.098  0.00  0.00    +0.000 C 
ENDBRANCH   2   7
BRANCH   3   9
ATOM      9  O   UNL     1      24.323   5.549 186.156  0.00  0.00    +0.000 OA
ATOM     10  H   UNL     1      24.265   6.524 186.047  0.00  0.00    +0.000 HD
ENDBRANCH   3   9
BRANCH   6  11
ATOM     11  O   UNL     1      21.655   3.693 182.760  0.00  0.00    +0.000 OA
ATOM     12  H   UNL     1      20.950   3.026 182.680  0.00  0.00    +0.000 HD
ENDBRANCH   6  11
BRANCH   1  14
ATOM     13  O   UNL     1      23.037   6.106 188.443  0.00  0.00    +0.000 OA
ATOM     14  C   UNL     1      22.338   5.134 188.179  0.00  0.00    +0.000 C 
BRANCH  14  15
ATOM     15  C   UNL     1      21.826   4.326 189.259  0.00  0.00    +0.000 C 
ATOM     16  C   UNL     1      21.411   3.662 190.171  0.00  0.00    +0.000 C 
BRANCH  16  17
ATOM     17  C   UNL     1      20.916   2.870 191.249  0.00  0.00    +0.000 A 
ATOM     18  C   UNL     1      19.751   2.124 191.083  0.00  0.00    +0.000 A 
ATOM     19  C   UNL     1      21.596   2.845 192.464  0.00  0.00    +0.000 A 
ATOM     20  C   UNL     1      19.266   1.351 192.136  0.00  0.00    +0.000 A 
ATOM     21  C   UNL     1      21.110   2.072 193.516  0.00  0.00    +0.000 A 
ATOM     22  C   UNL     1      19.946   1.326 193.351  0.00  0.00    +0.000 A 
ENDBRANCH  16  17
ENDBRANCH  14  15
ENDBRANCH   1  14
TORSDOF 6
ENDMDL
MODEL 7
REMARK VINA RESULT:      -6.8      3.035      5.312
REMARK  Name = 641785_Cardamonin.pdbqt.pdb
REMARK  6 active torsions:
REMARK  status: ('A' for Active; 'I' for Inactive)
REMARK    1  A    between atoms: C_1  and  C_14
REMARK    2  A    between atoms: C_2  and  O_7
REMARK    3  A    between atoms: C_3  and  O_9
REMARK    4  A    between atoms: C_6  and  O_11
REMARK    5  A    between atoms: C_14  and  C_15
REMARK    6  A    between atoms: C_16  and  C_17
REMARK                            x       y       z     vdW  Elec       q    Type
REMARK                         _______ _______ _______ _____ _____    ______ ____
ROOT
ATOM      1  C   UNL     1      19.904   3.546 189.047  0.00  0.00    +0.000 A 
ATOM      2  C   UNL     1      19.485   2.928 190.241  0.00  0.00    +0.000 A 
ATOM      3  C   UNL     1      19.257   3.204 187.842  0.00  0.00    +0.000 A 
ATOM      4  C   UNL     1      18.457   1.975 190.196  0.00  0.00    +0.000 A 
ATOM      5  C   UNL     1      18.244   2.247 187.814  0.00  0.00    +0.000 A 
ATOM      6  C   UNL     1      17.854   1.633 188.992  0.00  0.00    +0.000 A 
ENDROOT
BRANCH   2   7
ATOM      7  O   UNL     1      20.041   3.331 191.433  0.00  0.00    +0.000 OA
ATOM      8  C   UNL     1      20.691   2.338 192.175  0.00  0.00    +0.000 C 
ENDBRANCH   2   7
BRANCH   3   9
ATOM      9  O   UNL     1      19.564   3.769 186.630  0.00  0.00    +0.000 OA
ATOM     10  H   UNL     1      19.351   3.137 185.908  0.00  0.00    +0.000 HD
ENDBRANCH   3   9
BRANCH   6  11
ATOM     11  O   UNL     1      16.864   0.698 188.949  0.00  0.00    +0.000 OA
ATOM     12  H   UNL     1      16.031   1.109 189.243  0.00  0.00    +0.000 HD
ENDBRANCH   6  11
BRANCH   1  14
ATOM     13  O   UNL     1      20.775   5.681 188.567  0.00  0.00    +0.000 OA
ATOM     14  C   UNL     1      20.997   4.550 188.984  0.00  0.00    +0.000 C 
BRANCH  14  15
ATOM     15  C   UNL     1      22.346   4.187 189.341  0.00  0.00    +0.000 C 
ATOM     16  C   UNL     1      23.477   3.887 189.620  0.00  0.00    +0.000 C 
BRANCH  16  17
ATOM     17  C   UNL     1      24.815   3.529 189.957  0.00  0.00    +0.000 A 
ATOM     18  C   UNL     1      25.117   3.112 191.252  0.00  0.00    +0.000 A 
ATOM     19  C   UNL     1      25.818   3.598 188.993  0.00  0.00    +0.000 A 
ATOM     20  C   UNL     1      26.425   2.764 191.582  0.00  0.00    +0.000 A 
ATOM     21  C   UNL     1      27.126   3.249 189.324  0.00  0.00    +0.000 A 
ATOM     22  C   UNL     1      27.427   2.833 190.618  0.00  0.00    +0.000 A 
ENDBRANCH  16  17
ENDBRANCH  14  15
ENDBRANCH   1  14
TORSDOF 6
ENDMDL
MODEL 8
REMARK VINA RESULT:      -6.7     27.206     29.302
REMARK  Name = 641785_Cardamonin.pdbqt.pdb
REMARK  6 active torsions:
REMARK  status: ('A' for Active; 'I' for Inactive)
REMARK    1  A    between atoms: C_1  and  C_14
REMARK    2  A    between atoms: C_2  and  O_7
REMARK    3  A    between atoms: C_3  and  O_9
REMARK    4  A    between atoms: C_6  and  O_11
REMARK    5  A    between atoms: C_14  and  C_15
REMARK    6  A    between atoms: C_16  and  C_17
REMARK                            x       y       z     vdW  Elec       q    Type
REMARK                         _______ _______ _______ _____ _____    ______ ____
ROOT
ATOM      1  C   UNL     1      15.883 -20.882 171.642  0.00  0.00    +0.000 A 
ATOM      2  C   UNL     1      15.905 -22.288 171.587  0.00  0.00    +0.000 A 
ATOM      3  C   UNL     1      16.815 -20.156 170.872  0.00  0.00    +0.000 A 
ATOM      4  C   UNL     1      16.867 -22.928 170.792  0.00  0.00    +0.000 A 
ATOM      5  C   UNL     1      17.771 -20.809 170.094  0.00  0.00    +0.000 A 
ATOM      6  C   UNL     1      17.795 -22.193 170.065  0.00  0.00    +0.000 A 
ENDROOT
BRANCH   2   7
ATOM      7  O   UNL     1      14.935 -22.999 172.255  0.00  0.00    +0.000 OA
ATOM      8  C   UNL     1      13.977 -23.632 171.454  0.00  0.00    +0.000 C 
ENDBRANCH   2   7
BRANCH   3   9
ATOM      9  O   UNL     1      16.859 -18.786 170.827  0.00  0.00    +0.000 OA
ATOM     10  H   UNL     1      16.103 -18.447 170.298  0.00  0.00    +0.000 HD
ENDBRANCH   3   9
BRANCH   6  11
ATOM     11  O   UNL     1      18.735 -22.817 169.302  0.00  0.00    +0.000 OA
ATOM     12  H   UNL     1      18.286 -23.401 168.665  0.00  0.00    +0.000 HD
ENDBRANCH   6  11
BRANCH   1  14
ATOM     13  O   UNL     1      13.935 -19.595 171.954  0.00  0.00    +0.000 OA
ATOM     14  C   UNL     1      14.921 -20.109 172.470  0.00  0.00    +0.000 C 
BRANCH  14  15
ATOM     15  C   UNL     1      15.171 -19.891 173.873  0.00  0.00    +0.000 C 
ATOM     16  C   UNL     1      15.392 -19.695 175.039  0.00  0.00    +0.000 C 
BRANCH  16  17
ATOM     17  C   UNL     1      15.651 -19.469 176.422  0.00  0.00    +0.000 A 
ATOM     18  C   UNL     1      14.773 -18.692 177.175  0.00  0.00    +0.000 A 
ATOM     19  C   UNL     1      16.781 -20.024 177.019  0.00  0.00    +0.000 A 
ATOM     20  C   UNL     1      15.026 -18.469 178.527  0.00  0.00    +0.000 A 
ATOM     21  C   UNL     1      17.034 -19.801 178.371  0.00  0.00    +0.000 A 
ATOM     22  C   UNL     1      16.156 -19.023 179.123  0.00  0.00    +0.000 A 
ENDBRANCH  16  17
ENDBRANCH  14  15
ENDBRANCH   1  14
TORSDOF 6
ENDMDL
MODEL 9
REMARK VINA RESULT:      -6.7      3.960      7.817
REMARK  Name = 641785_Cardamonin.pdbqt.pdb
REMARK  6 active torsions:
REMARK  status: ('A' for Active; 'I' for Inactive)
REMARK    1  A    between atoms: C_1  and  C_14
REMARK    2  A    between atoms: C_2  and  O_7
REMARK    3  A    between atoms: C_3  and  O_9
REMARK    4  A    between atoms: C_6  and  O_11
REMARK    5  A    between atoms: C_14  and  C_15
REMARK    6  A    between atoms: C_16  and  C_17
REMARK                            x       y       z     vdW  Elec       q    Type
REMARK                         _______ _______ _______ _____ _____    ______ ____
ROOT
ATOM      1  C   UNL     1      20.792   0.104 193.216  0.00  0.00    +0.000 A 
ATOM      2  C   UNL     1      21.225   1.038 194.177  0.00  0.00    +0.000 A 
ATOM      3  C   UNL     1      19.624  -0.643 193.473  0.00  0.00    +0.000 A 
ATOM      4  C   UNL     1      20.500   1.181 195.369  0.00  0.00    +0.000 A 
ATOM      5  C   UNL     1      18.922  -0.496 194.668  0.00  0.00    +0.000 A 
ATOM      6  C   UNL     1      19.369   0.413 195.613  0.00  0.00    +0.000 A 
ENDROOT
BRANCH   2   7
ATOM      7  O   UNL     1      22.303   1.843 193.888  0.00  0.00    +0.000 OA
ATOM      8  C   UNL     1      23.525   1.457 194.451  0.00  0.00    +0.000 C 
ENDBRANCH   2   7
BRANCH   3   9
ATOM      9  O   UNL     1      19.098  -1.554 192.593  0.00  0.00    +0.000 OA
ATOM     10  H   UNL     1      19.022  -2.431 193.030  0.00  0.00    +0.000 HD
ENDBRANCH   3   9
BRANCH   6  11
ATOM     11  O   UNL     1      18.674   0.545 196.777  0.00  0.00    +0.000 OA
ATOM     12  H   UNL     1      17.770   0.841 196.571  0.00  0.00    +0.000 HD
ENDBRANCH   6  11
BRANCH   1  14
ATOM     13  O   UNL     1      22.447  -0.916 191.886  0.00  0.00    +0.000 OA
ATOM     14  C   UNL     1      21.499  -0.139 191.933  0.00  0.00    +0.000 C 
BRANCH  14  15
ATOM     15  C   UNL     1      21.132   0.589 190.743  0.00  0.00    +0.000 C 
ATOM     16  C   UNL     1      20.844   1.197 189.747  0.00  0.00    +0.000 C 
BRANCH  16  17
ATOM     17  C   UNL     1      20.497   1.919 188.567  0.00  0.00    +0.000 A 
ATOM     18  C   UNL     1      21.420   2.041 187.530  0.00  0.00    +0.000 A 
ATOM     19  C   UNL     1      19.237   2.503 188.455  0.00  0.00    +0.000 A 
ATOM     20  C   UNL     1      21.081   2.747 186.378  0.00  0.00    +0.000 A 
ATOM     21  C   UNL     1      18.900   3.210 187.302  0.00  0.00    +0.000 A 
ATOM     22  C   UNL     1      19.822   3.331 186.266  0.00  0.00    +0.000 A 
ENDBRANCH  16  17
ENDBRANCH  14  15
ENDBRANCH   1  14
TORSDOF 6
ENDMDL
