MODEL 1
REMARK VINA RESULT:      -7.1      0.000      0.000
REMARK  Name = 6440856_Goniothalamin.pdbqt.pdb
REMARK  2 active torsions:
REMARK  status: ('A' for Active; 'I' for Inactive)
REMARK    1  A    between atoms: C_1  and  C_5
REMARK    2  A    between atoms: C_2  and  C_10
REMARK                            x       y       z     vdW  Elec       q    Type
REMARK                         _______ _______ _______ _____ _____    ______ ____
ROOT
ATOM      1  C   UNL     1      20.246   3.229 187.417  0.00  0.00    +0.000 C 
ATOM      2  C   UNL     1      20.731   3.572 186.373  0.00  0.00    +0.000 C 
ENDROOT
BRANCH   1   5
ATOM      3  O   UNL     1      18.518   1.962 188.614  0.00  0.00    +0.000 OA
ATOM      4  O   UNL     1      16.983   0.844 189.944  0.00  0.00    +0.000 OA
ATOM      5  C   UNL     1      19.670   2.826 188.644  0.00  0.00    +0.000 A 
ATOM      6  C   UNL     1      20.122   3.194 189.940  0.00  0.00    +0.000 A 
ATOM      7  C   UNL     1      19.569   2.810 191.293  0.00  0.00    +0.000 A 
ATOM      8  C   UNL     1      18.643   2.111 190.995  0.00  0.00    +0.000 A 
ATOM      9  C   UNL     1      17.958   1.571 189.836  0.00  0.00    +0.000 A 
ENDBRANCH   1   5
BRANCH   2  10
ATOM     10  C   UNL     1      21.307   3.979 185.134  0.00  0.00    +0.000 A 
ATOM     11  C   UNL     1      22.296   4.960 185.116  0.00  0.00    +0.000 A 
ATOM     12  C   UNL     1      20.880   3.395 183.943  0.00  0.00    +0.000 A 
ATOM     13  C   UNL     1      22.858   5.358 183.904  0.00  0.00    +0.000 A 
ATOM     14  C   UNL     1      21.443   3.793 182.733  0.00  0.00    +0.000 A 
ATOM     15  C   UNL     1      22.432   4.773 182.714  0.00  0.00    +0.000 A 
ENDBRANCH   2  10
TORSDOF 2
ENDMDL
MODEL 2
REMARK VINA RESULT:      -6.9      3.036      4.391
REMARK  Name = 6440856_Goniothalamin.pdbqt.pdb
REMARK  2 active torsions:
REMARK  status: ('A' for Active; 'I' for Inactive)
REMARK    1  A    between atoms: C_1  and  C_5
REMARK    2  A    between atoms: C_2  and  C_10
REMARK                            x       y       z     vdW  Elec       q    Type
REMARK                         _______ _______ _______ _____ _____    ______ ____
ROOT
ATOM      1  C   UNL     1      19.963   1.044 190.618  0.00  0.00    +0.000 C 
ATOM      2  C   UNL     1      20.142   1.544 189.540  0.00  0.00    +0.000 C 
ENDROOT
BRANCH   1   5
ATOM      3  O   UNL     1      20.499  -0.721 192.236  0.00  0.00    +0.000 OA
ATOM      4  O   UNL     1      20.850  -2.288 193.908  0.00  0.00    +0.000 OA
ATOM      5  C   UNL     1      19.752   0.461 191.888  0.00  0.00    +0.000 A 
ATOM      6  C   UNL     1      18.856   0.930 192.886  0.00  0.00    +0.000 A 
ATOM      7  C   UNL     1      18.573   0.369 194.260  0.00  0.00    +0.000 A 
ATOM      8  C   UNL     1      19.300  -0.581 194.297  0.00  0.00    +0.000 A 
ATOM      9  C   UNL     1      20.281  -1.289 193.497  0.00  0.00    +0.000 A 
ENDBRANCH   1   5
BRANCH   2  10
ATOM     10  C   UNL     1      20.354   2.136 188.261  0.00  0.00    +0.000 A 
ATOM     11  C   UNL     1      19.272   2.630 187.535  0.00  0.00    +0.000 A 
ATOM     12  C   UNL     1      21.643   2.221 187.739  0.00  0.00    +0.000 A 
ATOM     13  C   UNL     1      19.480   3.208 186.284  0.00  0.00    +0.000 A 
ATOM     14  C   UNL     1      21.850   2.800 186.489  0.00  0.00    +0.000 A 
ATOM     15  C   UNL     1      20.768   3.294 185.763  0.00  0.00    +0.000 A 
ENDBRANCH   2  10
TORSDOF 2
ENDMDL
MODEL 3
REMARK VINA RESULT:      -6.8      2.743      7.745
REMARK  Name = 6440856_Goniothalamin.pdbqt.pdb
REMARK  2 active torsions:
REMARK  status: ('A' for Active; 'I' for Inactive)
REMARK    1  A    between atoms: C_1  and  C_5
REMARK    2  A    between atoms: C_2  and  C_10
REMARK                            x       y       z     vdW  Elec       q    Type
REMARK                         _______ _______ _______ _____ _____    ______ ____
ROOT
ATOM      1  C   UNL     1      20.063   2.038 190.079  0.00  0.00    +0.000 C 
ATOM      2  C   UNL     1      19.957   1.753 191.240  0.00  0.00    +0.000 C 
ENDROOT
BRANCH   1   5
ATOM      3  O   UNL     1      21.500   2.332 188.111  0.00  0.00    +0.000 OA
ATOM      4  O   UNL     1      22.665   2.669 186.135  0.00  0.00    +0.000 OA
ATOM      5  C   UNL     1      20.191   2.370 188.710  0.00  0.00    +0.000 A 
ATOM      6  C   UNL     1      19.133   2.749 187.839  0.00  0.00    +0.000 A 
ATOM      7  C   UNL     1      19.185   3.116 186.374  0.00  0.00    +0.000 A 
ATOM      8  C   UNL     1      20.352   3.009 186.130  0.00  0.00    +0.000 A 
ATOM      9  C   UNL     1      21.613   2.663 186.756  0.00  0.00    +0.000 A 
ENDBRANCH   1   5
BRANCH   2  10
ATOM     10  C   UNL     1      19.831   1.416 192.620  0.00  0.00    +0.000 A 
ATOM     11  C   UNL     1      20.866   1.710 193.506  0.00  0.00    +0.000 A 
ATOM     12  C   UNL     1      18.674   0.791 193.081  0.00  0.00    +0.000 A 
ATOM     13  C   UNL     1      20.743   1.379 194.853  0.00  0.00    +0.000 A 
ATOM     14  C   UNL     1      18.551   0.461 194.428  0.00  0.00    +0.000 A 
ATOM     15  C   UNL     1      19.586   0.756 195.314  0.00  0.00    +0.000 A 
ENDBRANCH   2  10
TORSDOF 2
ENDMDL
MODEL 4
REMARK VINA RESULT:      -6.3      2.695      4.220
REMARK  Name = 6440856_Goniothalamin.pdbqt.pdb
REMARK  2 active torsions:
REMARK  status: ('A' for Active; 'I' for Inactive)
REMARK    1  A    between atoms: C_1  and  C_5
REMARK    2  A    between atoms: C_2  and  C_10
REMARK                            x       y       z     vdW  Elec       q    Type
REMARK                         _______ _______ _______ _____ _____    ______ ____
ROOT
ATOM      1  C   UNL     1      20.098   2.177 191.274  0.00  0.00    +0.000 C 
ATOM      2  C   UNL     1      20.158   2.600 190.152  0.00  0.00    +0.000 C 
ENDROOT
BRANCH   1   5
ATOM      3  O   UNL     1      18.922   0.822 192.949  0.00  0.00    +0.000 OA
ATOM      4  O   UNL     1      17.979  -0.397 194.681  0.00  0.00    +0.000 OA
ATOM      5  C   UNL     1      20.027   1.675 192.594  0.00  0.00    +0.000 A 
ATOM      6  C   UNL     1      20.959   1.929 193.637  0.00  0.00    +0.000 A 
ATOM      7  C   UNL     1      20.958   1.434 195.065  0.00  0.00    +0.000 A 
ATOM      8  C   UNL     1      19.963   0.768 195.098  0.00  0.00    +0.000 A 
ATOM      9  C   UNL     1      18.864   0.332 194.259  0.00  0.00    +0.000 A 
ENDBRANCH   1   5
BRANCH   2  10
ATOM     10  C   UNL     1      20.231   3.103 188.819  0.00  0.00    +0.000 A 
ATOM     11  C   UNL     1      21.028   4.209 188.536  0.00  0.00    +0.000 A 
ATOM     12  C   UNL     1      19.505   2.485 187.803  0.00  0.00    +0.000 A 
ATOM     13  C   UNL     1      21.097   4.701 187.234  0.00  0.00    +0.000 A 
ATOM     14  C   UNL     1      19.576   2.977 186.501  0.00  0.00    +0.000 A 
ATOM     15  C   UNL     1      20.372   4.084 186.218  0.00  0.00    +0.000 A 
ENDBRANCH   2  10
TORSDOF 2
ENDMDL
MODEL 5
REMARK VINA RESULT:      -6.1      3.744      4.898
REMARK  Name = 6440856_Goniothalamin.pdbqt.pdb
REMARK  2 active torsions:
REMARK  status: ('A' for Active; 'I' for Inactive)
REMARK    1  A    between atoms: C_1  and  C_5
REMARK    2  A    between atoms: C_2  and  C_10
REMARK                            x       y       z     vdW  Elec       q    Type
REMARK                         _______ _______ _______ _____ _____    ______ ____
ROOT
ATOM      1  C   UNL     1      20.859   2.065 191.400  0.00  0.00    +0.000 C 
ATOM      2  C   UNL     1      21.297   2.899 190.655  0.00  0.00    +0.000 C 
ENDROOT
BRANCH   1   5
ATOM      3  O   UNL     1      21.030  -0.183 192.368  0.00  0.00    +0.000 OA
ATOM      4  O   UNL     1      21.000  -2.257 193.404  0.00  0.00    +0.000 OA
ATOM      5  C   UNL     1      20.346   1.080 192.275  0.00  0.00    +0.000 A 
ATOM      6  C   UNL     1      19.193   1.210 193.097  0.00  0.00    +0.000 A 
ATOM      7  C   UNL     1      18.582   0.213 194.054  0.00  0.00    +0.000 A 
ATOM      8  C   UNL     1      19.320  -0.724 193.944  0.00  0.00    +0.000 A 
ATOM      9  C   UNL     1      20.512  -1.150 193.238  0.00  0.00    +0.000 A 
ENDBRANCH   1   5
BRANCH   2  10
ATOM     10  C   UNL     1      21.817   3.889 189.771  0.00  0.00    +0.000 A 
ATOM     11  C   UNL     1      20.950   4.653 188.994  0.00  0.00    +0.000 A 
ATOM     12  C   UNL     1      23.193   4.092 189.686  0.00  0.00    +0.000 A 
ATOM     13  C   UNL     1      21.459   5.620 188.130  0.00  0.00    +0.000 A 
ATOM     14  C   UNL     1      23.702   5.059 188.823  0.00  0.00    +0.000 A 
ATOM     15  C   UNL     1      22.834   5.823 188.045  0.00  0.00    +0.000 A 
ENDBRANCH   2  10
TORSDOF 2
ENDMDL
MODEL 6
REMARK VINA RESULT:      -6.1      4.489      6.852
REMARK  Name = 6440856_Goniothalamin.pdbqt.pdb
REMARK  2 active torsions:
REMARK  status: ('A' for Active; 'I' for Inactive)
REMARK    1  A    between atoms: C_1  and  C_5
REMARK    2  A    between atoms: C_2  and  C_10
REMARK                            x       y       z     vdW  Elec       q    Type
REMARK                         _______ _______ _______ _____ _____    ______ ____
ROOT
ATOM      1  C   UNL     1      18.892   0.788 193.286  0.00  0.00    +0.000 C 
ATOM      2  C   UNL     1      18.806   1.221 192.170  0.00  0.00    +0.000 C 
ENDROOT
BRANCH   1   5
ATOM      3  O   UNL     1      19.688  -0.972 194.800  0.00  0.00    +0.000 OA
ATOM      4  O   UNL     1      20.343  -2.514 196.403  0.00  0.00    +0.000 OA
ATOM      5  C   UNL     1      18.994   0.274 194.599  0.00  0.00    +0.000 A 
ATOM      6  C   UNL     1      18.469   0.874 195.776  0.00  0.00    +0.000 A 
ATOM      7  C   UNL     1      18.535   0.394 197.207  0.00  0.00    +0.000 A 
ATOM      8  C   UNL     1      19.145  -0.631 197.100  0.00  0.00    +0.000 A 
ATOM      9  C   UNL     1      19.782  -1.471 196.104  0.00  0.00    +0.000 A 
ENDBRANCH   1   5
BRANCH   2  10
ATOM     10  C   UNL     1      18.705   1.736 190.844  0.00  0.00    +0.000 A 
ATOM     11  C   UNL     1      19.548   2.766 190.431  0.00  0.00    +0.000 A 
ATOM     12  C   UNL     1      17.763   1.208 189.963  0.00  0.00    +0.000 A 
ATOM     13  C   UNL     1      19.447   3.269 189.136  0.00  0.00    +0.000 A 
ATOM     14  C   UNL     1      17.664   1.711 188.668  0.00  0.00    +0.000 A 
ATOM     15  C   UNL     1      18.507   2.741 188.255  0.00  0.00    +0.000 A 
ENDBRANCH   2  10
TORSDOF 2
ENDMDL
MODEL 7
REMARK VINA RESULT:      -5.8     17.346     21.051
REMARK  Name = 6440856_Goniothalamin.pdbqt.pdb
REMARK  2 active torsions:
REMARK  status: ('A' for Active; 'I' for Inactive)
REMARK    1  A    between atoms: C_1  and  C_5
REMARK    2  A    between atoms: C_2  and  C_10
REMARK                            x       y       z     vdW  Elec       q    Type
REMARK                         _______ _______ _______ _____ _____    ______ ____
ROOT
ATOM      1  C   UNL     1      25.112   9.079 168.030  0.00  0.00    +0.000 C 
ATOM      2  C   UNL     1      25.041   9.054 166.832  0.00  0.00    +0.000 C 
ENDROOT
BRANCH   1   5
ATOM      3  O   UNL     1      26.482   9.344 170.049  0.00  0.00    +0.000 OA
ATOM      4  O   UNL     1      27.580   9.561 172.079  0.00  0.00    +0.000 OA
ATOM      5  C   UNL     1      25.197   9.111 169.441  0.00  0.00    +0.000 A 
ATOM      6  C   UNL     1      24.117   8.935 170.349  0.00  0.00    +0.000 A 
ATOM      7  C   UNL     1      24.122   8.956 171.859  0.00  0.00    +0.000 A 
ATOM      8  C   UNL     1      25.277   9.160 172.103  0.00  0.00    +0.000 A 
ATOM      9  C   UNL     1      26.552   9.374 171.447  0.00  0.00    +0.000 A 
ENDBRANCH   1   5
BRANCH   2  10
ATOM     10  C   UNL     1      24.956   9.025 165.408  0.00  0.00    +0.000 A 
ATOM     11  C   UNL     1      23.807   8.537 164.790  0.00  0.00    +0.000 A 
ATOM     12  C   UNL     1      26.022   9.486 164.639  0.00  0.00    +0.000 A 
ATOM     13  C   UNL     1      23.725   8.509 163.399  0.00  0.00    +0.000 A 
ATOM     14  C   UNL     1      25.939   9.457 163.248  0.00  0.00    +0.000 A 
ATOM     15  C   UNL     1      24.790   8.969 162.630  0.00  0.00    +0.000 A 
ENDBRANCH   2  10
TORSDOF 2
ENDMDL
MODEL 8
REMARK VINA RESULT:      -5.7     21.913     23.100
REMARK  Name = 6440856_Goniothalamin.pdbqt.pdb
REMARK  2 active torsions:
REMARK  status: ('A' for Active; 'I' for Inactive)
REMARK    1  A    between atoms: C_1  and  C_5
REMARK    2  A    between atoms: C_2  and  C_10
REMARK                            x       y       z     vdW  Elec       q    Type
REMARK                         _______ _______ _______ _____ _____    ______ ____
ROOT
ATOM      1  C   UNL     1      14.834 -17.393 179.122  0.00  0.00    +0.000 C 
ATOM      2  C   UNL     1      14.305 -16.324 179.263  0.00  0.00    +0.000 C 
ENDROOT
BRANCH   1   5
ATOM      3  O   UNL     1      15.474 -19.562 180.074  0.00  0.00    +0.000 OA
ATOM      4  O   UNL     1      16.173 -21.662 180.766  0.00  0.00    +0.000 OA
ATOM      5  C   UNL     1      15.453 -18.653 178.957  0.00  0.00    +0.000 A 
ATOM      6  C   UNL     1      16.073 -19.132 177.771  0.00  0.00    +0.000 A 
ATOM      7  C   UNL     1      16.751 -20.457 177.512  0.00  0.00    +0.000 A 
ATOM      8  C   UNL     1      16.636 -21.008 178.569  0.00  0.00    +0.000 A 
ATOM      9  C   UNL     1      16.090 -20.807 179.898  0.00  0.00    +0.000 A 
ENDBRANCH   1   5
BRANCH   2  10
ATOM     10  C   UNL     1      13.677 -15.055 179.430  0.00  0.00    +0.000 A 
ATOM     11  C   UNL     1      13.065 -14.734 180.639  0.00  0.00    +0.000 A 
ATOM     12  C   UNL     1      13.677 -14.136 178.382  0.00  0.00    +0.000 A 
ATOM     13  C   UNL     1      12.451 -13.494 180.801  0.00  0.00    +0.000 A 
ATOM     14  C   UNL     1      13.064 -12.896 178.545  0.00  0.00    +0.000 A 
ATOM     15  C   UNL     1      12.452 -12.576 179.754  0.00  0.00    +0.000 A 
ENDBRANCH   2  10
TORSDOF 2
ENDMDL
MODEL 9
REMARK VINA RESULT:      -5.7     32.913     34.349
REMARK  Name = 6440856_Goniothalamin.pdbqt.pdb
REMARK  2 active torsions:
REMARK  status: ('A' for Active; 'I' for Inactive)
REMARK    1  A    between atoms: C_1  and  C_5
REMARK    2  A    between atoms: C_2  and  C_10
REMARK                            x       y       z     vdW  Elec       q    Type
REMARK                         _______ _______ _______ _____ _____    ______ ____
ROOT
ATOM      1  C   UNL     1      39.706 -20.828 172.789  0.00  0.00    +0.000 C 
ATOM      2  C   UNL     1      39.991 -20.474 171.677  0.00  0.00    +0.000 C 
ENDROOT
BRANCH   1   5
ATOM      3  O   UNL     1      39.706 -22.591 174.496  0.00  0.00    +0.000 OA
ATOM      4  O   UNL     1      39.599 -24.103 176.250  0.00  0.00    +0.000 OA
ATOM      5  C   UNL     1      39.375 -21.247 174.098  0.00  0.00    +0.000 A 
ATOM      6  C   UNL     1      38.734 -20.458 175.092  0.00  0.00    +0.000 A 
ATOM      7  C   UNL     1      38.348 -20.826 176.505  0.00  0.00    +0.000 A 
ATOM      8  C   UNL     1      38.721 -21.962 176.579  0.00  0.00    +0.000 A 
ATOM      9  C   UNL     1      39.373 -22.993 175.795  0.00  0.00    +0.000 A 
ENDBRANCH   1   5
BRANCH   2  10
ATOM     10  C   UNL     1      40.328 -20.052 170.357  0.00  0.00    +0.000 A 
ATOM     11  C   UNL     1      41.312 -19.084 170.167  0.00  0.00    +0.000 A 
ATOM     12  C   UNL     1      39.675 -20.610 169.261  0.00  0.00    +0.000 A 
ATOM     13  C   UNL     1      41.640 -18.672 168.877  0.00  0.00    +0.000 A 
ATOM     14  C   UNL     1      40.004 -20.198 167.971  0.00  0.00    +0.000 A 
ATOM     15  C   UNL     1      40.988 -19.229 167.781  0.00  0.00    +0.000 A 
ENDBRANCH   2  10
TORSDOF 2
ENDMDL
