MODEL 1
REMARK VINA RESULT:      -4.2      0.000      0.000
REMARK  Name = 649_Dihydrouracil.pdb
REMARK  0 active torsions:
REMARK  status: ('A' for Active; 'I' for Inactive)
REMARK                            x       y       z     vdW  Elec       q    Type
REMARK                         _______ _______ _______ _____ _____    ______ ____
ROOT
ATOM      1  O   UNL     1      21.405   3.260 184.713  0.00  0.00    +0.000 OA
ATOM      2  O   UNL     1      21.269   6.014 188.413  0.00  0.00    +0.000 OA
ATOM      3  N   UNL     1      19.625   4.429 188.206  0.00  0.00    +0.000 N 
ATOM      4  N   UNL     1      21.319   4.632 186.578  0.00  0.00    +0.000 N 
ATOM      5  C   UNL     1      19.072   3.419 187.522  0.00  0.00    +0.000 A 
ATOM      6  C   UNL     1      19.681   2.950 186.240  0.00  0.00    +0.000 A 
ATOM      7  C   UNL     1      20.866   3.600 185.755  0.00  0.00    +0.000 A 
ATOM      8  C   UNL     1      20.770   5.091 187.781  0.00  0.00    +0.000 A 
ATOM      9  H   UNL     1      19.205   4.739 189.074  0.00  0.00    +0.000 HD
ATOM     10  H   UNL     1      22.150   5.109 186.265  0.00  0.00    +0.000 HD
ENDROOT
TORSDOF 0
ENDMDL
MODEL 2
REMARK VINA RESULT:      -4.2      1.912      3.089
REMARK  Name = 649_Dihydrouracil.pdb
REMARK  0 active torsions:
REMARK  status: ('A' for Active; 'I' for Inactive)
REMARK                            x       y       z     vdW  Elec       q    Type
REMARK                         _______ _______ _______ _____ _____    ______ ____
ROOT
ATOM      1  O   UNL     1      18.048   2.648 187.664  0.00  0.00    +0.000 OA
ATOM      2  O   UNL     1      21.398   3.435 184.590  0.00  0.00    +0.000 OA
ATOM      3  N   UNL     1      21.376   4.718 186.491  0.00  0.00    +0.000 N 
ATOM      4  N   UNL     1      19.738   3.059 186.134  0.00  0.00    +0.000 N 
ATOM      5  C   UNL     1      20.814   5.036 187.664  0.00  0.00    +0.000 A 
ATOM      6  C   UNL     1      19.598   4.312 188.143  0.00  0.00    +0.000 A 
ATOM      7  C   UNL     1      19.041   3.272 187.324  0.00  0.00    +0.000 A 
ATOM      8  C   UNL     1      20.877   3.720 185.662  0.00  0.00    +0.000 A 
ATOM      9  H   UNL     1      22.200   5.214 186.176  0.00  0.00    +0.000 HD
ATOM     10  H   UNL     1      19.373   2.335 185.536  0.00  0.00    +0.000 HD
ENDROOT
TORSDOF 0
ENDMDL
MODEL 3
REMARK VINA RESULT:      -4.0      1.560      2.862
REMARK  Name = 649_Dihydrouracil.pdb
REMARK  0 active torsions:
REMARK  status: ('A' for Active; 'I' for Inactive)
REMARK                            x       y       z     vdW  Elec       q    Type
REMARK                         _______ _______ _______ _____ _____    ______ ____
ROOT
ATOM      1  O   UNL     1      20.069   5.064 188.824  0.00  0.00    +0.000 OA
ATOM      2  O   UNL     1      22.948   5.592 185.256  0.00  0.00    +0.000 OA
ATOM      3  N   UNL     1      21.346   3.960 185.097  0.00  0.00    +0.000 N 
ATOM      4  N   UNL     1      21.504   5.313 187.022  0.00  0.00    +0.000 N 
ATOM      5  C   UNL     1      20.309   3.301 185.631  0.00  0.00    +0.000 A 
ATOM      6  C   UNL     1      19.801   3.663 186.989  0.00  0.00    +0.000 A 
ATOM      7  C   UNL     1      20.442   4.726 187.710  0.00  0.00    +0.000 A 
ATOM      8  C   UNL     1      22.000   4.995 185.753  0.00  0.00    +0.000 A 
ATOM      9  H   UNL     1      21.682   3.707 184.176  0.00  0.00    +0.000 HD
ATOM     10  H   UNL     1      21.976   6.063 187.502  0.00  0.00    +0.000 HD
ENDROOT
TORSDOF 0
ENDMDL
MODEL 4
REMARK VINA RESULT:      -4.0     30.492     31.608
REMARK  Name = 649_Dihydrouracil.pdb
REMARK  0 active torsions:
REMARK  status: ('A' for Active; 'I' for Inactive)
REMARK                            x       y       z     vdW  Elec       q    Type
REMARK                         _______ _______ _______ _____ _____    ______ ____
ROOT
ATOM      1  O   UNL     1      44.838  -7.457 167.467  0.00  0.00    +0.000 OA
ATOM      2  O   UNL     1      41.106  -6.327 164.998  0.00  0.00    +0.000 OA
ATOM      3  N   UNL     1      41.066  -5.887 167.248  0.00  0.00    +0.000 N 
ATOM      4  N   UNL     1      42.955  -6.882 166.246  0.00  0.00    +0.000 N 
ATOM      5  C   UNL     1      41.669  -5.920 168.444  0.00  0.00    +0.000 A 
ATOM      6  C   UNL     1      43.047  -6.481 168.582  0.00  0.00    +0.000 A 
ATOM      7  C   UNL     1      43.712  -6.986 167.413  0.00  0.00    +0.000 A 
ATOM      8  C   UNL     1      41.666  -6.361 166.088  0.00  0.00    +0.000 A 
ATOM      9  H   UNL     1      40.133  -5.503 167.166  0.00  0.00    +0.000 HD
ATOM     10  H   UNL     1      43.393  -7.228 165.407  0.00  0.00    +0.000 HD
ENDROOT
TORSDOF 0
ENDMDL
MODEL 5
REMARK VINA RESULT:      -4.0     29.927     30.606
REMARK  Name = 649_Dihydrouracil.pdb
REMARK  0 active torsions:
REMARK  status: ('A' for Active; 'I' for Inactive)
REMARK                            x       y       z     vdW  Elec       q    Type
REMARK                         _______ _______ _______ _____ _____    ______ ____
ROOT
ATOM      1  O   UNL     1      38.679  -6.081 165.864  0.00  0.00    +0.000 OA
ATOM      2  O   UNL     1      42.083  -5.641 168.948  0.00  0.00    +0.000 OA
ATOM      3  N   UNL     1      42.390  -7.130 167.232  0.00  0.00    +0.000 N 
ATOM      4  N   UNL     1      40.400  -5.876 167.401  0.00  0.00    +0.000 N 
ATOM      5  C   UNL     1      41.934  -7.724 166.121  0.00  0.00    +0.000 A 
ATOM      6  C   UNL     1      40.586  -7.378 165.576  0.00  0.00    +0.000 A 
ATOM      7  C   UNL     1      39.788  -6.401 166.263  0.00  0.00    +0.000 A 
ATOM      8  C   UNL     1      41.658  -6.179 167.933  0.00  0.00    +0.000 A 
ATOM      9  H   UNL     1      43.305  -7.371 167.592  0.00  0.00    +0.000 HD
ATOM     10  H   UNL     1      39.866  -5.186 167.907  0.00  0.00    +0.000 HD
ENDROOT
TORSDOF 0
ENDMDL
MODEL 6
REMARK VINA RESULT:      -3.9      1.632      2.508
REMARK  Name = 649_Dihydrouracil.pdb
REMARK  0 active torsions:
REMARK  status: ('A' for Active; 'I' for Inactive)
REMARK                            x       y       z     vdW  Elec       q    Type
REMARK                         _______ _______ _______ _____ _____    ______ ____
ROOT
ATOM      1  O   UNL     1      18.057   2.816 188.534  0.00  0.00    +0.000 OA
ATOM      2  O   UNL     1      21.365   6.014 188.181  0.00  0.00    +0.000 OA
ATOM      3  N   UNL     1      21.118   4.543 186.439  0.00  0.00    +0.000 N 
ATOM      4  N   UNL     1      19.723   4.414 188.337  0.00  0.00    +0.000 N 
ATOM      5  C   UNL     1      20.484   3.499 185.889  0.00  0.00    +0.000 A 
ATOM      6  C   UNL     1      19.359   2.830 186.609  0.00  0.00    +0.000 A 
ATOM      7  C   UNL     1      18.969   3.324 187.900  0.00  0.00    +0.000 A 
ATOM      8  C   UNL     1      20.780   5.059 187.684  0.00  0.00    +0.000 A 
ATOM      9  H   UNL     1      21.879   4.989 185.942  0.00  0.00    +0.000 HD
ATOM     10  H   UNL     1      19.475   4.784 189.240  0.00  0.00    +0.000 HD
ENDROOT
TORSDOF 0
ENDMDL
MODEL 7
REMARK VINA RESULT:      -3.9     16.656     17.738
REMARK  Name = 649_Dihydrouracil.pdb
REMARK  0 active torsions:
REMARK  status: ('A' for Active; 'I' for Inactive)
REMARK                            x       y       z     vdW  Elec       q    Type
REMARK                         _______ _______ _______ _____ _____    ______ ____
ROOT
ATOM      1  O   UNL     1      25.602   8.809 168.222  0.00  0.00    +0.000 OA
ATOM      2  O   UNL     1      27.642   9.480 172.306  0.00  0.00    +0.000 OA
ATOM      3  N   UNL     1      25.354   9.338 172.271  0.00  0.00    +0.000 N 
ATOM      4  N   UNL     1      26.606   9.146 170.282  0.00  0.00    +0.000 N 
ATOM      5  C   UNL     1      24.216   9.177 171.583  0.00  0.00    +0.000 A 
ATOM      6  C   UNL     1      24.248   8.980 170.103  0.00  0.00    +0.000 A 
ATOM      7  C   UNL     1      25.517   8.965 169.430  0.00  0.00    +0.000 A 
ATOM      8  C   UNL     1      26.606   9.332 171.669  0.00  0.00    +0.000 A 
ATOM      9  H   UNL     1      25.321   9.471 173.274  0.00  0.00    +0.000 HD
ATOM     10  H   UNL     1      27.513   9.141 169.841  0.00  0.00    +0.000 HD
ENDROOT
TORSDOF 0
ENDMDL
MODEL 8
REMARK VINA RESULT:      -3.8     30.720     32.035
REMARK  Name = 649_Dihydrouracil.pdb
REMARK  0 active torsions:
REMARK  status: ('A' for Active; 'I' for Inactive)
REMARK                            x       y       z     vdW  Elec       q    Type
REMARK                         _______ _______ _______ _____ _____    ______ ____
ROOT
ATOM      1  O   UNL     1      44.009  -3.728 165.238  0.00  0.00    +0.000 OA
ATOM      2  O   UNL     1      41.903  -5.642 168.871  0.00  0.00    +0.000 OA
ATOM      3  N   UNL     1      43.610  -6.818 167.890  0.00  0.00    +0.000 N 
ATOM      4  N   UNL     1      42.965  -4.707 167.060  0.00  0.00    +0.000 N 
ATOM      5  C   UNL     1      44.555  -6.913 166.945  0.00  0.00    +0.000 A 
ATOM      6  C   UNL     1      44.746  -5.813 165.951  0.00  0.00    +0.000 A 
ATOM      7  C   UNL     1      43.899  -4.656 166.025  0.00  0.00    +0.000 A 
ATOM      8  C   UNL     1      42.766  -5.721 168.004  0.00  0.00    +0.000 A 
ATOM      9  H   UNL     1      43.490  -7.569 168.558  0.00  0.00    +0.000 HD
ATOM     10  H   UNL     1      42.355  -3.909 167.139  0.00  0.00    +0.000 HD
ENDROOT
TORSDOF 0
ENDMDL
MODEL 9
REMARK VINA RESULT:      -3.8     32.234     33.573
REMARK  Name = 649_Dihydrouracil.pdb
REMARK  0 active torsions:
REMARK  status: ('A' for Active; 'I' for Inactive)
REMARK                            x       y       z     vdW  Elec       q    Type
REMARK                         _______ _______ _______ _____ _____    ______ ____
ROOT
ATOM      1  O   UNL     1      44.310  -0.938 167.553  0.00  0.00    +0.000 OA
ATOM      2  O   UNL     1      47.111  -3.638 165.072  0.00  0.00    +0.000 OA
ATOM      3  N   UNL     1      48.047  -2.408 166.766  0.00  0.00    +0.000 N 
ATOM      4  N   UNL     1      45.734  -2.287 166.320  0.00  0.00    +0.000 N 
ATOM      5  C   UNL     1      47.910  -1.530 167.769  0.00  0.00    +0.000 A 
ATOM      6  C   UNL     1      46.569  -0.962 168.101  0.00  0.00    +0.000 A 
ATOM      7  C   UNL     1      45.430  -1.370 167.327  0.00  0.00    +0.000 A 
ATOM      8  C   UNL     1      46.978  -2.835 165.988  0.00  0.00    +0.000 A 
ATOM      9  H   UNL     1      48.960  -2.787 166.550  0.00  0.00    +0.000 HD
ATOM     10  H   UNL     1      44.956  -2.594 165.758  0.00  0.00    +0.000 HD
ENDROOT
TORSDOF 0
ENDMDL
