MODEL 1
REMARK VINA RESULT:     -10.0      0.000      0.000
REMARK  Name = 6509753_ManzamineA.pdbqt.pdb
REMARK  2 active torsions:
REMARK  status: ('A' for Active; 'I' for Inactive)
REMARK    1  A    between atoms: C_7  and  O_42
REMARK    2  A    between atoms: C_11  and  C_30
REMARK                            x       y       z     vdW  Elec       q    Type
REMARK                         _______ _______ _______ _____ _____    ______ ____
ROOT
ATOM      1  N   UNL     1      28.387   2.903 193.097  0.00  0.00    +0.000 N 
ATOM      2  N   UNL     1      26.524  -1.717 192.908  0.00  0.00    +0.000 N 
ATOM      3  C   UNL     1      26.651   1.137 192.571  0.00  0.00    +0.000 C 
ATOM      4  C   UNL     1      27.146   2.235 193.567  0.00  0.00    +0.000 C 
ATOM      5  C   UNL     1      25.149   1.175 192.067  0.00  0.00    +0.000 C 
ATOM      6  C   UNL     1      27.571   1.470 191.488  0.00  0.00    +0.000 C 
ATOM      7  C   UNL     1      26.111   3.093 194.300  0.00  0.00    +0.000 C 
ATOM      8  C   UNL     1      26.908  -0.272 193.033  0.00  0.00    +0.000 C 
ATOM      9  C   UNL     1      28.680   2.284 191.785  0.00  0.00    +0.000 C 
ATOM     10  C   UNL     1      24.613  -0.132 191.783  0.00  0.00    +0.000 C 
ATOM     11  C   UNL     1      24.278   2.195 192.635  0.00  0.00    +0.000 C 
ATOM     12  C   UNL     1      24.881   2.862 193.569  0.00  0.00    +0.000 C 
ATOM     13  C   UNL     1      25.250  -1.454 192.222  0.00  0.00    +0.000 C 
ATOM     14  C   UNL     1      29.485   2.760 194.056  0.00  0.00    +0.000 C 
ATOM     15  C   UNL     1      26.053   2.727 195.712  0.00  0.00    +0.000 C 
ATOM     16  C   UNL     1      30.019   2.054 191.349  0.00  0.00    +0.000 C 
ATOM     17  C   UNL     1      26.230  -2.215 194.242  0.00  0.00    +0.000 C 
ATOM     18  C   UNL     1      30.921   2.526 194.564  0.00  0.00    +0.000 C 
ATOM     19  C   UNL     1      25.944   2.175 197.135  0.00  0.00    +0.000 C 
ATOM     20  C   UNL     1      31.205   1.891 191.450  0.00  0.00    +0.000 C 
ATOM     21  C   UNL     1      32.249   2.148 193.912  0.00  0.00    +0.000 C 
ATOM     22  C   UNL     1      25.975  -2.570 195.709  0.00  0.00    +0.000 C 
ATOM     23  C   UNL     1      32.387   1.860 192.422  0.00  0.00    +0.000 C 
ATOM     24  C   UNL     1      25.807   1.187 198.291  0.00  0.00    +0.000 C 
ATOM     25  C   UNL     1      25.781  -2.390 197.212  0.00  0.00    +0.000 C 
ATOM     26  C   UNL     1      25.686  -1.432 198.387  0.00  0.00    +0.000 C 
ATOM     27  C   UNL     1      25.722   0.058 198.680  0.00  0.00    +0.000 C 
ENDROOT
BRANCH  11  30
ATOM     28  N   UNL     1      21.954   1.840 193.233  0.00  0.00    +0.000 NA
ATOM     29  N   UNL     1      23.101   3.666 190.226  0.00  0.00    +0.000 N 
ATOM     30  C   UNL     1      22.856   2.362 192.371  0.00  0.00    +0.000 A 
ATOM     31  C   UNL     1      22.411   3.039 191.238  0.00  0.00    +0.000 A 
ATOM     32  C   UNL     1      21.052   3.194 190.963  0.00  0.00    +0.000 A 
ATOM     33  C   UNL     1      20.640   1.994 192.960  0.00  0.00    +0.000 A 
ATOM     34  C   UNL     1      20.114   2.650 191.855  0.00  0.00    +0.000 A 
ATOM     35  C   UNL     1      20.941   3.929 189.743  0.00  0.00    +0.000 A 
ATOM     36  C   UNL     1      22.235   4.209 189.307  0.00  0.00    +0.000 A 
ATOM     37  C   UNL     1      19.855   4.383 188.973  0.00  0.00    +0.000 A 
ATOM     38  C   UNL     1      22.505   4.924 188.137  0.00  0.00    +0.000 A 
ATOM     39  C   UNL     1      20.105   5.099 187.799  0.00  0.00    +0.000 A 
ATOM     40  C   UNL     1      21.408   5.363 187.393  0.00  0.00    +0.000 A 
ATOM     41  H   UNL     1      24.108   3.730 190.167  0.00  0.00    +0.000 HD
ENDBRANCH  11  30
BRANCH   7  42
ATOM     42  O   UNL     1      26.427   4.472 194.191  0.00  0.00    +0.000 OA
ATOM     43  H   UNL     1      27.006   4.555 193.414  0.00  0.00    +0.000 HD
ENDBRANCH   7  42
TORSDOF 2
ENDMDL
MODEL 2
REMARK VINA RESULT:      -9.7      2.018      5.699
REMARK  Name = 6509753_ManzamineA.pdbqt.pdb
REMARK  2 active torsions:
REMARK  status: ('A' for Active; 'I' for Inactive)
REMARK    1  A    between atoms: C_7  and  O_42
REMARK    2  A    between atoms: C_11  and  C_30
REMARK                            x       y       z     vdW  Elec       q    Type
REMARK                         _______ _______ _______ _____ _____    ______ ____
ROOT
ATOM      1  N   UNL     1      24.873  -1.380 194.213  0.00  0.00    +0.000 N 
ATOM      2  N   UNL     1      26.679   3.094 195.464  0.00  0.00    +0.000 N 
ATOM      3  C   UNL     1      25.048   1.144 194.119  0.00  0.00    +0.000 C 
ATOM      4  C   UNL     1      25.454  -0.225 193.482  0.00  0.00    +0.000 C 
ATOM      5  C   UNL     1      24.415   2.265 193.195  0.00  0.00    +0.000 C 
ATOM      6  C   UNL     1      24.052   0.607 195.041  0.00  0.00    +0.000 C 
ATOM      7  C   UNL     1      25.568  -0.330 191.959  0.00  0.00    +0.000 C 
ATOM      8  C   UNL     1      26.148   1.809 194.901  0.00  0.00    +0.000 C 
ATOM      9  C   UNL     1      24.054  -0.778 195.289  0.00  0.00    +0.000 C 
ATOM     10  C   UNL     1      24.724   3.602 193.634  0.00  0.00    +0.000 C 
ATOM     11  C   UNL     1      24.327   1.985 191.769  0.00  0.00    +0.000 C 
ATOM     12  C   UNL     1      24.896   0.859 191.474  0.00  0.00    +0.000 C 
ATOM     13  C   UNL     1      25.807   3.960 194.656  0.00  0.00    +0.000 C 
ATOM     14  C   UNL     1      25.906  -2.288 194.717  0.00  0.00    +0.000 C 
ATOM     15  C   UNL     1      26.967  -0.440 191.558  0.00  0.00    +0.000 C 
ATOM     16  C   UNL     1      23.939  -1.392 196.572  0.00  0.00    +0.000 C 
ATOM     17  C   UNL     1      28.045   3.254 194.993  0.00  0.00    +0.000 C 
ATOM     18  C   UNL     1      26.627  -3.232 195.698  0.00  0.00    +0.000 C 
ATOM     19  C   UNL     1      28.458  -0.392 191.217  0.00  0.00    +0.000 C 
ATOM     20  C   UNL     1      24.243  -2.102 197.493  0.00  0.00    +0.000 C 
ATOM     21  C   UNL     1      26.392  -3.675 197.141  0.00  0.00    +0.000 C 
ATOM     22  C   UNL     1      29.465   3.253 194.419  0.00  0.00    +0.000 C 
ATOM     23  C   UNL     1      25.243  -3.146 197.992  0.00  0.00    +0.000 C 
ATOM     24  C   UNL     1      29.919   0.050 191.201  0.00  0.00    +0.000 C 
ATOM     25  C   UNL     1      30.669   2.833 193.581  0.00  0.00    +0.000 C 
ATOM     26  C   UNL     1      31.230   1.904 192.517  0.00  0.00    +0.000 C 
ATOM     27  C   UNL     1      30.783   0.773 191.606  0.00  0.00    +0.000 C 
ENDROOT
BRANCH  11  30
ATOM     28  N   UNL     1      24.670   3.872 190.283  0.00  0.00    +0.000 NA
ATOM     29  N   UNL     1      21.549   1.895 190.491  0.00  0.00    +0.000 N 
ATOM     30  C   UNL     1      23.852   2.896 190.737  0.00  0.00    +0.000 A 
ATOM     31  C   UNL     1      22.562   2.786 190.221  0.00  0.00    +0.000 A 
ATOM     32  C   UNL     1      22.087   3.661 189.243  0.00  0.00    +0.000 A 
ATOM     33  C   UNL     1      24.203   4.715 189.336  0.00  0.00    +0.000 A 
ATOM     34  C   UNL     1      22.935   4.677 188.774  0.00  0.00    +0.000 A 
ATOM     35  C   UNL     1      20.746   3.275 188.936  0.00  0.00    +0.000 A 
ATOM     36  C   UNL     1      20.439   2.172 189.730  0.00  0.00    +0.000 A 
ATOM     37  C   UNL     1      19.768   3.766 188.052  0.00  0.00    +0.000 A 
ATOM     38  C   UNL     1      19.200   1.525 189.687  0.00  0.00    +0.000 A 
ATOM     39  C   UNL     1      18.523   3.134 187.995  0.00  0.00    +0.000 A 
ATOM     40  C   UNL     1      18.249   2.033 188.799  0.00  0.00    +0.000 A 
ATOM     41  H   UNL     1      21.612   1.132 191.152  0.00  0.00    +0.000 HD
ENDBRANCH  11  30
BRANCH   7  42
ATOM     42  O   UNL     1      24.856  -1.459 191.475  0.00  0.00    +0.000 OA
ATOM     43  H   UNL     1      25.457  -2.217 191.573  0.00  0.00    +0.000 HD
ENDBRANCH   7  42
TORSDOF 2
ENDMDL
MODEL 3
REMARK VINA RESULT:      -9.6      2.886      6.149
REMARK  Name = 6509753_ManzamineA.pdbqt.pdb
REMARK  2 active torsions:
REMARK  status: ('A' for Active; 'I' for Inactive)
REMARK    1  A    between atoms: C_7  and  O_42
REMARK    2  A    between atoms: C_11  and  C_30
REMARK                            x       y       z     vdW  Elec       q    Type
REMARK                         _______ _______ _______ _____ _____    ______ ____
ROOT
ATOM      1  N   UNL     1      22.296  -0.461 195.195  0.00  0.00    +0.000 N 
ATOM      2  N   UNL     1      25.468   3.381 195.049  0.00  0.00    +0.000 N 
ATOM      3  C   UNL     1      23.466   1.524 194.146  0.00  0.00    +0.000 C 
ATOM      4  C   UNL     1      23.405  -0.030 194.307  0.00  0.00    +0.000 C 
ATOM      5  C   UNL     1      23.501   2.146 192.689  0.00  0.00    +0.000 C 
ATOM      6  C   UNL     1      22.192   1.807 194.801  0.00  0.00    +0.000 C 
ATOM      7  C   UNL     1      23.736  -0.914 193.101  0.00  0.00    +0.000 C 
ATOM      8  C   UNL     1      24.582   2.178 194.915  0.00  0.00    +0.000 C 
ATOM      9  C   UNL     1      21.604   0.790 195.577  0.00  0.00    +0.000 C 
ATOM     10  C   UNL     1      24.230   3.387 192.621  0.00  0.00    +0.000 C 
ATOM     11  C   UNL     1      23.564   1.219 191.567  0.00  0.00    +0.000 C 
ATOM     12  C   UNL     1      23.685  -0.005 191.974  0.00  0.00    +0.000 C 
ATOM     13  C   UNL     1      25.167   3.914 193.712  0.00  0.00    +0.000 C 
ATOM     14  C   UNL     1      22.779  -1.225 196.349  0.00  0.00    +0.000 C 
ATOM     15  C   UNL     1      25.025  -1.573 193.290  0.00  0.00    +0.000 C 
ATOM     16  C   UNL     1      21.031   0.962 196.872  0.00  0.00    +0.000 C 
ATOM     17  C   UNL     1      26.846   2.918 195.057  0.00  0.00    +0.000 C 
ATOM     18  C   UNL     1      22.883  -1.695 197.812  0.00  0.00    +0.000 C 
ATOM     19  C   UNL     1      26.449  -2.094 193.496  0.00  0.00    +0.000 C 
ATOM     20  C   UNL     1      20.861   0.763 198.045  0.00  0.00    +0.000 C 
ATOM     21  C   UNL     1      22.240  -1.271 199.131  0.00  0.00    +0.000 C 
ATOM     22  C   UNL     1      28.227   2.257 195.062  0.00  0.00    +0.000 C 
ATOM     23  C   UNL     1      21.262  -0.106 199.238  0.00  0.00    +0.000 C 
ATOM     24  C   UNL     1      27.943  -2.120 193.806  0.00  0.00    +0.000 C 
ATOM     25  C   UNL     1      29.295   1.175 194.940  0.00  0.00    +0.000 C 
ATOM     26  C   UNL     1      29.623  -0.273 194.614  0.00  0.00    +0.000 C 
ATOM     27  C   UNL     1      28.936  -1.546 194.152  0.00  0.00    +0.000 C 
ENDROOT
BRANCH  11  30
ATOM     28  N   UNL     1      24.898   1.598 189.577  0.00  0.00    +0.000 NA
ATOM     29  N   UNL     1      21.217   1.941 189.743  0.00  0.00    +0.000 N 
ATOM     30  C   UNL     1      23.678   1.573 190.160  0.00  0.00    +0.000 A 
ATOM     31  C   UNL     1      22.552   1.900 189.408  0.00  0.00    +0.000 A 
ATOM     32  C   UNL     1      22.646   2.256 188.062  0.00  0.00    +0.000 A 
ATOM     33  C   UNL     1      24.981   1.943 188.273  0.00  0.00    +0.000 A 
ATOM     34  C   UNL     1      23.912   2.285 187.457  0.00  0.00    +0.000 A 
ATOM     35  C   UNL     1      21.323   2.525 187.595  0.00  0.00    +0.000 A 
ATOM     36  C   UNL     1      20.454   2.320 188.665  0.00  0.00    +0.000 A 
ATOM     37  C   UNL     1      20.788   2.920 186.355  0.00  0.00    +0.000 A 
ATOM     38  C   UNL     1      19.070   2.488 188.564  0.00  0.00    +0.000 A 
ATOM     39  C   UNL     1      19.407   3.095 186.235  0.00  0.00    +0.000 A 
ATOM     40  C   UNL     1      18.567   2.881 187.322  0.00  0.00    +0.000 A 
ATOM     41  H   UNL     1      20.844   1.715 190.655  0.00  0.00    +0.000 HD
ENDBRANCH  11  30
BRANCH   7  42
ATOM     42  O   UNL     1      22.735  -1.902 192.908  0.00  0.00    +0.000 OA
ATOM     43  H   UNL     1      22.999  -2.401 192.117  0.00  0.00    +0.000 HD
ENDBRANCH   7  42
TORSDOF 2
ENDMDL
MODEL 4
REMARK VINA RESULT:      -9.4     34.448     37.978
REMARK  Name = 6509753_ManzamineA.pdbqt.pdb
REMARK  2 active torsions:
REMARK  status: ('A' for Active; 'I' for Inactive)
REMARK    1  A    between atoms: C_7  and  O_42
REMARK    2  A    between atoms: C_11  and  C_30
REMARK                            x       y       z     vdW  Elec       q    Type
REMARK                         _______ _______ _______ _____ _____    ______ ____
ROOT
ATOM      1  N   UNL     1      41.974 -21.275 174.090  0.00  0.00    +0.000 N 
ATOM      2  N   UNL     1      40.461 -24.340 170.462  0.00  0.00    +0.000 N 
ATOM      3  C   UNL     1      42.257 -23.030 172.287  0.00  0.00    +0.000 C 
ATOM      4  C   UNL     1      42.354 -21.519 172.675  0.00  0.00    +0.000 C 
ATOM      5  C   UNL     1      43.506 -23.733 171.612  0.00  0.00    +0.000 C 
ATOM      6  C   UNL     1      42.046 -23.534 173.641  0.00  0.00    +0.000 C 
ATOM      7  C   UNL     1      43.487 -20.673 172.087  0.00  0.00    +0.000 C 
ATOM      8  C   UNL     1      41.065 -23.370 171.434  0.00  0.00    +0.000 C 
ATOM      9  C   UNL     1      41.676 -22.616 174.642  0.00  0.00    +0.000 C 
ATOM     10  C   UNL     1      43.139 -24.789 170.702  0.00  0.00    +0.000 C 
ATOM     11  C   UNL     1      44.660 -22.899 171.307  0.00  0.00    +0.000 C 
ATOM     12  C   UNL     1      44.418 -21.651 171.561  0.00  0.00    +0.000 C 
ATOM     13  C   UNL     1      41.728 -25.021 170.153  0.00  0.00    +0.000 C 
ATOM     14  C   UNL     1      40.849 -20.344 174.205  0.00  0.00    +0.000 C 
ATOM     15  C   UNL     1      42.965 -19.739 171.094  0.00  0.00    +0.000 C 
ATOM     16  C   UNL     1      40.646 -22.814 175.609  0.00  0.00    +0.000 C 
ATOM     17  C   UNL     1      40.048 -23.591 169.287  0.00  0.00    +0.000 C 
ATOM     18  C   UNL     1      39.524 -19.758 174.729  0.00  0.00    +0.000 C 
ATOM     19  C   UNL     1      42.359 -18.909 169.960  0.00  0.00    +0.000 C 
ATOM     20  C   UNL     1      39.646 -22.572 176.229  0.00  0.00    +0.000 C 
ATOM     21  C   UNL     1      38.459 -20.215 175.725  0.00  0.00    +0.000 C 
ATOM     22  C   UNL     1      39.664 -22.648 168.143  0.00  0.00    +0.000 C 
ATOM     23  C   UNL     1      38.527 -21.553 176.452  0.00  0.00    +0.000 C 
ATOM     24  C   UNL     1      41.562 -18.538 168.713  0.00  0.00    +0.000 C 
ATOM     25  C   UNL     1      39.567 -21.371 167.313  0.00  0.00    +0.000 C 
ATOM     26  C   UNL     1      39.967 -19.915 167.148  0.00  0.00    +0.000 C 
ATOM     27  C   UNL     1      40.817 -18.857 167.831  0.00  0.00    +0.000 C 
ENDROOT
BRANCH  11  30
ATOM     28  N   UNL     1      46.824 -23.993 171.313  0.00  0.00    +0.000 NA
ATOM     29  N   UNL     1      45.288 -22.381 168.358  0.00  0.00    +0.000 N 
ATOM     30  C   UNL     1      45.875 -23.320 170.625  0.00  0.00    +0.000 A 
ATOM     31  C   UNL     1      46.081 -23.028 169.278  0.00  0.00    +0.000 A 
ATOM     32  C   UNL     1      47.247 -23.412 168.615  0.00  0.00    +0.000 A 
ATOM     33  C   UNL     1      47.950 -24.362 170.664  0.00  0.00    +0.000 A 
ATOM     34  C   UNL     1      48.235 -24.108 169.329  0.00  0.00    +0.000 A 
ATOM     35  C   UNL     1      47.138 -22.966 167.262  0.00  0.00    +0.000 A 
ATOM     36  C   UNL     1      45.907 -22.327 167.132  0.00  0.00    +0.000 A 
ATOM     37  C   UNL     1      47.978 -23.052 166.136  0.00  0.00    +0.000 A 
ATOM     38  C   UNL     1      45.463 -21.766 165.930  0.00  0.00    +0.000 A 
ATOM     39  C   UNL     1      47.552 -22.497 164.926  0.00  0.00    +0.000 A 
ATOM     40  C   UNL     1      46.317 -21.867 164.830  0.00  0.00    +0.000 A 
ATOM     41  H   UNL     1      44.371 -22.003 168.551  0.00  0.00    +0.000 HD
ENDBRANCH  11  30
BRANCH   7  42
ATOM     42  O   UNL     1      44.154 -19.943 173.105  0.00  0.00    +0.000 OA
ATOM     43  H   UNL     1      43.458 -19.599 173.690  0.00  0.00    +0.000 HD
ENDBRANCH   7  42
TORSDOF 2
ENDMDL
MODEL 5
REMARK VINA RESULT:      -9.1      2.175      3.061
REMARK  Name = 6509753_ManzamineA.pdbqt.pdb
REMARK  2 active torsions:
REMARK  status: ('A' for Active; 'I' for Inactive)
REMARK    1  A    between atoms: C_7  and  O_42
REMARK    2  A    between atoms: C_11  and  C_30
REMARK                            x       y       z     vdW  Elec       q    Type
REMARK                         _______ _______ _______ _____ _____    ______ ____
ROOT
ATOM      1  N   UNL     1      26.581   2.275 195.969  0.00  0.00    +0.000 N 
ATOM      2  N   UNL     1      27.308  -2.062 193.623  0.00  0.00    +0.000 N 
ATOM      3  C   UNL     1      26.030   0.411 194.347  0.00  0.00    +0.000 C 
ATOM      4  C   UNL     1      25.795   1.032 195.762  0.00  0.00    +0.000 C 
ATOM      5  C   UNL     1      24.778   0.065 193.440  0.00  0.00    +0.000 C 
ATOM      6  C   UNL     1      26.776   1.538 193.795  0.00  0.00    +0.000 C 
ATOM      7  C   UNL     1      24.395   0.964 196.378  0.00  0.00    +0.000 C 
ATOM      8  C   UNL     1      26.903  -0.815 194.351  0.00  0.00    +0.000 C 
ATOM      9  C   UNL     1      27.288   2.497 194.688  0.00  0.00    +0.000 C 
ATOM     10  C   UNL     1      25.002  -1.062 192.570  0.00  0.00    +0.000 C 
ATOM     11  C   UNL     1      23.457   0.267 194.018  0.00  0.00    +0.000 C 
ATOM     12  C   UNL     1      23.536   0.617 195.264  0.00  0.00    +0.000 C 
ATOM     13  C   UNL     1      26.160  -2.055 192.704  0.00  0.00    +0.000 C 
ATOM     14  C   UNL     1      27.487   2.169 197.114  0.00  0.00    +0.000 C 
ATOM     15  C   UNL     1      24.369   0.010 197.482  0.00  0.00    +0.000 C 
ATOM     16  C   UNL     1      28.603   3.051 194.647  0.00  0.00    +0.000 C 
ATOM     17  C   UNL     1      27.154  -3.181 194.537  0.00  0.00    +0.000 C 
ATOM     18  C   UNL     1      28.780   2.331 197.937  0.00  0.00    +0.000 C 
ATOM     19  C   UNL     1      24.391  -1.119 198.516  0.00  0.00    +0.000 C 
ATOM     20  C   UNL     1      29.692   3.353 195.055  0.00  0.00    +0.000 C 
ATOM     21  C   UNL     1      30.183   2.862 197.650  0.00  0.00    +0.000 C 
ATOM     22  C   UNL     1      26.947  -4.232 195.631  0.00  0.00    +0.000 C 
ATOM     23  C   UNL     1      30.613   3.364 196.276  0.00  0.00    +0.000 C 
ATOM     24  C   UNL     1      24.636  -2.483 199.155  0.00  0.00    +0.000 C 
ATOM     25  C   UNL     1      26.522  -4.848 196.961  0.00  0.00    +0.000 C 
ATOM     26  C   UNL     1      25.829  -4.658 198.300  0.00  0.00    +0.000 C 
ATOM     27  C   UNL     1      25.083  -3.591 199.083  0.00  0.00    +0.000 C 
ENDROOT
BRANCH  11  30
ATOM     28  N   UNL     1      21.521  -1.172 193.765  0.00  0.00    +0.000 NA
ATOM     29  N   UNL     1      22.087   1.950 191.862  0.00  0.00    +0.000 N 
ATOM     30  C   UNL     1      22.181  -0.053 193.393  0.00  0.00    +0.000 A 
ATOM     31  C   UNL     1      21.639   0.769 192.408  0.00  0.00    +0.000 A 
ATOM     32  C   UNL     1      20.425   0.468 191.788  0.00  0.00    +0.000 A 
ATOM     33  C   UNL     1      20.346  -1.457 193.161  0.00  0.00    +0.000 A 
ATOM     34  C   UNL     1      19.740  -0.696 192.172  0.00  0.00    +0.000 A 
ATOM     35  C   UNL     1      20.158   1.503 190.840  0.00  0.00    +0.000 A 
ATOM     36  C   UNL     1      21.211   2.412 190.909  0.00  0.00    +0.000 A 
ATOM     37  C   UNL     1      19.111   1.747 189.932  0.00  0.00    +0.000 A 
ATOM     38  C   UNL     1      21.277   3.562 190.116  0.00  0.00    +0.000 A 
ATOM     39  C   UNL     1      19.159   2.891 189.130  0.00  0.00    +0.000 A 
ATOM     40  C   UNL     1      20.224   3.779 189.225  0.00  0.00    +0.000 A 
ATOM     41  H   UNL     1      22.940   2.423 192.130  0.00  0.00    +0.000 HD
ENDBRANCH  11  30
BRANCH   7  42
ATOM     42  O   UNL     1      23.990   2.238 196.857  0.00  0.00    +0.000 OA
ATOM     43  H   UNL     1      23.864   2.794 196.069  0.00  0.00    +0.000 HD
ENDBRANCH   7  42
TORSDOF 2
ENDMDL
MODEL 6
REMARK VINA RESULT:      -8.5     34.481     38.224
REMARK  Name = 6509753_ManzamineA.pdbqt.pdb
REMARK  2 active torsions:
REMARK  status: ('A' for Active; 'I' for Inactive)
REMARK    1  A    between atoms: C_7  and  O_42
REMARK    2  A    between atoms: C_11  and  C_30
REMARK                            x       y       z     vdW  Elec       q    Type
REMARK                         _______ _______ _______ _____ _____    ______ ____
ROOT
ATOM      1  N   UNL     1      42.040 -21.022 173.421  0.00  0.00    +0.000 N 
ATOM      2  N   UNL     1      40.515 -24.723 170.451  0.00  0.00    +0.000 N 
ATOM      3  C   UNL     1      42.331 -22.970 171.830  0.00  0.00    +0.000 C 
ATOM      4  C   UNL     1      42.273 -21.418 172.008  0.00  0.00    +0.000 C 
ATOM      5  C   UNL     1      43.570 -23.613 171.081  0.00  0.00    +0.000 C 
ATOM      6  C   UNL     1      42.356 -23.298 173.252  0.00  0.00    +0.000 C 
ATOM      7  C   UNL     1      43.203 -20.540 171.167  0.00  0.00    +0.000 C 
ATOM      8  C   UNL     1      41.099 -23.563 171.200  0.00  0.00    +0.000 C 
ATOM      9  C   UNL     1      41.992 -22.297 174.172  0.00  0.00    +0.000 C 
ATOM     10  C   UNL     1      43.237 -24.823 170.371  0.00  0.00    +0.000 C 
ATOM     11  C   UNL     1      44.556 -22.703 170.516  0.00  0.00    +0.000 C 
ATOM     12  C   UNL     1      44.184 -21.468 170.643  0.00  0.00    +0.000 C 
ATOM     13  C   UNL     1      41.813 -25.290 170.057  0.00  0.00    +0.000 C 
ATOM     14  C   UNL     1      40.824 -20.220 173.574  0.00  0.00    +0.000 C 
ATOM     15  C   UNL     1      42.443 -19.822 170.148  0.00  0.00    +0.000 C 
ATOM     16  C   UNL     1      41.124 -22.472 175.291  0.00  0.00    +0.000 C 
ATOM     17  C   UNL     1      39.864 -24.201 169.260  0.00  0.00    +0.000 C 
ATOM     18  C   UNL     1      39.507 -19.722 174.199  0.00  0.00    +0.000 C 
ATOM     19  C   UNL     1      41.599 -19.236 169.014  0.00  0.00    +0.000 C 
ATOM     20  C   UNL     1      40.184 -22.262 176.008  0.00  0.00    +0.000 C 
ATOM     21  C   UNL     1      38.642 -20.153 175.383  0.00  0.00    +0.000 C 
ATOM     22  C   UNL     1      39.222 -23.480 168.072  0.00  0.00    +0.000 C 
ATOM     23  C   UNL     1      38.975 -21.357 176.256  0.00  0.00    +0.000 C 
ATOM     24  C   UNL     1      40.613 -19.140 167.853  0.00  0.00    +0.000 C 
ATOM     25  C   UNL     1      38.855 -22.353 167.110  0.00  0.00    +0.000 C 
ATOM     26  C   UNL     1      39.035 -20.898 166.711  0.00  0.00    +0.000 C 
ATOM     27  C   UNL     1      39.814 -19.664 167.131  0.00  0.00    +0.000 C 
ENDROOT
BRANCH  11  30
ATOM     28  N   UNL     1      45.564 -23.472 168.448  0.00  0.00    +0.000 NA
ATOM     29  N   UNL     1      47.441 -22.667 171.533  0.00  0.00    +0.000 N 
ATOM     30  C   UNL     1      45.724 -23.074 169.730  0.00  0.00    +0.000 A 
ATOM     31  C   UNL     1      47.002 -23.038 170.282  0.00  0.00    +0.000 A 
ATOM     32  C   UNL     1      48.130 -23.405 169.547  0.00  0.00    +0.000 A 
ATOM     33  C   UNL     1      46.660 -23.826 167.742  0.00  0.00    +0.000 A 
ATOM     34  C   UNL     1      47.964 -23.822 168.217  0.00  0.00    +0.000 A 
ATOM     35  C   UNL     1      49.267 -23.253 170.398  0.00  0.00    +0.000 A 
ATOM     36  C   UNL     1      48.806 -22.791 171.629  0.00  0.00    +0.000 A 
ATOM     37  C   UNL     1      50.648 -23.464 170.229  0.00  0.00    +0.000 A 
ATOM     38  C   UNL     1      49.655 -22.525 172.708  0.00  0.00    +0.000 A 
ATOM     39  C   UNL     1      51.512 -23.205 171.296  0.00  0.00    +0.000 A 
ATOM     40  C   UNL     1      51.020 -22.744 172.511  0.00  0.00    +0.000 A 
ATOM     41  H   UNL     1      46.844 -22.337 172.280  0.00  0.00    +0.000 HD
ENDBRANCH  11  30
BRANCH   7  42
ATOM     42  O   UNL     1      43.887 -19.600 171.983  0.00  0.00    +0.000 OA
ATOM     43  H   UNL     1      43.270 -19.364 172.696  0.00  0.00    +0.000 HD
ENDBRANCH   7  42
TORSDOF 2
ENDMDL
MODEL 7
REMARK VINA RESULT:      -8.4     35.448     38.940
REMARK  Name = 6509753_ManzamineA.pdbqt.pdb
REMARK  2 active torsions:
REMARK  status: ('A' for Active; 'I' for Inactive)
REMARK    1  A    between atoms: C_7  and  O_42
REMARK    2  A    between atoms: C_11  and  C_30
REMARK                            x       y       z     vdW  Elec       q    Type
REMARK                         _______ _______ _______ _____ _____    ______ ____
ROOT
ATOM      1  N   UNL     1      42.153 -20.302 171.534  0.00  0.00    +0.000 N 
ATOM      2  N   UNL     1      41.247 -24.807 169.605  0.00  0.00    +0.000 N 
ATOM      3  C   UNL     1      42.591 -22.303 170.046  0.00  0.00    +0.000 C 
ATOM      4  C   UNL     1      41.996 -20.862 170.168  0.00  0.00    +0.000 C 
ATOM      5  C   UNL     1      43.621 -22.614 168.883  0.00  0.00    +0.000 C 
ATOM      6  C   UNL     1      43.256 -22.316 171.346  0.00  0.00    +0.000 C 
ATOM      7  C   UNL     1      42.132 -19.901 168.984  0.00  0.00    +0.000 C 
ATOM      8  C   UNL     1      41.555 -23.394 170.000  0.00  0.00    +0.000 C 
ATOM      9  C   UNL     1      42.887 -21.341 172.291  0.00  0.00    +0.000 C 
ATOM     10  C   UNL     1      43.559 -23.978 168.422  0.00  0.00    +0.000 C 
ATOM     11  C   UNL     1      43.892 -21.550 167.926  0.00  0.00    +0.000 C 
ATOM     12  C   UNL     1      43.137 -20.519 168.143  0.00  0.00    +0.000 C 
ATOM     13  C   UNL     1      42.426 -24.959 168.738  0.00  0.00    +0.000 C 
ATOM     14  C   UNL     1      40.865 -19.953 172.139  0.00  0.00    +0.000 C 
ATOM     15  C   UNL     1      40.839 -19.703 168.336  0.00  0.00    +0.000 C 
ATOM     16  C   UNL     1      42.627 -21.581 173.673  0.00  0.00    +0.000 C 
ATOM     17  C   UNL     1      40.062 -24.785 168.764  0.00  0.00    +0.000 C 
ATOM     18  C   UNL     1      39.782 -19.826 173.227  0.00  0.00    +0.000 C 
ATOM     19  C   UNL     1      39.485 -19.677 167.624  0.00  0.00    +0.000 C 
ATOM     20  C   UNL     1      42.009 -21.571 174.704  0.00  0.00    +0.000 C 
ATOM     21  C   UNL     1      39.649 -20.286 174.677  0.00  0.00    +0.000 C 
ATOM     22  C   UNL     1      38.805 -24.577 167.914  0.00  0.00    +0.000 C 
ATOM     23  C   UNL     1      40.720 -21.107 175.386  0.00  0.00    +0.000 C 
ATOM     24  C   UNL     1      38.193 -20.156 166.966  0.00  0.00    +0.000 C 
ATOM     25  C   UNL     1      37.704 -23.857 167.141  0.00  0.00    +0.000 C 
ATOM     26  C   UNL     1      37.139 -22.537 166.643  0.00  0.00    +0.000 C 
ATOM     27  C   UNL     1      37.463 -21.053 166.656  0.00  0.00    +0.000 C 
ENDROOT
BRANCH  11  30
ATOM     28  N   UNL     1      44.234 -21.321 165.536  0.00  0.00    +0.000 NA
ATOM     29  N   UNL     1      46.817 -22.444 167.936  0.00  0.00    +0.000 N 
ATOM     30  C   UNL     1      44.740 -21.644 166.747  0.00  0.00    +0.000 A 
ATOM     31  C   UNL     1      46.062 -22.073 166.846  0.00  0.00    +0.000 A 
ATOM     32  C   UNL     1      46.883 -22.183 165.723  0.00  0.00    +0.000 A 
ATOM     33  C   UNL     1      45.035 -21.429 164.454  0.00  0.00    +0.000 A 
ATOM     34  C   UNL     1      46.358 -21.851 164.465  0.00  0.00    +0.000 A 
ATOM     35  C   UNL     1      48.161 -22.642 166.169  0.00  0.00    +0.000 A 
ATOM     36  C   UNL     1      48.089 -22.796 167.552  0.00  0.00    +0.000 A 
ATOM     37  C   UNL     1      49.373 -22.938 165.518  0.00  0.00    +0.000 A 
ATOM     38  C   UNL     1      49.169 -23.230 168.327  0.00  0.00    +0.000 A 
ATOM     39  C   UNL     1      50.463 -23.375 166.275  0.00  0.00    +0.000 A 
ATOM     40  C   UNL     1      50.358 -23.516 167.654  0.00  0.00    +0.000 A 
ATOM     41  H   UNL     1      46.488 -22.449 168.892  0.00  0.00    +0.000 HD
ENDBRANCH  11  30
BRANCH   7  42
ATOM     42  O   UNL     1      42.635 -18.643 169.409  0.00  0.00    +0.000 OA
ATOM     43  H   UNL     1      43.422 -18.471 168.864  0.00  0.00    +0.000 HD
ENDBRANCH   7  42
TORSDOF 2
ENDMDL
MODEL 8
REMARK VINA RESULT:      -8.2      2.244      5.966
REMARK  Name = 6509753_ManzamineA.pdbqt.pdb
REMARK  2 active torsions:
REMARK  status: ('A' for Active; 'I' for Inactive)
REMARK    1  A    between atoms: C_7  and  O_42
REMARK    2  A    between atoms: C_11  and  C_30
REMARK                            x       y       z     vdW  Elec       q    Type
REMARK                         _______ _______ _______ _____ _____    ______ ____
ROOT
ATOM      1  N   UNL     1      25.874  -2.344 195.563  0.00  0.00    +0.000 N 
ATOM      2  N   UNL     1      27.374   2.159 197.085  0.00  0.00    +0.000 N 
ATOM      3  C   UNL     1      26.016   0.183 195.496  0.00  0.00    +0.000 C 
ATOM      4  C   UNL     1      26.545  -1.177 194.935  0.00  0.00    +0.000 C 
ATOM      5  C   UNL     1      25.522   1.294 194.480  0.00  0.00    +0.000 C 
ATOM      6  C   UNL     1      24.894  -0.373 196.245  0.00  0.00    +0.000 C 
ATOM      7  C   UNL     1      26.905  -1.277 193.450  0.00  0.00    +0.000 C 
ATOM      8  C   UNL     1      26.964   0.866 196.445  0.00  0.00    +0.000 C 
ATOM      9  C   UNL     1      24.881  -1.759 196.492  0.00  0.00    +0.000 C 
ATOM     10  C   UNL     1      25.732   2.636 194.962  0.00  0.00    +0.000 C 
ATOM     11  C   UNL     1      25.670   1.015 193.059  0.00  0.00    +0.000 C 
ATOM     12  C   UNL     1      26.300  -0.100 192.861  0.00  0.00    +0.000 C 
ATOM     13  C   UNL     1      26.629   3.011 196.146  0.00  0.00    +0.000 C 
ATOM     14  C   UNL     1      26.827  -3.235 196.229  0.00  0.00    +0.000 C 
ATOM     15  C   UNL     1      28.353  -1.363 193.281  0.00  0.00    +0.000 C 
ATOM     16  C   UNL     1      24.571  -2.377 197.740  0.00  0.00    +0.000 C 
ATOM     17  C   UNL     1      28.795   2.344 196.841  0.00  0.00    +0.000 C 
ATOM     18  C   UNL     1      27.397  -4.167 197.314  0.00  0.00    +0.000 C 
ATOM     19  C   UNL     1      29.878  -1.287 193.186  0.00  0.00    +0.000 C 
ATOM     20  C   UNL     1      24.734  -3.083 198.699  0.00  0.00    +0.000 C 
ATOM     21  C   UNL     1      26.939  -4.617 198.701  0.00  0.00    +0.000 C 
ATOM     22  C   UNL     1      30.288   2.369 196.504  0.00  0.00    +0.000 C 
ATOM     23  C   UNL     1      25.659  -4.110 199.354  0.00  0.00    +0.000 C 
ATOM     24  C   UNL     1      31.314  -0.819 193.406  0.00  0.00    +0.000 C 
ATOM     25  C   UNL     1      31.619   1.972 195.873  0.00  0.00    +0.000 C 
ATOM     26  C   UNL     1      32.362   1.055 194.914  0.00  0.00    +0.000 C 
ATOM     27  C   UNL     1      32.089  -0.082 193.945  0.00  0.00    +0.000 C 
ENDROOT
BRANCH  11  30
ATOM     28  N   UNL     1      26.355   2.488 191.257  0.00  0.00    +0.000 NA
ATOM     29  N   UNL     1      22.842   1.778 192.177  0.00  0.00    +0.000 N 
ATOM     30  C   UNL     1      25.352   1.920 191.963  0.00  0.00    +0.000 A 
ATOM     31  C   UNL     1      24.031   2.219 191.640  0.00  0.00    +0.000 A 
ATOM     32  C   UNL     1      23.710   3.095 190.602  0.00  0.00    +0.000 A 
ATOM     33  C   UNL     1      26.037   3.335 190.254  0.00  0.00    +0.000 A 
ATOM     34  C   UNL     1      24.751   3.689 189.871  0.00  0.00    +0.000 A 
ATOM     35  C   UNL     1      22.285   3.179 190.535  0.00  0.00    +0.000 A 
ATOM     36  C   UNL     1      21.772   2.347 191.528  0.00  0.00    +0.000 A 
ATOM     37  C   UNL     1      21.386   3.886 189.715  0.00  0.00    +0.000 A 
ATOM     38  C   UNL     1      20.401   2.180 191.749  0.00  0.00    +0.000 A 
ATOM     39  C   UNL     1      20.013   3.733 189.920  0.00  0.00    +0.000 A 
ATOM     40  C   UNL     1      19.534   2.893 190.920  0.00  0.00    +0.000 A 
ATOM     41  H   UNL     1      22.763   1.118 192.938  0.00  0.00    +0.000 HD
ENDBRANCH  11  30
BRANCH   7  42
ATOM     42  O   UNL     1      26.301  -2.418 192.859  0.00  0.00    +0.000 OA
ATOM     43  H   UNL     1      25.342  -2.269 192.905  0.00  0.00    +0.000 HD
ENDBRANCH   7  42
TORSDOF 2
ENDMDL
MODEL 9
REMARK VINA RESULT:      -8.2     27.574     30.442
REMARK  Name = 6509753_ManzamineA.pdbqt.pdb
REMARK  2 active torsions:
REMARK  status: ('A' for Active; 'I' for Inactive)
REMARK    1  A    between atoms: C_7  and  O_42
REMARK    2  A    between atoms: C_11  and  C_30
REMARK                            x       y       z     vdW  Elec       q    Type
REMARK                         _______ _______ _______ _____ _____    ______ ____
ROOT
ATOM      1  N   UNL     1      12.205 -17.461 178.468  0.00  0.00    +0.000 N 
ATOM      2  N   UNL     1      16.412 -19.942 179.465  0.00  0.00    +0.000 N 
ATOM      3  C   UNL     1      14.361 -18.663 177.905  0.00  0.00    +0.000 C 
ATOM      4  C   UNL     1      12.806 -18.751 178.043  0.00  0.00    +0.000 C 
ATOM      5  C   UNL     1      15.043 -19.143 176.558  0.00  0.00    +0.000 C 
ATOM      6  C   UNL     1      14.457 -17.213 178.049  0.00  0.00    +0.000 C 
ATOM      7  C   UNL     1      12.021 -19.609 177.047  0.00  0.00    +0.000 C 
ATOM      8  C   UNL     1      15.115 -19.329 179.024  0.00  0.00    +0.000 C 
ATOM      9  C   UNL     1      13.345 -16.521 178.563  0.00  0.00    +0.000 C 
ATOM     10  C   UNL     1      16.366 -19.679 176.752  0.00  0.00    +0.000 C 
ATOM     11  C   UNL     1      14.179 -19.729 175.542  0.00  0.00    +0.000 C 
ATOM     12  C   UNL     1      12.962 -19.852 175.973  0.00  0.00    +0.000 C 
ATOM     13  C   UNL     1      16.959 -20.079 178.107  0.00  0.00    +0.000 C 
ATOM     14  C   UNL     1      11.460 -17.588 179.723  0.00  0.00    +0.000 C 
ATOM     15  C   UNL     1      11.519 -20.815 177.697  0.00  0.00    +0.000 C 
ATOM     16  C   UNL     1      13.390 -15.501 179.559  0.00  0.00    +0.000 C 
ATOM     17  C   UNL     1      16.123 -21.271 179.978  0.00  0.00    +0.000 C 
ATOM     18  C   UNL     1      10.945 -17.215 181.126  0.00  0.00    +0.000 C 
ATOM     19  C   UNL     1      11.169 -22.122 178.412  0.00  0.00    +0.000 C 
ATOM     20  C   UNL     1      13.123 -14.945 180.590  0.00  0.00    +0.000 C 
ATOM     21  C   UNL     1      11.231 -16.088 182.117  0.00  0.00    +0.000 C 
ATOM     22  C   UNL     1      15.638 -22.630 180.491  0.00  0.00    +0.000 C 
ATOM     23  C   UNL     1      12.261 -14.995 181.853  0.00  0.00    +0.000 C 
ATOM     24  C   UNL     1      11.315 -23.392 179.246  0.00  0.00    +0.000 C 
ATOM     25  C   UNL     1      14.701 -23.800 180.774  0.00  0.00    +0.000 C 
ATOM     26  C   UNL     1      13.320 -24.410 180.599  0.00  0.00    +0.000 C 
ATOM     27  C   UNL     1      11.992 -24.108 179.926  0.00  0.00    +0.000 C 
ENDROOT
BRANCH  11  30
ATOM     28  N   UNL     1      15.340 -19.550 173.420  0.00  0.00    +0.000 NA
ATOM     29  N   UNL     1      13.529 -22.560 174.584  0.00  0.00    +0.000 N 
ATOM     30  C   UNL     1      14.602 -20.298 174.271  0.00  0.00    +0.000 A 
ATOM     31  C   UNL     1      14.248 -21.597 173.913  0.00  0.00    +0.000 A 
ATOM     32  C   UNL     1      14.633 -22.151 172.691  0.00  0.00    +0.000 A 
ATOM     33  C   UNL     1      15.709 -20.093 172.240  0.00  0.00    +0.000 A 
ATOM     34  C   UNL     1      15.396 -21.374 171.806  0.00  0.00    +0.000 A 
ATOM     35  C   UNL     1      14.115 -23.481 172.641  0.00  0.00    +0.000 A 
ATOM     36  C   UNL     1      13.431 -23.708 173.834  0.00  0.00    +0.000 A 
ATOM     37  C   UNL     1      14.169 -24.514 171.686  0.00  0.00    +0.000 A 
ATOM     38  C   UNL     1      12.796 -24.917 174.129  0.00  0.00    +0.000 A 
ATOM     39  C   UNL     1      13.539 -25.730 171.963  0.00  0.00    +0.000 A 
ATOM     40  C   UNL     1      12.866 -25.924 173.164  0.00  0.00    +0.000 A 
ATOM     41  H   UNL     1      13.133 -22.446 175.507  0.00  0.00    +0.000 HD
ENDBRANCH  11  30
BRANCH   7  42
ATOM     42  O   UNL     1      10.926 -18.883 176.507  0.00  0.00    +0.000 OA
ATOM     43  H   UNL     1      11.169 -18.671 175.590  0.00  0.00    +0.000 HD
ENDBRANCH   7  42
TORSDOF 2
ENDMDL
