MODEL 1
REMARK VINA RESULT:      -4.7      0.000      0.000
REMARK  Name = 67499_Pyrazolo.pdbqt.pdb
REMARK  0 active torsions:
REMARK  status: ('A' for Active; 'I' for Inactive)
REMARK                            x       y       z     vdW  Elec       q    Type
REMARK                         _______ _______ _______ _____ _____    ______ ____
ROOT
ATOM      1  N   UNL     1      39.734  -5.615 167.522  0.00  0.00    +0.000 N 
ATOM      2  N   UNL     1      39.174  -6.048 166.373  0.00  0.00    +0.000 NA
ATOM      3  N   UNL     1      41.822  -5.781 168.739  0.00  0.00    +0.000 NA
ATOM      4  N   UNL     1      43.443  -7.142 167.562  0.00  0.00    +0.000 NA
ATOM      5  C   UNL     1      41.314  -6.814 166.594  0.00  0.00    +0.000 A 
ATOM      6  C   UNL     1      41.016  -6.047 167.701  0.00  0.00    +0.000 A 
ATOM      7  C   UNL     1      40.146  -6.780 165.812  0.00  0.00    +0.000 A 
ATOM      8  C   UNL     1      42.582  -7.376 166.540  0.00  0.00    +0.000 A 
ATOM      9  C   UNL     1      43.023  -6.372 168.587  0.00  0.00    +0.000 A 
ATOM     10  H   UNL     1      39.194  -5.027 168.146  0.00  0.00    +0.000 HD
ENDROOT
TORSDOF 0
ENDMDL
MODEL 2
REMARK VINA RESULT:      -4.7      1.140      2.928
REMARK  Name = 67499_Pyrazolo.pdbqt.pdb
REMARK  0 active torsions:
REMARK  status: ('A' for Active; 'I' for Inactive)
REMARK                            x       y       z     vdW  Elec       q    Type
REMARK                         _______ _______ _______ _____ _____    ______ ____
ROOT
ATOM      1  N   UNL     1      41.519  -5.495 168.544  0.00  0.00    +0.000 N 
ATOM      2  N   UNL     1      42.755  -5.764 169.018  0.00  0.00    +0.000 NA
ATOM      3  N   UNL     1      40.034  -6.179 166.757  0.00  0.00    +0.000 NA
ATOM      4  N   UNL     1      41.040  -7.875 165.351  0.00  0.00    +0.000 NA
ATOM      5  C   UNL     1      42.276  -7.028 167.176  0.00  0.00    +0.000 A 
ATOM      6  C   UNL     1      41.185  -6.227 167.442  0.00  0.00    +0.000 A 
ATOM      7  C   UNL     1      43.210  -6.701 168.175  0.00  0.00    +0.000 A 
ATOM      8  C   UNL     1      42.182  -7.879 166.084  0.00  0.00    +0.000 A 
ATOM      9  C   UNL     1      40.047  -7.041 165.721  0.00  0.00    +0.000 A 
ATOM     10  H   UNL     1      40.948  -4.803 169.015  0.00  0.00    +0.000 HD
ENDROOT
TORSDOF 0
ENDMDL
MODEL 3
REMARK VINA RESULT:      -4.6     28.966     30.050
REMARK  Name = 67499_Pyrazolo.pdbqt.pdb
REMARK  0 active torsions:
REMARK  status: ('A' for Active; 'I' for Inactive)
REMARK                            x       y       z     vdW  Elec       q    Type
REMARK                         _______ _______ _______ _____ _____    ______ ____
ROOT
ATOM      1  N   UNL     1      21.283   5.777 187.894  0.00  0.00    +0.000 N 
ATOM      2  N   UNL     1      20.294   5.183 188.596  0.00  0.00    +0.000 NA
ATOM      3  N   UNL     1      22.436   5.556 185.775  0.00  0.00    +0.000 NA
ATOM      4  N   UNL     1      21.579   3.702 184.474  0.00  0.00    +0.000 NA
ATOM      5  C   UNL     1      20.629   4.143 186.590  0.00  0.00    +0.000 A 
ATOM      6  C   UNL     1      21.522   5.190 186.685  0.00  0.00    +0.000 A 
ATOM      7  C   UNL     1      19.901   4.186 187.792  0.00  0.00    +0.000 A 
ATOM      8  C   UNL     1      20.675   3.381 185.431  0.00  0.00    +0.000 A 
ATOM      9  C   UNL     1      22.396   4.754 184.694  0.00  0.00    +0.000 A 
ATOM     10  H   UNL     1      21.760   6.578 188.291  0.00  0.00    +0.000 HD
ENDROOT
TORSDOF 0
ENDMDL
MODEL 4
REMARK VINA RESULT:      -4.5      2.281      3.105
REMARK  Name = 67499_Pyrazolo.pdbqt.pdb
REMARK  0 active torsions:
REMARK  status: ('A' for Active; 'I' for Inactive)
REMARK                            x       y       z     vdW  Elec       q    Type
REMARK                         _______ _______ _______ _____ _____    ______ ____
ROOT
ATOM      1  N   UNL     1      42.080  -5.052 167.562  0.00  0.00    +0.000 N 
ATOM      2  N   UNL     1      41.944  -5.674 168.753  0.00  0.00    +0.000 NA
ATOM      3  N   UNL     1      43.487  -5.119 165.591  0.00  0.00    +0.000 NA
ATOM      4  N   UNL     1      45.201  -6.821 165.768  0.00  0.00    +0.000 NA
ATOM      5  C   UNL     1      43.687  -6.540 167.557  0.00  0.00    +0.000 A 
ATOM      6  C   UNL     1      43.111  -5.535 166.809  0.00  0.00    +0.000 A 
ATOM      7  C   UNL     1      42.929  -6.581 168.741  0.00  0.00    +0.000 A 
ATOM      8  C   UNL     1      44.773  -7.198 166.998  0.00  0.00    +0.000 A 
ATOM      9  C   UNL     1      44.546  -5.820 165.143  0.00  0.00    +0.000 A 
ATOM     10  H   UNL     1      41.441  -4.304 167.318  0.00  0.00    +0.000 HD
ENDROOT
TORSDOF 0
ENDMDL
MODEL 5
REMARK VINA RESULT:      -4.4     29.355     30.470
REMARK  Name = 67499_Pyrazolo.pdbqt.pdb
REMARK  0 active torsions:
REMARK  status: ('A' for Active; 'I' for Inactive)
REMARK                            x       y       z     vdW  Elec       q    Type
REMARK                         _______ _______ _______ _____ _____    ______ ____
ROOT
ATOM      1  N   UNL     1      20.706   3.299 185.299  0.00  0.00    +0.000 N 
ATOM      2  N   UNL     1      21.775   3.817 184.655  0.00  0.00    +0.000 NA
ATOM      3  N   UNL     1      19.447   3.615 187.344  0.00  0.00    +0.000 NA
ATOM      4  N   UNL     1      20.352   5.414 188.688  0.00  0.00    +0.000 NA
ATOM      5  C   UNL     1      21.394   4.893 186.635  0.00  0.00    +0.000 A 
ATOM      6  C   UNL     1      20.437   3.910 186.489  0.00  0.00    +0.000 A 
ATOM      7  C   UNL     1      22.188   4.790 185.479  0.00  0.00    +0.000 A 
ATOM      8  C   UNL     1      21.333   5.665 187.786  0.00  0.00    +0.000 A 
ATOM      9  C   UNL     1      19.478   4.421 188.423  0.00  0.00    +0.000 A 
ATOM     10  H   UNL     1      20.199   2.530 184.877  0.00  0.00    +0.000 HD
ENDROOT
TORSDOF 0
ENDMDL
MODEL 6
REMARK VINA RESULT:      -4.4      2.663      3.269
REMARK  Name = 67499_Pyrazolo.pdbqt.pdb
REMARK  0 active torsions:
REMARK  status: ('A' for Active; 'I' for Inactive)
REMARK                            x       y       z     vdW  Elec       q    Type
REMARK                         _______ _______ _______ _____ _____    ______ ____
ROOT
ATOM      1  N   UNL     1      43.066  -3.689 166.351  0.00  0.00    +0.000 N 
ATOM      2  N   UNL     1      43.809  -3.437 165.252  0.00  0.00    +0.000 NA
ATOM      3  N   UNL     1      42.745  -5.428 168.006  0.00  0.00    +0.000 NA
ATOM      4  N   UNL     1      44.188  -7.331 167.603  0.00  0.00    +0.000 NA
ATOM      5  C   UNL     1      44.298  -5.487 166.132  0.00  0.00    +0.000 A 
ATOM      6  C   UNL     1      43.323  -4.905 166.915  0.00  0.00    +0.000 A 
ATOM      7  C   UNL     1      44.558  -4.540 165.126  0.00  0.00    +0.000 A 
ATOM      8  C   UNL     1      44.735  -6.750 166.507  0.00  0.00    +0.000 A 
ATOM      9  C   UNL     1      43.240  -6.651 168.281  0.00  0.00    +0.000 A 
ATOM     10  H   UNL     1      42.401  -2.995 166.669  0.00  0.00    +0.000 HD
ENDROOT
TORSDOF 0
ENDMDL
MODEL 7
REMARK VINA RESULT:      -4.3     16.066     16.661
REMARK  Name = 67499_Pyrazolo.pdbqt.pdb
REMARK  0 active torsions:
REMARK  status: ('A' for Active; 'I' for Inactive)
REMARK                            x       y       z     vdW  Elec       q    Type
REMARK                         _______ _______ _______ _____ _____    ______ ____
ROOT
ATOM      1  N   UNL     1      42.190 -20.804 174.800  0.00  0.00    +0.000 N 
ATOM      2  N   UNL     1      42.212 -19.652 174.096  0.00  0.00    +0.000 NA
ATOM      3  N   UNL     1      40.642 -22.164 176.073  0.00  0.00    +0.000 NA
ATOM      4  N   UNL     1      38.425 -21.189 176.129  0.00  0.00    +0.000 NA
ATOM      5  C   UNL     1      40.134 -20.064 174.951  0.00  0.00    +0.000 A 
ATOM      6  C   UNL     1      40.967 -21.095 175.332  0.00  0.00    +0.000 A 
ATOM      7  C   UNL     1      40.952 -19.207 174.194  0.00  0.00    +0.000 A 
ATOM      8  C   UNL     1      38.814 -20.131 175.375  0.00  0.00    +0.000 A 
ATOM      9  C   UNL     1      39.343 -22.131 176.431  0.00  0.00    +0.000 A 
ATOM     10  H   UNL     1      43.039 -21.350 174.883  0.00  0.00    +0.000 HD
ENDROOT
TORSDOF 0
ENDMDL
MODEL 8
REMARK VINA RESULT:      -4.1     28.620     29.701
REMARK  Name = 67499_Pyrazolo.pdbqt.pdb
REMARK  0 active torsions:
REMARK  status: ('A' for Active; 'I' for Inactive)
REMARK                            x       y       z     vdW  Elec       q    Type
REMARK                         _______ _______ _______ _____ _____    ______ ____
ROOT
ATOM      1  N   UNL     1      24.006   5.116 186.532  0.00  0.00    +0.000 N 
ATOM      2  N   UNL     1      24.140   5.810 187.683  0.00  0.00    +0.000 NA
ATOM      3  N   UNL     1      22.316   3.906 185.288  0.00  0.00    +0.000 NA
ATOM      4  N   UNL     1      20.179   3.918 186.428  0.00  0.00    +0.000 NA
ATOM      5  C   UNL     1      22.008   5.029 187.426  0.00  0.00    +0.000 A 
ATOM      6  C   UNL     1      22.747   4.628 186.333  0.00  0.00    +0.000 A 
ATOM      7  C   UNL     1      22.914   5.752 188.222  0.00  0.00    +0.000 A 
ATOM      8  C   UNL     1      20.674   4.650 187.457  0.00  0.00    +0.000 A 
ATOM      9  C   UNL     1      21.013   3.592 185.418  0.00  0.00    +0.000 A 
ATOM     10  H   UNL     1      24.808   5.009 185.923  0.00  0.00    +0.000 HD
ENDROOT
TORSDOF 0
ENDMDL
MODEL 9
REMARK VINA RESULT:      -3.9     30.998     31.824
REMARK  Name = 67499_Pyrazolo.pdbqt.pdb
REMARK  0 active torsions:
REMARK  status: ('A' for Active; 'I' for Inactive)
REMARK                            x       y       z     vdW  Elec       q    Type
REMARK                         _______ _______ _______ _____ _____    ______ ____
ROOT
ATOM      1  N   UNL     1      15.872 -20.812 181.474  0.00  0.00    +0.000 N 
ATOM      2  N   UNL     1      15.468 -22.065 181.776  0.00  0.00    +0.000 NA
ATOM      3  N   UNL     1      16.571 -19.506 179.558  0.00  0.00    +0.000 NA
ATOM      4  N   UNL     1      16.554 -20.818 177.522  0.00  0.00    +0.000 NA
ATOM      5  C   UNL     1      15.914 -21.850 179.546  0.00  0.00    +0.000 A 
ATOM      6  C   UNL     1      16.151 -20.633 180.150  0.00  0.00    +0.000 A 
ATOM      7  C   UNL     1      15.496 -22.691 180.592  0.00  0.00    +0.000 A 
ATOM      8  C   UNL     1      16.129 -21.926 178.177  0.00  0.00    +0.000 A 
ATOM      9  C   UNL     1      16.748 -19.689 178.235  0.00  0.00    +0.000 A 
ATOM     10  H   UNL     1      15.939 -20.122 182.213  0.00  0.00    +0.000 HD
ENDROOT
TORSDOF 0
ENDMDL
