MODEL 1
REMARK VINA RESULT:      -6.2      0.000      0.000
REMARK  Name = 71369791_5FluoroDione.pdbqt.pdb
REMARK  1 active torsions:
REMARK  status: ('A' for Active; 'I' for Inactive)
REMARK    1  A    between atoms: N_4  and  C_12
REMARK                            x       y       z     vdW  Elec       q    Type
REMARK                         _______ _______ _______ _____ _____    ______ ____
ROOT
ATOM      1  F   UNL     1      20.900   2.002 193.111  0.00  0.00    +0.000 F 
ATOM      2  O   UNL     1      17.262   0.631 189.297  0.00  0.00    +0.000 OA
ATOM      3  O   UNL     1      18.415   0.792 193.733  0.00  0.00    +0.000 OA
ATOM      4  N   UNL     1      19.237   1.813 189.836  0.00  0.00    +0.000 N 
ATOM      5  N   UNL     1      17.867   0.837 191.495  0.00  0.00    +0.000 N 
ATOM      6  C   UNL     1      19.998   2.196 190.880  0.00  0.00    +0.000 C 
ATOM      7  C   UNL     1      19.860   2.006 192.260  0.00  0.00    +0.000 C 
ATOM      8  C   UNL     1      18.066   1.071 190.113  0.00  0.00    +0.000 C 
ATOM      9  C   UNL     1      18.669   1.172 192.597  0.00  0.00    +0.000 C 
ATOM     10  H   UNL     1      17.057   0.273 191.711  0.00  0.00    +0.000 HD
ENDROOT
BRANCH   4  12
ATOM     11  O   UNL     1      20.840   1.715 188.015  0.00  0.00    +0.000 OA
ATOM     12  C   UNL     1      19.634   2.155 188.575  0.00  0.00    +0.000 C 
ATOM     13  C   UNL     1      18.972   2.969 187.618  0.00  0.00    +0.000 C 
ATOM     14  C   UNL     1      19.566   3.254 186.237  0.00  0.00    +0.000 C 
ATOM     15  C   UNL     1      20.635   2.357 186.858  0.00  0.00    +0.000 C 
ENDBRANCH   4  12
TORSDOF 1
ENDMDL
MODEL 2
REMARK VINA RESULT:      -6.2     31.111     33.290
REMARK  Name = 71369791_5FluoroDione.pdbqt.pdb
REMARK  1 active torsions:
REMARK  status: ('A' for Active; 'I' for Inactive)
REMARK    1  A    between atoms: N_4  and  C_12
REMARK                            x       y       z     vdW  Elec       q    Type
REMARK                         _______ _______ _______ _____ _____    ______ ____
ROOT
ATOM      1  F   UNL     1      38.614  -6.222 164.969  0.00  0.00    +0.000 F 
ATOM      2  O   UNL     1      42.012  -5.615 169.182  0.00  0.00    +0.000 OA
ATOM      3  O   UNL     1      37.712  -5.611 167.585  0.00  0.00    +0.000 OA
ATOM      4  N   UNL     1      41.709  -6.336 166.952  0.00  0.00    +0.000 N 
ATOM      5  N   UNL     1      39.890  -5.729 168.330  0.00  0.00    +0.000 N 
ATOM      6  C   UNL     1      40.759  -6.562 166.025  0.00  0.00    +0.000 C 
ATOM      7  C   UNL     1      39.365  -6.439 166.062  0.00  0.00    +0.000 C 
ATOM      8  C   UNL     1      41.293  -5.881 168.224  0.00  0.00    +0.000 C 
ATOM      9  C   UNL     1      38.883  -5.900 167.369  0.00  0.00    +0.000 C 
ATOM     10  H   UNL     1      39.576  -5.364 169.219  0.00  0.00    +0.000 HD
ENDROOT
BRANCH   4  12
ATOM     11  O   UNL     1      43.612  -7.819 166.671  0.00  0.00    +0.000 OA
ATOM     12  C   UNL     1      43.016  -6.553 166.618  0.00  0.00    +0.000 C 
ATOM     13  C   UNL     1      43.993  -5.622 166.177  0.00  0.00    +0.000 C 
ATOM     14  C   UNL     1      45.427  -6.039 165.844  0.00  0.00    +0.000 C 
ATOM     15  C   UNL     1      44.802  -7.371 166.255  0.00  0.00    +0.000 C 
ENDBRANCH   4  12
TORSDOF 1
ENDMDL
MODEL 3
REMARK VINA RESULT:      -5.8      2.384      3.258
REMARK  Name = 71369791_5FluoroDione.pdbqt.pdb
REMARK  1 active torsions:
REMARK  status: ('A' for Active; 'I' for Inactive)
REMARK    1  A    between atoms: N_4  and  C_12
REMARK                            x       y       z     vdW  Elec       q    Type
REMARK                         _______ _______ _______ _____ _____    ______ ____
ROOT
ATOM      1  F   UNL     1      19.058   1.283 191.476  0.00  0.00    +0.000 F 
ATOM      2  O   UNL     1      19.278   3.154 186.365  0.00  0.00    +0.000 OA
ATOM      3  O   UNL     1      16.945   0.923 189.623  0.00  0.00    +0.000 OA
ATOM      4  N   UNL     1      20.213   3.168 188.536  0.00  0.00    +0.000 N 
ATOM      5  N   UNL     1      18.138   2.140 188.072  0.00  0.00    +0.000 N 
ATOM      6  C   UNL     1      19.988   2.748 189.796  0.00  0.00    +0.000 C 
ATOM      7  C   UNL     1      18.927   2.038 190.372  0.00  0.00    +0.000 C 
ATOM      8  C   UNL     1      19.240   2.864 187.557  0.00  0.00    +0.000 C 
ATOM      9  C   UNL     1      17.903   1.640 189.361  0.00  0.00    +0.000 C 
ATOM     10  H   UNL     1      17.451   1.877 187.379  0.00  0.00    +0.000 HD
ENDROOT
BRANCH   4  12
ATOM     11  O   UNL     1      22.506   3.246 187.741  0.00  0.00    +0.000 OA
ATOM     12  C   UNL     1      21.363   3.857 188.270  0.00  0.00    +0.000 C 
ATOM     13  C   UNL     1      21.642   5.236 188.455  0.00  0.00    +0.000 C 
ATOM     14  C   UNL     1      22.999   5.849 188.102  0.00  0.00    +0.000 C 
ATOM     15  C   UNL     1      23.211   4.383 187.726  0.00  0.00    +0.000 C 
ENDBRANCH   4  12
TORSDOF 1
ENDMDL
MODEL 4
REMARK VINA RESULT:      -5.7      2.984      5.493
REMARK  Name = 71369791_5FluoroDione.pdbqt.pdb
REMARK  1 active torsions:
REMARK  status: ('A' for Active; 'I' for Inactive)
REMARK    1  A    between atoms: N_4  and  C_12
REMARK                            x       y       z     vdW  Elec       q    Type
REMARK                         _______ _______ _______ _____ _____    ______ ____
ROOT
ATOM      1  F   UNL     1      23.507   3.576 186.252  0.00  0.00    +0.000 F 
ATOM      2  O   UNL     1      18.227   2.867 187.381  0.00  0.00    +0.000 OA
ATOM      3  O   UNL     1      21.488   3.714 184.269  0.00  0.00    +0.000 OA
ATOM      4  N   UNL     1      20.465   2.679 188.115  0.00  0.00    +0.000 N 
ATOM      5  N   UNL     1      19.920   3.186 185.873  0.00  0.00    +0.000 N 
ATOM      6  C   UNL     1      21.739   2.769 187.685  0.00  0.00    +0.000 C 
ATOM      7  C   UNL     1      22.286   3.044 186.426  0.00  0.00    +0.000 C 
ATOM      8  C   UNL     1      19.435   2.898 187.172  0.00  0.00    +0.000 C 
ATOM      9  C   UNL     1      21.234   3.343 185.409  0.00  0.00    +0.000 C 
ATOM     10  H   UNL     1      19.199   3.387 185.194  0.00  0.00    +0.000 HD
ENDROOT
BRANCH   4  12
ATOM     11  O   UNL     1      19.677   1.175 189.851  0.00  0.00    +0.000 OA
ATOM     12  C   UNL     1      20.236   2.388 189.430  0.00  0.00    +0.000 C 
ATOM     13  C   UNL     1      20.489   3.182 190.579  0.00  0.00    +0.000 C 
ATOM     14  C   UNL     1      20.165   2.698 191.994  0.00  0.00    +0.000 C 
ATOM     15  C   UNL     1      19.718   1.508 191.146  0.00  0.00    +0.000 C 
ENDBRANCH   4  12
TORSDOF 1
ENDMDL
MODEL 5
REMARK VINA RESULT:      -5.6     33.171     34.497
REMARK  Name = 71369791_5FluoroDione.pdbqt.pdb
REMARK  1 active torsions:
REMARK  status: ('A' for Active; 'I' for Inactive)
REMARK    1  A    between atoms: N_4  and  C_12
REMARK                            x       y       z     vdW  Elec       q    Type
REMARK                         _______ _______ _______ _____ _____    ______ ____
ROOT
ATOM      1  F   UNL     1      38.287  -6.341 166.143  0.00  0.00    +0.000 F 
ATOM      2  O   UNL     1      42.216  -9.848 164.756  0.00  0.00    +0.000 OA
ATOM      3  O   UNL     1      37.799  -8.631 164.547  0.00  0.00    +0.000 OA
ATOM      4  N   UNL     1      41.655  -7.738 165.661  0.00  0.00    +0.000 N 
ATOM      5  N   UNL     1      40.050  -9.121 164.616  0.00  0.00    +0.000 N 
ATOM      6  C   UNL     1      40.617  -6.898 165.843  0.00  0.00    +0.000 C 
ATOM      7  C   UNL     1      39.265  -6.988 165.489  0.00  0.00    +0.000 C 
ATOM      8  C   UNL     1      41.403  -8.962 165.000  0.00  0.00    +0.000 C 
ATOM      9  C   UNL     1      38.939  -8.294 164.842  0.00  0.00    +0.000 C 
ATOM     10  H   UNL     1      39.841 -10.008 164.179  0.00  0.00    +0.000 HD
ENDROOT
BRANCH   4  12
ATOM     11  O   UNL     1      43.245  -7.457 167.475  0.00  0.00    +0.000 OA
ATOM     12  C   UNL     1      42.886  -7.369 166.124  0.00  0.00    +0.000 C 
ATOM     13  C   UNL     1      43.994  -6.850 165.404  0.00  0.00    +0.000 C 
ATOM     14  C   UNL     1      45.313  -6.483 166.088  0.00  0.00    +0.000 C 
ATOM     15  C   UNL     1      44.476  -6.977 167.267  0.00  0.00    +0.000 C 
ENDBRANCH   4  12
TORSDOF 1
ENDMDL
MODEL 6
REMARK VINA RESULT:      -5.4      1.896      4.712
REMARK  Name = 71369791_5FluoroDione.pdbqt.pdb
REMARK  1 active torsions:
REMARK  status: ('A' for Active; 'I' for Inactive)
REMARK    1  A    between atoms: N_4  and  C_12
REMARK                            x       y       z     vdW  Elec       q    Type
REMARK                         _______ _______ _______ _____ _____    ______ ____
ROOT
ATOM      1  F   UNL     1      21.408   4.158 189.861  0.00  0.00    +0.000 F 
ATOM      2  O   UNL     1      17.228   0.668 189.929  0.00  0.00    +0.000 OA
ATOM      3  O   UNL     1      19.552   3.954 187.730  0.00  0.00    +0.000 OA
ATOM      4  N   UNL     1      19.272   1.351 190.899  0.00  0.00    +0.000 N 
ATOM      5  N   UNL     1      18.497   2.241 188.853  0.00  0.00    +0.000 N 
ATOM      6  C   UNL     1      20.318   2.179 190.710  0.00  0.00    +0.000 C 
ATOM      7  C   UNL     1      20.625   3.081 189.685  0.00  0.00    +0.000 C 
ATOM      8  C   UNL     1      18.252   1.344 189.921  0.00  0.00    +0.000 C 
ATOM      9  C   UNL     1      19.544   3.154 188.658  0.00  0.00    +0.000 C 
ATOM     10  H   UNL     1      17.759   2.281 188.164  0.00  0.00    +0.000 HD
ENDROOT
BRANCH   4  12
ATOM     11  O   UNL     1      19.889  -0.675 192.089  0.00  0.00    +0.000 OA
ATOM     12  C   UNL     1      19.249   0.569 192.019  0.00  0.00    +0.000 C 
ATOM     13  C   UNL     1      18.621   0.814 193.269  0.00  0.00    +0.000 C 
ATOM     14  C   UNL     1      18.695  -0.180 194.429  0.00  0.00    +0.000 C 
ATOM     15  C   UNL     1      19.507  -0.897 193.352  0.00  0.00    +0.000 C 
ENDBRANCH   4  12
TORSDOF 1
ENDMDL
MODEL 7
REMARK VINA RESULT:      -5.2      2.825      3.692
REMARK  Name = 71369791_5FluoroDione.pdbqt.pdb
REMARK  1 active torsions:
REMARK  status: ('A' for Active; 'I' for Inactive)
REMARK    1  A    between atoms: N_4  and  C_12
REMARK                            x       y       z     vdW  Elec       q    Type
REMARK                         _______ _______ _______ _____ _____    ______ ____
ROOT
ATOM      1  F   UNL     1      23.040   0.425 189.351  0.00  0.00    +0.000 F 
ATOM      2  O   UNL     1      18.970   3.565 187.551  0.00  0.00    +0.000 OA
ATOM      3  O   UNL     1      20.625   0.772 190.791  0.00  0.00    +0.000 OA
ATOM      4  N   UNL     1      21.231   2.910 187.332  0.00  0.00    +0.000 N 
ATOM      5  N   UNL     1      19.905   2.242 189.170  0.00  0.00    +0.000 N 
ATOM      6  C   UNL     1      22.196   2.191 187.938  0.00  0.00    +0.000 C 
ATOM      7  C   UNL     1      22.208   1.456 189.129  0.00  0.00    +0.000 C 
ATOM      8  C   UNL     1      19.965   2.972 187.957  0.00  0.00    +0.000 C 
ATOM      9  C   UNL     1      20.872   1.441 189.794  0.00  0.00    +0.000 C 
ATOM     10  H   UNL     1      18.996   2.240 189.611  0.00  0.00    +0.000 HD
ENDROOT
BRANCH   4  12
ATOM     11  O   UNL     1      21.264   2.952 184.904  0.00  0.00    +0.000 OA
ATOM     12  C   UNL     1      21.521   3.534 186.152  0.00  0.00    +0.000 C 
ATOM     13  C   UNL     1      22.104   4.810 185.934  0.00  0.00    +0.000 C 
ATOM     14  C   UNL     1      22.365   5.361 184.531  0.00  0.00    +0.000 C 
ATOM     15  C   UNL     1      21.746   3.998 184.222  0.00  0.00    +0.000 C 
ENDBRANCH   4  12
TORSDOF 1
ENDMDL
MODEL 8
REMARK VINA RESULT:      -5.2      2.422      2.633
REMARK  Name = 71369791_5FluoroDione.pdbqt.pdb
REMARK  1 active torsions:
REMARK  status: ('A' for Active; 'I' for Inactive)
REMARK    1  A    between atoms: N_4  and  C_12
REMARK                            x       y       z     vdW  Elec       q    Type
REMARK                         _______ _______ _______ _____ _____    ______ ____
ROOT
ATOM      1  F   UNL     1      23.597  -0.312 190.379  0.00  0.00    +0.000 F 
ATOM      2  O   UNL     1      18.783   2.234 190.412  0.00  0.00    +0.000 OA
ATOM      3  O   UNL     1      21.776  -0.513 192.540  0.00  0.00    +0.000 OA
ATOM      4  N   UNL     1      20.907   1.998 189.403  0.00  0.00    +0.000 N 
ATOM      5  N   UNL     1      20.369   0.951 191.452  0.00  0.00    +0.000 N 
ATOM      6  C   UNL     1      22.105   1.404 189.567  0.00  0.00    +0.000 C 
ATOM      7  C   UNL     1      22.610   0.578 190.578  0.00  0.00    +0.000 C 
ATOM      8  C   UNL     1      19.925   1.786 190.397  0.00  0.00    +0.000 C 
ATOM      9  C   UNL     1      21.586   0.274 191.621  0.00  0.00    +0.000 C 
ATOM     10  H   UNL     1      19.668   0.754 192.151  0.00  0.00    +0.000 HD
ENDROOT
BRANCH   4  12
ATOM     11  O   UNL     1      21.025   4.128 188.242  0.00  0.00    +0.000 OA
ATOM     12  C   UNL     1      20.702   2.766 188.291  0.00  0.00    +0.000 C 
ATOM     13  C   UNL     1      20.159   2.393 187.034  0.00  0.00    +0.000 C 
ATOM     14  C   UNL     1      19.997   3.391 185.886  0.00  0.00    +0.000 C 
ATOM     15  C   UNL     1      20.607   4.268 186.978  0.00  0.00    +0.000 C 
ENDBRANCH   4  12
TORSDOF 1
ENDMDL
MODEL 9
REMARK VINA RESULT:      -5.1     34.878     35.875
REMARK  Name = 71369791_5FluoroDione.pdbqt.pdb
REMARK  1 active torsions:
REMARK  status: ('A' for Active; 'I' for Inactive)
REMARK    1  A    between atoms: N_4  and  C_12
REMARK                            x       y       z     vdW  Elec       q    Type
REMARK                         _______ _______ _______ _____ _____    ______ ____
ROOT
ATOM      1  F   UNL     1      42.860  -6.057 168.087  0.00  0.00    +0.000 F 
ATOM      2  O   UNL     1      46.875  -4.805 164.627  0.00  0.00    +0.000 OA
ATOM      3  O   UNL     1      45.026  -7.806 167.560  0.00  0.00    +0.000 OA
ATOM      4  N   UNL     1      44.722  -4.288 165.455  0.00  0.00    +0.000 N 
ATOM      5  N   UNL     1      45.839  -6.289 166.028  0.00  0.00    +0.000 N 
ATOM      6  C   UNL     1      43.744  -4.762 166.251  0.00  0.00    +0.000 C 
ATOM      7  C   UNL     1      43.631  -5.944 166.992  0.00  0.00    +0.000 C 
ATOM      8  C   UNL     1      45.885  -5.077 165.298  0.00  0.00    +0.000 C 
ATOM      9  C   UNL     1      44.863  -6.782 166.907  0.00  0.00    +0.000 C 
ATOM     10  H   UNL     1      46.678  -6.848 165.962  0.00  0.00    +0.000 HD
ENDROOT
BRANCH   4  12
ATOM     11  O   UNL     1      45.177  -1.908 165.290  0.00  0.00    +0.000 OA
ATOM     12  C   UNL     1      44.544  -3.077 164.848  0.00  0.00    +0.000 C 
ATOM     13  C   UNL     1      43.742  -2.748 163.724  0.00  0.00    +0.000 C 
ATOM     14  C   UNL     1      43.655  -1.325 163.170  0.00  0.00    +0.000 C 
ATOM     15  C   UNL     1      44.619  -1.146 164.342  0.00  0.00    +0.000 C 
ENDBRANCH   4  12
TORSDOF 1
ENDMDL
