MODEL 1
REMARK VINA RESULT:      -3.7      0.000      0.000
REMARK  Name = 7288_3Pentanone.pdbqt.pdb
REMARK  2 active torsions:
REMARK  status: ('A' for Active; 'I' for Inactive)
REMARK    1  A    between atoms: C_2  and  C_3
REMARK    2  A    between atoms: C_2  and  C_5
REMARK                            x       y       z     vdW  Elec       q    Type
REMARK                         _______ _______ _______ _____ _____    ______ ____
ROOT
ATOM      1  O   UNL     1      22.428   5.691 184.806  0.00  0.00    +0.000 OA
ATOM      2  C   UNL     1      22.168   5.154 185.876  0.00  0.00    +0.000 C 
ENDROOT
BRANCH   2   3
ATOM      3  C   UNL     1      22.963   5.421 187.051  0.00  0.00    +0.000 C 
ATOM      4  C   UNL     1      23.822   5.684 188.304  0.00  0.00    +0.000 C 
ENDBRANCH   2   3
BRANCH   2   5
ATOM      5  C   UNL     1      21.059   4.238 185.995  0.00  0.00    +0.000 C 
ATOM      6  C   UNL     1      19.867   3.265 186.100  0.00  0.00    +0.000 C 
ENDBRANCH   2   5
TORSDOF 2
ENDMDL
MODEL 2
REMARK VINA RESULT:      -3.7      0.094      3.288
REMARK  Name = 7288_3Pentanone.pdbqt.pdb
REMARK  2 active torsions:
REMARK  status: ('A' for Active; 'I' for Inactive)
REMARK    1  A    between atoms: C_2  and  C_3
REMARK    2  A    between atoms: C_2  and  C_5
REMARK                            x       y       z     vdW  Elec       q    Type
REMARK                         _______ _______ _______ _____ _____    ______ ____
ROOT
ATOM      1  O   UNL     1      22.502   5.667 184.735  0.00  0.00    +0.000 OA
ATOM      2  C   UNL     1      22.233   5.136 185.806  0.00  0.00    +0.000 C 
ENDROOT
BRANCH   2   3
ATOM      3  C   UNL     1      21.108   4.239 185.927  0.00  0.00    +0.000 C 
ATOM      4  C   UNL     1      19.908   3.283 186.080  0.00  0.00    +0.000 C 
ENDBRANCH   2   3
BRANCH   2   5
ATOM      5  C   UNL     1      23.031   5.393 186.982  0.00  0.00    +0.000 C 
ATOM      6  C   UNL     1      23.902   5.654 188.227  0.00  0.00    +0.000 C 
ENDBRANCH   2   5
TORSDOF 2
ENDMDL
MODEL 3
REMARK VINA RESULT:      -3.7      2.493      3.343
REMARK  Name = 7288_3Pentanone.pdbqt.pdb
REMARK  2 active torsions:
REMARK  status: ('A' for Active; 'I' for Inactive)
REMARK    1  A    between atoms: C_2  and  C_3
REMARK    2  A    between atoms: C_2  and  C_5
REMARK                            x       y       z     vdW  Elec       q    Type
REMARK                         _______ _______ _______ _____ _____    ______ ____
ROOT
ATOM      1  O   UNL     1      22.695   3.440 185.985  0.00  0.00    +0.000 OA
ATOM      2  C   UNL     1      21.635   3.530 185.378  0.00  0.00    +0.000 C 
ENDROOT
BRANCH   2   3
ATOM      3  C   UNL     1      21.611   3.865 183.974  0.00  0.00    +0.000 C 
ATOM      4  C   UNL     1      21.604   4.207 182.471  0.00  0.00    +0.000 C 
ENDBRANCH   2   3
BRANCH   2   5
ATOM      5  C   UNL     1      20.376   3.302 186.047  0.00  0.00    +0.000 C 
ATOM      6  C   UNL     1      19.043   3.063 186.784  0.00  0.00    +0.000 C 
ENDBRANCH   2   5
TORSDOF 2
ENDMDL
MODEL 4
REMARK VINA RESULT:      -3.6      2.207      2.251
REMARK  Name = 7288_3Pentanone.pdbqt.pdb
REMARK  2 active torsions:
REMARK  status: ('A' for Active; 'I' for Inactive)
REMARK    1  A    between atoms: C_2  and  C_3
REMARK    2  A    between atoms: C_2  and  C_5
REMARK                            x       y       z     vdW  Elec       q    Type
REMARK                         _______ _______ _______ _____ _____    ______ ____
ROOT
ATOM      1  O   UNL     1      20.024   5.919 188.676  0.00  0.00    +0.000 OA
ATOM      2  C   UNL     1      20.817   5.294 187.983  0.00  0.00    +0.000 C 
ENDROOT
BRANCH   2   3
ATOM      3  C   UNL     1      22.234   5.560 188.054  0.00  0.00    +0.000 C 
ATOM      4  C   UNL     1      23.748   5.844 188.106  0.00  0.00    +0.000 C 
ENDBRANCH   2   3
BRANCH   2   5
ATOM      5  C   UNL     1      20.359   4.270 187.073  0.00  0.00    +0.000 C 
ATOM      6  C   UNL     1      19.847   3.184 186.106  0.00  0.00    +0.000 C 
ENDBRANCH   2   5
TORSDOF 2
ENDMDL
MODEL 5
REMARK VINA RESULT:      -3.6     20.500     21.099
REMARK  Name = 7288_3Pentanone.pdbqt.pdb
REMARK  2 active torsions:
REMARK  status: ('A' for Active; 'I' for Inactive)
REMARK    1  A    between atoms: C_2  and  C_3
REMARK    2  A    between atoms: C_2  and  C_5
REMARK                            x       y       z     vdW  Elec       q    Type
REMARK                         _______ _______ _______ _____ _____    ______ ____
ROOT
ATOM      1  O   UNL     1      30.673   2.400 168.857  0.00  0.00    +0.000 OA
ATOM      2  C   UNL     1      30.822   1.470 168.075  0.00  0.00    +0.000 C 
ENDROOT
BRANCH   2   3
ATOM      3  C   UNL     1      31.737   1.576 166.963  0.00  0.00    +0.000 C 
ATOM      4  C   UNL     1      32.709   1.666 165.771  0.00  0.00    +0.000 C 
ENDBRANCH   2   3
BRANCH   2   5
ATOM      5  C   UNL     1      30.089   0.237 168.240  0.00  0.00    +0.000 C 
ATOM      6  C   UNL     1      29.305  -1.082 168.393  0.00  0.00    +0.000 C 
ENDBRANCH   2   5
TORSDOF 2
ENDMDL
MODEL 6
REMARK VINA RESULT:      -3.5      2.216      4.178
REMARK  Name = 7288_3Pentanone.pdbqt.pdb
REMARK  2 active torsions:
REMARK  status: ('A' for Active; 'I' for Inactive)
REMARK    1  A    between atoms: C_2  and  C_3
REMARK    2  A    between atoms: C_2  and  C_5
REMARK                            x       y       z     vdW  Elec       q    Type
REMARK                         _______ _______ _______ _____ _____    ______ ____
ROOT
ATOM      1  O   UNL     1      20.068   3.510 185.469  0.00  0.00    +0.000 OA
ATOM      2  C   UNL     1      19.898   3.690 186.669  0.00  0.00    +0.000 C 
ENDROOT
BRANCH   2   3
ATOM      3  C   UNL     1      18.918   2.923 187.402  0.00  0.00    +0.000 C 
ATOM      4  C   UNL     1      17.873   2.121 188.202  0.00  0.00    +0.000 C 
ENDBRANCH   2   3
BRANCH   2   5
ATOM      5  C   UNL     1      20.671   4.674 187.388  0.00  0.00    +0.000 C 
ATOM      6  C   UNL     1      21.495   5.713 188.175  0.00  0.00    +0.000 C 
ENDBRANCH   2   5
TORSDOF 2
ENDMDL
MODEL 7
REMARK VINA RESULT:      -3.4      2.837      3.158
REMARK  Name = 7288_3Pentanone.pdbqt.pdb
REMARK  2 active torsions:
REMARK  status: ('A' for Active; 'I' for Inactive)
REMARK    1  A    between atoms: C_2  and  C_3
REMARK    2  A    between atoms: C_2  and  C_5
REMARK                            x       y       z     vdW  Elec       q    Type
REMARK                         _______ _______ _______ _____ _____    ______ ____
ROOT
ATOM      1  O   UNL     1      19.845   2.276 186.570  0.00  0.00    +0.000 OA
ATOM      2  C   UNL     1      20.328   3.386 186.388  0.00  0.00    +0.000 C 
ENDROOT
BRANCH   2   3
ATOM      3  C   UNL     1      20.265   4.399 187.414  0.00  0.00    +0.000 C 
ATOM      4  C   UNL     1      20.222   5.478 188.515  0.00  0.00    +0.000 C 
ENDBRANCH   2   3
BRANCH   2   5
ATOM      5  C   UNL     1      20.977   3.717 185.141  0.00  0.00    +0.000 C 
ATOM      6  C   UNL     1      21.649   4.064 183.797  0.00  0.00    +0.000 C 
ENDBRANCH   2   5
TORSDOF 2
ENDMDL
MODEL 8
REMARK VINA RESULT:      -3.3      3.307      4.209
REMARK  Name = 7288_3Pentanone.pdbqt.pdb
REMARK  2 active torsions:
REMARK  status: ('A' for Active; 'I' for Inactive)
REMARK    1  A    between atoms: C_2  and  C_3
REMARK    2  A    between atoms: C_2  and  C_5
REMARK                            x       y       z     vdW  Elec       q    Type
REMARK                         _______ _______ _______ _____ _____    ______ ____
ROOT
ATOM      1  O   UNL     1      19.343   4.788 188.550  0.00  0.00    +0.000 OA
ATOM      2  C   UNL     1      19.259   3.749 187.907  0.00  0.00    +0.000 C 
ENDROOT
BRANCH   2   3
ATOM      3  C   UNL     1      19.954   3.598 186.650  0.00  0.00    +0.000 C 
ATOM      4  C   UNL     1      20.710   3.419 185.320  0.00  0.00    +0.000 C 
ENDBRANCH   2   3
BRANCH   2   5
ATOM      5  C   UNL     1      18.462   2.644 188.384  0.00  0.00    +0.000 C 
ATOM      6  C   UNL     1      17.631   1.451 188.898  0.00  0.00    +0.000 C 
ENDBRANCH   2   5
TORSDOF 2
ENDMDL
MODEL 9
REMARK VINA RESULT:      -3.3      3.721      4.369
REMARK  Name = 7288_3Pentanone.pdbqt.pdb
REMARK  2 active torsions:
REMARK  status: ('A' for Active; 'I' for Inactive)
REMARK    1  A    between atoms: C_2  and  C_3
REMARK    2  A    between atoms: C_2  and  C_5
REMARK                            x       y       z     vdW  Elec       q    Type
REMARK                         _______ _______ _______ _____ _____    ______ ____
ROOT
ATOM      1  O   UNL     1      17.706   2.474 187.738  0.00  0.00    +0.000 OA
ATOM      2  C   UNL     1      18.859   2.861 187.882  0.00  0.00    +0.000 C 
ENDROOT
BRANCH   2   3
ATOM      3  C   UNL     1      19.437   2.998 189.198  0.00  0.00    +0.000 C 
ATOM      4  C   UNL     1      20.073   3.154 190.593  0.00  0.00    +0.000 C 
ENDBRANCH   2   3
BRANCH   2   5
ATOM      5  C   UNL     1      19.677   3.194 186.739  0.00  0.00    +0.000 C 
ATOM      6  C   UNL     1      20.530   3.554 185.506  0.00  0.00    +0.000 C 
ENDBRANCH   2   5
TORSDOF 2
ENDMDL
