REMARK  Name = 7288_3Pentanone.pdbqt.pdb
REMARK  2 active torsions:
REMARK  status: ('A' for Active; 'I' for Inactive)
REMARK    1  A    between atoms: C_2  and  C_3
REMARK    2  A    between atoms: C_2  and  C_5
REMARK                            x       y       z     vdW  Elec       q    Type
REMARK                         _______ _______ _______ _____ _____    ______ ____
ROOT
ATOM      1  O   UNL     1       0.000   1.785   0.000  0.00  0.00    +0.000 OA
ATOM      2  C   UNL     1       0.000   0.560   0.000  0.00  0.00    +0.000 C 
ENDROOT
BRANCH   2   3
ATOM      3  C   UNL     1       1.239  -0.181   0.000  0.00  0.00    +0.000 C 
ATOM      4  C   UNL     1       2.549  -0.993   0.001  0.00  0.00    +0.000 C 
ENDBRANCH   2   3
BRANCH   2   5
ATOM      5  C   UNL     1      -1.239  -0.181   0.000  0.00  0.00    +0.000 C 
ATOM      6  C   UNL     1      -2.550  -0.993  -0.001  0.00  0.00    +0.000 C 
ENDBRANCH   2   5
TORSDOF 2
