MODEL 1
REMARK VINA RESULT:      -9.8      0.000      0.000
REMARK  Name = 73299_Hederagenin.pdbqt.pdb
REMARK  5 active torsions:
REMARK  status: ('A' for Active; 'I' for Inactive)
REMARK    1  A    between atoms: C_9  and  C_35
REMARK    2  A    between atoms: C_14  and  C_32
REMARK    3  A    between atoms: C_17  and  O_29
REMARK    4  A    between atoms: C_32  and  O_33
REMARK    5  A    between atoms: C_35  and  O_36
REMARK                            x       y       z     vdW  Elec       q    Type
REMARK                         _______ _______ _______ _____ _____    ______ ____
ROOT
ATOM      1  C   UNL     1      20.687   1.157 192.393  0.00  0.00    +0.000 C 
ATOM      2  C   UNL     1      21.895   0.130 192.350  0.00  0.00    +0.000 C 
ATOM      3  C   UNL     1      22.292  -0.755 193.536  0.00  0.00    +0.000 C 
ATOM      4  C   UNL     1      21.049   2.580 191.627  0.00  0.00    +0.000 C 
ATOM      5  C   UNL     1      22.089  -0.163 194.961  0.00  0.00    +0.000 C 
ATOM      6  C   UNL     1      20.415   1.377 193.818  0.00  0.00    +0.000 C 
ATOM      7  C   UNL     1      21.038   0.792 195.041  0.00  0.00    +0.000 C 
ATOM      8  C   UNL     1      21.698   2.338 190.157  0.00  0.00    +0.000 C 
ATOM      9  C   UNL     1      23.092  -0.372 196.109  0.00  0.00    +0.000 C 
ATOM     10  C   UNL     1      21.366   3.123 188.948  0.00  0.00    +0.000 C 
ATOM     11  C   UNL     1      22.613   0.190 191.115  0.00  0.00    +0.000 C 
ATOM     12  C   UNL     1      23.714  -1.077 193.458  0.00  0.00    +0.000 C 
ATOM     13  C   UNL     1      19.866   3.416 191.349  0.00  0.00    +0.000 C 
ATOM     14  C   UNL     1      19.887   3.812 188.699  0.00  0.00    +0.000 C 
ATOM     15  C   UNL     1      19.453   0.437 191.712  0.00  0.00    +0.000 C 
ATOM     16  C   UNL     1      19.356   3.996 190.050  0.00  0.00    +0.000 C 
ATOM     17  C   UNL     1      24.401  -1.149 195.807  0.00  0.00    +0.000 C 
ATOM     18  C   UNL     1      22.449   1.277 190.090  0.00  0.00    +0.000 C 
ATOM     19  C   UNL     1      21.451  -2.055 193.453  0.00  0.00    +0.000 C 
ATOM     20  C   UNL     1      24.792  -1.300 194.465  0.00  0.00    +0.000 C 
ATOM     21  C   UNL     1      22.130   3.433 192.422  0.00  0.00    +0.000 C 
ATOM     22  C   UNL     1      22.463   3.760 188.220  0.00  0.00    +0.000 C 
ATOM     23  C   UNL     1      20.192   5.060 187.948  0.00  0.00    +0.000 C 
ATOM     24  C   UNL     1      22.858   4.950 187.376  0.00  0.00    +0.000 C 
ATOM     25  C   UNL     1      22.363  -1.102 197.285  0.00  0.00    +0.000 C 
ATOM     26  C   UNL     1      21.507   5.594 187.322  0.00  0.00    +0.000 C 
ATOM     27  C   UNL     1      23.885   5.834 188.107  0.00  0.00    +0.000 C 
ATOM     28  C   UNL     1      23.344   4.516 185.982  0.00  0.00    +0.000 C 
ENDROOT
BRANCH  17  29
ATOM     29  O   UNL     1      25.008  -1.934 196.773  0.00  0.00    +0.000 OA
ATOM     30  H   UNL     1      24.535  -2.786 196.877  0.00  0.00    +0.000 HD
ENDBRANCH  17  29
BRANCH  14  32
ATOM     31  O   UNL     1      18.266   2.012 188.257  0.00  0.00    +0.000 OA
ATOM     32  C   UNL     1      19.063   2.843 187.843  0.00  0.00    +0.000 C 
BRANCH  32  33
ATOM     33  O   UNL     1      19.327   2.906 186.519  0.00  0.00    +0.000 OA
ATOM     34  H   UNL     1      20.130   3.465 186.445  0.00  0.00    +0.000 HD
ENDBRANCH  32  33
ENDBRANCH  14  32
BRANCH   9  35
ATOM     35  C   UNL     1      23.539   0.981 196.570  0.00  0.00    +0.000 C 
BRANCH  35  36
ATOM     36  O   UNL     1      23.947   2.181 196.992  0.00  0.00    +0.000 OA
ATOM     37  H   UNL     1      23.604   2.374 197.884  0.00  0.00    +0.000 HD
ENDBRANCH  35  36
ENDBRANCH   9  35
TORSDOF 5
ENDMDL
MODEL 2
REMARK VINA RESULT:      -9.4      3.059      3.961
REMARK  Name = 73299_Hederagenin.pdbqt.pdb
REMARK  5 active torsions:
REMARK  status: ('A' for Active; 'I' for Inactive)
REMARK    1  A    between atoms: C_9  and  C_35
REMARK    2  A    between atoms: C_14  and  C_32
REMARK    3  A    between atoms: C_17  and  O_29
REMARK    4  A    between atoms: C_32  and  O_33
REMARK    5  A    between atoms: C_35  and  O_36
REMARK                            x       y       z     vdW  Elec       q    Type
REMARK                         _______ _______ _______ _____ _____    ______ ____
ROOT
ATOM      1  C   UNL     1      23.504   1.059 192.325  0.00  0.00    +0.000 C 
ATOM      2  C   UNL     1      24.632   0.359 191.457  0.00  0.00    +0.000 C 
ATOM      3  C   UNL     1      25.986  -0.077 192.026  0.00  0.00    +0.000 C 
ATOM      4  C   UNL     1      22.749   2.282 191.502  0.00  0.00    +0.000 C 
ATOM      5  C   UNL     1      26.592   0.798 193.161  0.00  0.00    +0.000 C 
ATOM      6  C   UNL     1      24.192   1.569 193.517  0.00  0.00    +0.000 C 
ATOM      7  C   UNL     1      25.618   1.475 193.946  0.00  0.00    +0.000 C 
ATOM      8  C   UNL     1      22.290   1.826 190.011  0.00  0.00    +0.000 C 
ATOM      9  C   UNL     1      28.092   1.125 193.261  0.00  0.00    +0.000 C 
ATOM     10  C   UNL     1      20.999   2.177 189.381  0.00  0.00    +0.000 C 
ATOM     11  C   UNL     1      24.271   0.264 190.076  0.00  0.00    +0.000 C 
ATOM     12  C   UNL     1      26.991  -0.075 190.967  0.00  0.00    +0.000 C 
ATOM     13  C   UNL     1      21.491   2.725 192.130  0.00  0.00    +0.000 C 
ATOM     14  C   UNL     1      19.613   2.423 190.243  0.00  0.00    +0.000 C 
ATOM     15  C   UNL     1      22.478  -0.074 192.736  0.00  0.00    +0.000 C 
ATOM     16  C   UNL     1      20.092   2.821 191.567  0.00  0.00    +0.000 C 
ATOM     17  C   UNL     1      29.030   0.617 192.134  0.00  0.00    +0.000 C 
ATOM     18  C   UNL     1      23.110   0.984 189.450  0.00  0.00    +0.000 C 
ATOM     19  C   UNL     1      25.816  -1.512 192.590  0.00  0.00    +0.000 C 
ATOM     20  C   UNL     1      28.453   0.220 190.914  0.00  0.00    +0.000 C 
ATOM     21  C   UNL     1      23.703   3.534 191.277  0.00  0.00    +0.000 C 
ATOM     22  C   UNL     1      21.029   2.840 188.077  0.00  0.00    +0.000 C 
ATOM     23  C   UNL     1      18.891   3.472 189.474  0.00  0.00    +0.000 C 
ATOM     24  C   UNL     1      20.325   3.832 187.180  0.00  0.00    +0.000 C 
ATOM     25  C   UNL     1      28.636   0.574 194.621  0.00  0.00    +0.000 C 
ATOM     26  C   UNL     1      19.168   4.114 188.090  0.00  0.00    +0.000 C 
ATOM     27  C   UNL     1      21.190   5.084 186.948  0.00  0.00    +0.000 C 
ATOM     28  C   UNL     1      19.873   3.178 185.862  0.00  0.00    +0.000 C 
ENDROOT
BRANCH  17  29
ATOM     29  O   UNL     1      30.343   0.266 192.398  0.00  0.00    +0.000 OA
ATOM     30  H   UNL     1      30.667  -0.388 191.744  0.00  0.00    +0.000 HD
ENDBRANCH  17  29
BRANCH  14  32
ATOM     31  O   UNL     1      17.808   0.871 189.613  0.00  0.00    +0.000 OA
ATOM     32  C   UNL     1      18.829   1.105 190.245  0.00  0.00    +0.000 C 
BRANCH  32  33
ATOM     33  O   UNL     1      19.315   0.169 191.090  0.00  0.00    +0.000 OA
ATOM     34  H   UNL     1      18.535  -0.151 191.592  0.00  0.00    +0.000 HD
ENDBRANCH  32  33
ENDBRANCH  14  32
BRANCH   9  35
ATOM     35  C   UNL     1      28.231   2.615 193.241  0.00  0.00    +0.000 C 
BRANCH  35  36
ATOM     36  O   UNL     1      28.346   3.946 193.213  0.00  0.00    +0.000 OA
ATOM     37  H   UNL     1      28.491   4.305 194.108  0.00  0.00    +0.000 HD
ENDBRANCH  35  36
ENDBRANCH   9  35
TORSDOF 5
ENDMDL
MODEL 3
REMARK VINA RESULT:      -9.3      2.424      8.096
REMARK  Name = 73299_Hederagenin.pdbqt.pdb
REMARK  5 active torsions:
REMARK  status: ('A' for Active; 'I' for Inactive)
REMARK    1  A    between atoms: C_9  and  C_35
REMARK    2  A    between atoms: C_14  and  C_32
REMARK    3  A    between atoms: C_17  and  O_29
REMARK    4  A    between atoms: C_32  and  O_33
REMARK    5  A    between atoms: C_35  and  O_36
REMARK                            x       y       z     vdW  Elec       q    Type
REMARK                         _______ _______ _______ _____ _____    ______ ____
ROOT
ATOM      1  C   UNL     1      20.057   1.564 190.961  0.00  0.00    +0.000 C 
ATOM      2  C   UNL     1      20.823   2.951 190.917  0.00  0.00    +0.000 C 
ATOM      3  C   UNL     1      21.020   3.767 189.634  0.00  0.00    +0.000 C 
ATOM      4  C   UNL     1      20.799   0.470 191.958  0.00  0.00    +0.000 C 
ATOM      5  C   UNL     1      21.193   2.970 188.308  0.00  0.00    +0.000 C 
ATOM      6  C   UNL     1      20.036   1.087 189.573  0.00  0.00    +0.000 C 
ATOM      7  C   UNL     1      20.551   1.700 188.314  0.00  0.00    +0.000 C 
ATOM      8  C   UNL     1      21.157   1.107 193.409  0.00  0.00    +0.000 C 
ATOM      9  C   UNL     1      22.183   3.379 187.204  0.00  0.00    +0.000 C 
ATOM     10  C   UNL     1      20.984   0.411 194.703  0.00  0.00    +0.000 C 
ATOM     11  C   UNL     1      21.377   3.304 192.188  0.00  0.00    +0.000 C 
ATOM     12  C   UNL     1      22.226   4.582 189.747  0.00  0.00    +0.000 C 
ATOM     13  C   UNL     1      19.954  -0.692 192.290  0.00  0.00    +0.000 C 
ATOM     14  C   UNL     1      19.816  -0.725 194.966  0.00  0.00    +0.000 C 
ATOM     15  C   UNL     1      18.582   1.875 191.446  0.00  0.00    +0.000 C 
ATOM     16  C   UNL     1      19.535  -1.251 193.630  0.00  0.00    +0.000 C 
ATOM     17  C   UNL     1      23.102   4.603 187.461  0.00  0.00    +0.000 C 
ATOM     18  C   UNL     1      21.485   2.366 193.356  0.00  0.00    +0.000 C 
ATOM     19  C   UNL     1      19.779   4.680 189.465  0.00  0.00    +0.000 C 
ATOM     20  C   UNL     1      23.266   5.049 188.784  0.00  0.00    +0.000 C 
ATOM     21  C   UNL     1      22.189  -0.032 191.371  0.00  0.00    +0.000 C 
ATOM     22  C   UNL     1      22.147   0.303 195.585  0.00  0.00    +0.000 C 
ATOM     23  C   UNL     1      20.447  -1.678 195.917  0.00  0.00    +0.000 C 
ATOM     24  C   UNL     1      22.832  -0.554 196.625  0.00  0.00    +0.000 C 
ATOM     25  C   UNL     1      21.382   3.650 185.888  0.00  0.00    +0.000 C 
ATOM     26  C   UNL     1      21.787  -1.626 196.696  0.00  0.00    +0.000 C 
ATOM     27  C   UNL     1      24.174  -1.096 196.102  0.00  0.00    +0.000 C 
ATOM     28  C   UNL     1      22.981   0.193 197.962  0.00  0.00    +0.000 C 
ENDROOT
BRANCH  17  29
ATOM     29  O   UNL     1      23.504   5.427 186.423  0.00  0.00    +0.000 OA
ATOM     30  H   UNL     1      23.410   4.973 185.560  0.00  0.00    +0.000 HD
ENDBRANCH  17  29
BRANCH  14  32
ATOM     31  O   UNL     1      18.468   1.194 195.718  0.00  0.00    +0.000 OA
ATOM     32  C   UNL     1      18.619  -0.016 195.611  0.00  0.00    +0.000 C 
BRANCH  32  33
ATOM     33  O   UNL     1      17.706  -0.849 196.156  0.00  0.00    +0.000 OA
ATOM     34  H   UNL     1      17.030  -0.261 196.557  0.00  0.00    +0.000 HD
ENDBRANCH  32  33
ENDBRANCH  14  32
BRANCH   9  35
ATOM     35  C   UNL     1      23.117   2.230 186.986  0.00  0.00    +0.000 C 
BRANCH  35  36
ATOM     36  O   UNL     1      23.948   1.200 186.805  0.00  0.00    +0.000 OA
ATOM     37  H   UNL     1      23.461   0.400 186.532  0.00  0.00    +0.000 HD
ENDBRANCH  35  36
ENDBRANCH   9  35
TORSDOF 5
ENDMDL
MODEL 4
REMARK VINA RESULT:      -8.7      1.825      8.409
REMARK  Name = 73299_Hederagenin.pdbqt.pdb
REMARK  5 active torsions:
REMARK  status: ('A' for Active; 'I' for Inactive)
REMARK    1  A    between atoms: C_9  and  C_35
REMARK    2  A    between atoms: C_14  and  C_32
REMARK    3  A    between atoms: C_17  and  O_29
REMARK    4  A    between atoms: C_32  and  O_33
REMARK    5  A    between atoms: C_35  and  O_36
REMARK                            x       y       z     vdW  Elec       q    Type
REMARK                         _______ _______ _______ _____ _____    ______ ____
ROOT
ATOM      1  C   UNL     1      23.888   2.243 190.979  0.00  0.00    +0.000 C 
ATOM      2  C   UNL     1      22.974   1.521 189.902  0.00  0.00    +0.000 C 
ATOM      3  C   UNL     1      22.823   2.013 188.458  0.00  0.00    +0.000 C 
ATOM      4  C   UNL     1      23.174   2.291 192.473  0.00  0.00    +0.000 C 
ATOM      5  C   UNL     1      22.887   3.550 188.223  0.00  0.00    +0.000 C 
ATOM      6  C   UNL     1      24.112   3.595 190.455  0.00  0.00    +0.000 C 
ATOM      7  C   UNL     1      23.668   4.246 189.188  0.00  0.00    +0.000 C 
ATOM      8  C   UNL     1      22.591   0.843 192.921  0.00  0.00    +0.000 C 
ATOM      9  C   UNL     1      21.981   4.286 187.222  0.00  0.00    +0.000 C 
ATOM     10  C   UNL     1      22.703   0.271 194.281  0.00  0.00    +0.000 C 
ATOM     11  C   UNL     1      22.250   0.420 190.457  0.00  0.00    +0.000 C 
ATOM     12  C   UNL     1      21.526   1.602 187.930  0.00  0.00    +0.000 C 
ATOM     13  C   UNL     1      24.108   2.638 193.560  0.00  0.00    +0.000 C 
ATOM     14  C   UNL     1      23.960   0.604 195.297  0.00  0.00    +0.000 C 
ATOM     15  C   UNL     1      25.255   1.446 191.022  0.00  0.00    +0.000 C 
ATOM     16  C   UNL     1      24.443   1.907 194.839  0.00  0.00    +0.000 C 
ATOM     17  C   UNL     1      20.904   3.464 186.466  0.00  0.00    +0.000 C 
ATOM     18  C   UNL     1      22.127   0.140 191.928  0.00  0.00    +0.000 C 
ATOM     19  C   UNL     1      23.960   1.371 187.623  0.00  0.00    +0.000 C 
ATOM     20  C   UNL     1      20.548   2.202 186.976  0.00  0.00    +0.000 C 
ATOM     21  C   UNL     1      21.923   3.272 192.510  0.00  0.00    +0.000 C 
ATOM     22  C   UNL     1      21.473  -0.149 194.953  0.00  0.00    +0.000 C 
ATOM     23  C   UNL     1      23.346   0.582 196.651  0.00  0.00    +0.000 C 
ATOM     24  C   UNL     1      20.785  -0.291 196.291  0.00  0.00    +0.000 C 
ATOM     25  C   UNL     1      22.882   4.991 186.154  0.00  0.00    +0.000 C 
ATOM     26  C   UNL     1      21.933   0.167 197.138  0.00  0.00    +0.000 C 
ATOM     27  C   UNL     1      19.578   0.659 196.399  0.00  0.00    +0.000 C 
ATOM     28  C   UNL     1      20.407  -1.755 196.578  0.00  0.00    +0.000 C 
ENDROOT
BRANCH  17  29
ATOM     29  O   UNL     1      20.523   3.796 185.176  0.00  0.00    +0.000 OA
ATOM     30  H   UNL     1      20.458   2.995 184.615  0.00  0.00    +0.000 HD
ENDBRANCH  17  29
BRANCH  14  32
ATOM     31  O   UNL     1      26.168  -0.385 194.836  0.00  0.00    +0.000 OA
ATOM     32  C   UNL     1      24.991  -0.521 195.142  0.00  0.00    +0.000 C 
BRANCH  32  33
ATOM     33  O   UNL     1      24.486  -1.764 195.302  0.00  0.00    +0.000 OA
ATOM     34  H   UNL     1      24.860  -2.289 194.562  0.00  0.00    +0.000 HD
ENDBRANCH  32  33
ENDBRANCH  14  32
BRANCH   9  35
ATOM     35  C   UNL     1      21.216   5.324 187.983  0.00  0.00    +0.000 C 
BRANCH  35  36
ATOM     36  O   UNL     1      20.528   6.239 188.671  0.00  0.00    +0.000 OA
ATOM     37  H   UNL     1      20.965   6.442 189.518  0.00  0.00    +0.000 HD
ENDBRANCH  35  36
ENDBRANCH   9  35
TORSDOF 5
ENDMDL
MODEL 5
REMARK VINA RESULT:      -8.4      3.239      5.121
REMARK  Name = 73299_Hederagenin.pdbqt.pdb
REMARK  5 active torsions:
REMARK  status: ('A' for Active; 'I' for Inactive)
REMARK    1  A    between atoms: C_9  and  C_35
REMARK    2  A    between atoms: C_14  and  C_32
REMARK    3  A    between atoms: C_17  and  O_29
REMARK    4  A    between atoms: C_32  and  O_33
REMARK    5  A    between atoms: C_35  and  O_36
REMARK                            x       y       z     vdW  Elec       q    Type
REMARK                         _______ _______ _______ _____ _____    ______ ____
ROOT
ATOM      1  C   UNL     1      25.667   2.233 189.687  0.00  0.00    +0.000 C 
ATOM      2  C   UNL     1      25.613   2.689 191.205  0.00  0.00    +0.000 C 
ATOM      3  C   UNL     1      26.616   2.220 192.263  0.00  0.00    +0.000 C 
ATOM      4  C   UNL     1      24.160   1.933 189.070  0.00  0.00    +0.000 C 
ATOM      5  C   UNL     1      27.179   0.776 192.114  0.00  0.00    +0.000 C 
ATOM      6  C   UNL     1      26.496   1.022 189.674  0.00  0.00    +0.000 C 
ATOM      7  C   UNL     1      27.214   0.309 190.771  0.00  0.00    +0.000 C 
ATOM      8  C   UNL     1      23.114   3.133 189.393  0.00  0.00    +0.000 C 
ATOM      9  C   UNL     1      27.417  -0.161 193.310  0.00  0.00    +0.000 C 
ATOM     10  C   UNL     1      22.123   3.670 188.436  0.00  0.00    +0.000 C 
ATOM     11  C   UNL     1      24.477   3.513 191.482  0.00  0.00    +0.000 C 
ATOM     12  C   UNL     1      25.993   2.250 193.583  0.00  0.00    +0.000 C 
ATOM     13  C   UNL     1      24.134   1.840 187.598  0.00  0.00    +0.000 C 
ATOM     14  C   UNL     1      22.365   3.687 186.803  0.00  0.00    +0.000 C 
ATOM     15  C   UNL     1      26.392   3.393 188.890  0.00  0.00    +0.000 C 
ATOM     16  C   UNL     1      23.314   2.597 186.580  0.00  0.00    +0.000 C 
ATOM     17  C   UNL     1      27.006   0.334 194.723  0.00  0.00    +0.000 C 
ATOM     18  C   UNL     1      23.315   3.700 190.548  0.00  0.00    +0.000 C 
ATOM     19  C   UNL     1      27.824   3.191 192.227  0.00  0.00    +0.000 C 
ATOM     20  C   UNL     1      26.118   1.420 194.817  0.00  0.00    +0.000 C 
ATOM     21  C   UNL     1      23.502   0.628 189.698  0.00  0.00    +0.000 C 
ATOM     22  C   UNL     1      20.717   3.691 188.842  0.00  0.00    +0.000 C 
ATOM     23  C   UNL     1      21.005   3.488 186.234  0.00  0.00    +0.000 C 
ATOM     24  C   UNL     1      19.290   3.585 188.356  0.00  0.00    +0.000 C 
ATOM     25  C   UNL     1      28.935  -0.539 193.358  0.00  0.00    +0.000 C 
ATOM     26  C   UNL     1      19.602   3.456 186.896  0.00  0.00    +0.000 C 
ATOM     27  C   UNL     1      18.606   2.321 188.909  0.00  0.00    +0.000 C 
ATOM     28  C   UNL     1      18.493   4.866 188.662  0.00  0.00    +0.000 C 
ENDROOT
BRANCH  17  29
ATOM     29  O   UNL     1      27.708  -0.055 195.851  0.00  0.00    +0.000 OA
ATOM     30  H   UNL     1      28.295   0.665 196.162  0.00  0.00    +0.000 HD
ENDBRANCH  17  29
BRANCH  14  32
ATOM     31  O   UNL     1      23.845   5.648 186.985  0.00  0.00    +0.000 OA
ATOM     32  C   UNL     1      22.918   5.069 186.433  0.00  0.00    +0.000 C 
BRANCH  32  33
ATOM     33  O   UNL     1      22.243   5.692 185.442  0.00  0.00    +0.000 OA
ATOM     34  H   UNL     1      22.332   6.650 185.636  0.00  0.00    +0.000 HD
ENDBRANCH  32  33
ENDBRANCH  14  32
BRANCH   9  35
ATOM     35  C   UNL     1      26.608  -1.400 193.081  0.00  0.00    +0.000 C 
BRANCH  35  36
ATOM     36  O   UNL     1      25.898  -2.512 192.871  0.00  0.00    +0.000 OA
ATOM     37  H   UNL     1      25.172  -2.592 193.517  0.00  0.00    +0.000 HD
ENDBRANCH  35  36
ENDBRANCH   9  35
TORSDOF 5
ENDMDL
MODEL 6
REMARK VINA RESULT:      -7.5     23.970     26.898
REMARK  Name = 73299_Hederagenin.pdbqt.pdb
REMARK  5 active torsions:
REMARK  status: ('A' for Active; 'I' for Inactive)
REMARK    1  A    between atoms: C_9  and  C_35
REMARK    2  A    between atoms: C_14  and  C_32
REMARK    3  A    between atoms: C_17  and  O_29
REMARK    4  A    between atoms: C_32  and  O_33
REMARK    5  A    between atoms: C_35  and  O_36
REMARK                            x       y       z     vdW  Elec       q    Type
REMARK                         _______ _______ _______ _____ _____    ______ ____
ROOT
ATOM      1  C   UNL     1      14.373 -18.476 178.554  0.00  0.00    +0.000 C 
ATOM      2  C   UNL     1      12.893 -18.029 178.201  0.00  0.00    +0.000 C 
ATOM      3  C   UNL     1      12.475 -16.566 178.018  0.00  0.00    +0.000 C 
ATOM      4  C   UNL     1      14.406 -19.713 179.655  0.00  0.00    +0.000 C 
ATOM      5  C   UNL     1      13.204 -15.506 178.894  0.00  0.00    +0.000 C 
ATOM      6  C   UNL     1      15.026 -17.275 179.087  0.00  0.00    +0.000 C 
ATOM      7  C   UNL     1      14.525 -15.881 179.267  0.00  0.00    +0.000 C 
ATOM      8  C   UNL     1      13.397 -20.921 179.252  0.00  0.00    +0.000 C 
ATOM      9  C   UNL     1      12.488 -14.302 179.528  0.00  0.00    +0.000 C 
ATOM     10  C   UNL     1      13.714 -22.361 179.372  0.00  0.00    +0.000 C 
ATOM     11  C   UNL     1      11.988 -19.136 178.159  0.00  0.00    +0.000 C 
ATOM     12  C   UNL     1      11.059 -16.413 178.338  0.00  0.00    +0.000 C 
ATOM     13  C   UNL     1      15.719 -20.378 179.753  0.00  0.00    +0.000 C 
ATOM     14  C   UNL     1      15.244 -22.962 179.229  0.00  0.00    +0.000 C 
ATOM     15  C   UNL     1      15.056 -18.903 177.192  0.00  0.00    +0.000 C 
ATOM     16  C   UNL     1      16.098 -21.832 179.595  0.00  0.00    +0.000 C 
ATOM     17  C   UNL     1      10.951 -14.184 179.345  0.00  0.00    +0.000 C 
ATOM     18  C   UNL     1      12.309 -20.514 178.665  0.00  0.00    +0.000 C 
ATOM     19  C   UNL     1      12.724 -16.190 176.535  0.00  0.00    +0.000 C 
ATOM     20  C   UNL     1      10.236 -15.328 178.948  0.00  0.00    +0.000 C 
ATOM     21  C   UNL     1      13.936 -19.245 181.100  0.00  0.00    +0.000 C 
ATOM     22  C   UNL     1      12.800 -23.203 180.144  0.00  0.00    +0.000 C 
ATOM     23  C   UNL     1      15.266 -24.120 180.163  0.00  0.00    +0.000 C 
ATOM     24  C   UNL     1      12.699 -24.417 181.039  0.00  0.00    +0.000 C 
ATOM     25  C   UNL     1      13.138 -12.987 178.984  0.00  0.00    +0.000 C 
ATOM     26  C   UNL     1      14.142 -24.813 180.976  0.00  0.00    +0.000 C 
ATOM     27  C   UNL     1      12.274 -24.023 182.466  0.00  0.00    +0.000 C 
ATOM     28  C   UNL     1      11.781 -25.491 180.429  0.00  0.00    +0.000 C 
ENDROOT
BRANCH  17  29
ATOM     29  O   UNL     1      10.332 -12.947 179.265  0.00  0.00    +0.000 OA
ATOM     30  H   UNL     1      10.871 -12.321 178.738  0.00  0.00    +0.000 HD
ENDBRANCH  17  29
BRANCH  14  32
ATOM     31  O   UNL     1      14.582 -23.374 176.892  0.00  0.00    +0.000 OA
ATOM     32  C   UNL     1      15.426 -23.423 177.777  0.00  0.00    +0.000 C 
BRANCH  32  33
ATOM     33  O   UNL     1      16.624 -23.991 177.519  0.00  0.00    +0.000 OA
ATOM     34  H   UNL     1      16.895 -23.631 176.647  0.00  0.00    +0.000 HD
ENDBRANCH  32  33
ENDBRANCH  14  32
BRANCH   9  35
ATOM     35  C   UNL     1      12.698 -14.380 181.009  0.00  0.00    +0.000 C 
BRANCH  35  36
ATOM     36  O   UNL     1      12.900 -14.449 182.327  0.00  0.00    +0.000 OA
ATOM     37  H   UNL     1      13.566 -13.797 182.615  0.00  0.00    +0.000 HD
ENDBRANCH  35  36
ENDBRANCH   9  35
TORSDOF 5
ENDMDL
MODEL 7
REMARK VINA RESULT:      -7.2      5.721      7.918
REMARK  Name = 73299_Hederagenin.pdbqt.pdb
REMARK  5 active torsions:
REMARK  status: ('A' for Active; 'I' for Inactive)
REMARK    1  A    between atoms: C_9  and  C_35
REMARK    2  A    between atoms: C_14  and  C_32
REMARK    3  A    between atoms: C_17  and  O_29
REMARK    4  A    between atoms: C_32  and  O_33
REMARK    5  A    between atoms: C_35  and  O_36
REMARK                            x       y       z     vdW  Elec       q    Type
REMARK                         _______ _______ _______ _____ _____    ______ ____
ROOT
ATOM      1  C   UNL     1      27.523   2.434 189.774  0.00  0.00    +0.000 C 
ATOM      2  C   UNL     1      28.321   2.966 191.037  0.00  0.00    +0.000 C 
ATOM      3  C   UNL     1      29.845   3.124 191.067  0.00  0.00    +0.000 C 
ATOM      4  C   UNL     1      26.292   1.410 190.197  0.00  0.00    +0.000 C 
ATOM      5  C   UNL     1      30.679   2.097 190.247  0.00  0.00    +0.000 C 
ATOM      6  C   UNL     1      28.520   1.750 188.944  0.00  0.00    +0.000 C 
ATOM      7  C   UNL     1      29.990   1.565 189.122  0.00  0.00    +0.000 C 
ATOM      8  C   UNL     1      25.372   2.017 191.390  0.00  0.00    +0.000 C 
ATOM      9  C   UNL     1      32.007   1.503 190.747  0.00  0.00    +0.000 C 
ATOM     10  C   UNL     1      23.896   1.935 191.443  0.00  0.00    +0.000 C 
ATOM     11  C   UNL     1      27.466   3.195 192.161  0.00  0.00    +0.000 C 
ATOM     12  C   UNL     1      30.328   2.997 192.439  0.00  0.00    +0.000 C 
ATOM     13  C   UNL     1      25.328   1.167 189.108  0.00  0.00    +0.000 C 
ATOM     14  C   UNL     1      22.946   1.896 190.094  0.00  0.00    +0.000 C 
ATOM     15  C   UNL     1      26.972   3.710 189.015  0.00  0.00    +0.000 C 
ATOM     16  C   UNL     1      23.829   1.351 189.062  0.00  0.00    +0.000 C 
ATOM     17  C   UNL     1      32.497   1.893 192.167  0.00  0.00    +0.000 C 
ATOM     18  C   UNL     1      26.041   2.727 192.252  0.00  0.00    +0.000 C 
ATOM     19  C   UNL     1      30.180   4.534 190.518  0.00  0.00    +0.000 C 
ATOM     20  C   UNL     1      31.567   2.449 193.064  0.00  0.00    +0.000 C 
ATOM     21  C   UNL     1      26.830   0.021 190.754  0.00  0.00    +0.000 C 
ATOM     22  C   UNL     1      23.283   1.346 192.634  0.00  0.00    +0.000 C 
ATOM     23  C   UNL     1      21.799   1.033 190.484  0.00  0.00    +0.000 C 
ATOM     24  C   UNL     1      22.111   0.543 193.151  0.00  0.00    +0.000 C 
ATOM     25  C   UNL     1      33.138   1.877 189.732  0.00  0.00    +0.000 C 
ATOM     26  C   UNL     1      21.380   0.425 191.848  0.00  0.00    +0.000 C 
ATOM     27  C   UNL     1      22.566  -0.830 193.678  0.00  0.00    +0.000 C 
ATOM     28  C   UNL     1      21.302   1.334 194.194  0.00  0.00    +0.000 C 
ENDROOT
BRANCH  17  29
ATOM     29  O   UNL     1      33.847   1.990 192.459  0.00  0.00    +0.000 OA
ATOM     30  H   UNL     1      34.019   1.757 193.395  0.00  0.00    +0.000 HD
ENDBRANCH  17  29
BRANCH  14  32
ATOM     31  O   UNL     1      23.161   4.223 189.316  0.00  0.00    +0.000 OA
ATOM     32  C   UNL     1      22.485   3.331 189.811  0.00  0.00    +0.000 C 
BRANCH  32  33
ATOM     33  O   UNL     1      21.229   3.604 190.228  0.00  0.00    +0.000 OA
ATOM     34  H   UNL     1      20.647   3.048 189.666  0.00  0.00    +0.000 HD
ENDBRANCH  32  33
ENDBRANCH  14  32
BRANCH   9  35
ATOM     35  C   UNL     1      31.851   0.015 190.785  0.00  0.00    +0.000 C 
BRANCH  35  36
ATOM     36  O   UNL     1      31.696  -1.312 190.820  0.00  0.00    +0.000 OA
ATOM     37  H   UNL     1      31.871  -1.662 191.713  0.00  0.00    +0.000 HD
ENDBRANCH  35  36
ENDBRANCH   9  35
TORSDOF 5
ENDMDL
MODEL 8
REMARK VINA RESULT:      -7.2     35.282     37.237
REMARK  Name = 73299_Hederagenin.pdbqt.pdb
REMARK  5 active torsions:
REMARK  status: ('A' for Active; 'I' for Inactive)
REMARK    1  A    between atoms: C_9  and  C_35
REMARK    2  A    between atoms: C_14  and  C_32
REMARK    3  A    between atoms: C_17  and  O_29
REMARK    4  A    between atoms: C_32  and  O_33
REMARK    5  A    between atoms: C_35  and  O_36
REMARK                            x       y       z     vdW  Elec       q    Type
REMARK                         _______ _______ _______ _____ _____    ______ ____
ROOT
ATOM      1  C   UNL     1      40.251 -22.204 168.466  0.00  0.00    +0.000 C 
ATOM      2  C   UNL     1      40.674 -20.789 169.045  0.00  0.00    +0.000 C 
ATOM      3  C   UNL     1      41.587 -20.615 170.264  0.00  0.00    +0.000 C 
ATOM      4  C   UNL     1      38.662 -22.239 168.000  0.00  0.00    +0.000 C 
ATOM      5  C   UNL     1      41.486 -21.691 171.384  0.00  0.00    +0.000 C 
ATOM      6  C   UNL     1      40.507 -23.160 169.549  0.00  0.00    +0.000 C 
ATOM      7  C   UNL     1      41.074 -22.970 170.916  0.00  0.00    +0.000 C 
ATOM      8  C   UNL     1      38.266 -20.966 167.072  0.00  0.00    +0.000 C 
ATOM      9  C   UNL     1      41.552 -21.352 172.883  0.00  0.00    +0.000 C 
ATOM     10  C   UNL     1      37.410 -21.033 165.868  0.00  0.00    +0.000 C 
ATOM     11  C   UNL     1      40.038 -19.709 168.355  0.00  0.00    +0.000 C 
ATOM     12  C   UNL     1      41.292 -19.348 170.926  0.00  0.00    +0.000 C 
ATOM     13  C   UNL     1      38.322 -23.400 167.157  0.00  0.00    +0.000 C 
ATOM     14  C   UNL     1      37.323 -22.365 164.897  0.00  0.00    +0.000 C 
ATOM     15  C   UNL     1      41.213 -22.500 167.244  0.00  0.00    +0.000 C 
ATOM     16  C   UNL     1      37.696 -23.467 165.784  0.00  0.00    +0.000 C 
ATOM     17  C   UNL     1      41.650 -19.859 173.294  0.00  0.00    +0.000 C 
ATOM     18  C   UNL     1      38.893 -19.872 167.396  0.00  0.00    +0.000 C 
ATOM     19  C   UNL     1      43.052 -20.616 169.754  0.00  0.00    +0.000 C 
ATOM     20  C   UNL     1      41.306 -18.881 172.343  0.00  0.00    +0.000 C 
ATOM     21  C   UNL     1      37.670 -22.172 169.241  0.00  0.00    +0.000 C 
ATOM     22  C   UNL     1      36.235 -20.162 165.810  0.00  0.00    +0.000 C 
ATOM     23  C   UNL     1      35.915 -22.370 164.415  0.00  0.00    +0.000 C 
ATOM     24  C   UNL     1      34.821 -20.029 165.295  0.00  0.00    +0.000 C 
ATOM     25  C   UNL     1      42.771 -22.103 173.514  0.00  0.00    +0.000 C 
ATOM     26  C   UNL     1      34.772 -21.332 164.556  0.00  0.00    +0.000 C 
ATOM     27  C   UNL     1      33.808 -19.989 166.454  0.00  0.00    +0.000 C 
ATOM     28  C   UNL     1      34.677 -18.825 164.347  0.00  0.00    +0.000 C 
ENDROOT
BRANCH  17  29
ATOM     29  O   UNL     1      42.339 -19.472 174.431  0.00  0.00    +0.000 OA
ATOM     30  H   UNL     1      41.739 -19.035 175.071  0.00  0.00    +0.000 HD
ENDBRANCH  17  29
BRANCH  14  32
ATOM     31  O   UNL     1      39.523 -22.143 163.812  0.00  0.00    +0.000 OA
ATOM     32  C   UNL     1      38.301 -22.155 163.735  0.00  0.00    +0.000 C 
BRANCH  32  33
ATOM     33  O   UNL     1      37.709 -21.896 162.548  0.00  0.00    +0.000 OA
ATOM     34  H   UNL     1      37.785 -20.924 162.431  0.00  0.00    +0.000 HD
ENDBRANCH  32  33
ENDBRANCH  14  32
BRANCH   9  35
ATOM     35  C   UNL     1      40.288 -21.847 173.514  0.00  0.00    +0.000 C 
BRANCH  35  36
ATOM     36  O   UNL     1      39.154 -22.292 174.063  0.00  0.00    +0.000 OA
ATOM     37  H   UNL     1      39.334 -22.982 174.728  0.00  0.00    +0.000 HD
ENDBRANCH  35  36
ENDBRANCH   9  35
TORSDOF 5
ENDMDL
MODEL 9
REMARK VINA RESULT:      -7.0     34.425     36.366
REMARK  Name = 73299_Hederagenin.pdbqt.pdb
REMARK  5 active torsions:
REMARK  status: ('A' for Active; 'I' for Inactive)
REMARK    1  A    between atoms: C_9  and  C_35
REMARK    2  A    between atoms: C_14  and  C_32
REMARK    3  A    between atoms: C_17  and  O_29
REMARK    4  A    between atoms: C_32  and  O_33
REMARK    5  A    between atoms: C_35  and  O_36
REMARK                            x       y       z     vdW  Elec       q    Type
REMARK                         _______ _______ _______ _____ _____    ______ ____
ROOT
ATOM      1  C   UNL     1      39.354 -24.302 175.496  0.00  0.00    +0.000 C 
ATOM      2  C   UNL     1      38.239 -24.932 174.561  0.00  0.00    +0.000 C 
ATOM      3  C   UNL     1      37.483 -26.221 174.899  0.00  0.00    +0.000 C 
ATOM      4  C   UNL     1      40.635 -23.710 174.630  0.00  0.00    +0.000 C 
ATOM      5  C   UNL     1      38.265 -27.315 175.682  0.00  0.00    +0.000 C 
ATOM      6  C   UNL     1      39.773 -25.389 176.387  0.00  0.00    +0.000 C 
ATOM      7  C   UNL     1      39.302 -26.800 176.509  0.00  0.00    +0.000 C 
ATOM      8  C   UNL     1      40.159 -22.770 173.394  0.00  0.00    +0.000 C 
ATOM      9  C   UNL     1      38.126 -28.819 175.390  0.00  0.00    +0.000 C 
ATOM     10  C   UNL     1      40.808 -21.500 173.000  0.00  0.00    +0.000 C 
ATOM     11  C   UNL     1      38.086 -24.207 173.337  0.00  0.00    +0.000 C 
ATOM     12  C   UNL     1      37.044 -26.874 173.670  0.00  0.00    +0.000 C 
ATOM     13  C   UNL     1      41.518 -22.827 175.415  0.00  0.00    +0.000 C 
ATOM     14  C   UNL     1      41.573 -20.508 174.075  0.00  0.00    +0.000 C 
ATOM     15  C   UNL     1      38.651 -23.157 176.334  0.00  0.00    +0.000 C 
ATOM     16  C   UNL     1      41.967 -21.407 175.159  0.00  0.00    +0.000 C 
ATOM     17  C   UNL     1      37.218 -29.256 174.209  0.00  0.00    +0.000 C 
ATOM     18  C   UNL     1      39.043 -23.157 172.847  0.00  0.00    +0.000 C 
ATOM     19  C   UNL     1      36.252 -25.831 175.758  0.00  0.00    +0.000 C 
ATOM     20  C   UNL     1      36.867 -28.294 173.246  0.00  0.00    +0.000 C 
ATOM     21  C   UNL     1      41.496 -24.868 173.962  0.00  0.00    +0.000 C 
ATOM     22  C   UNL     1      41.260 -21.360 171.616  0.00  0.00    +0.000 C 
ATOM     23  C   UNL     1      42.687 -19.915 173.288  0.00  0.00    +0.000 C 
ATOM     24  C   UNL     1      42.299 -20.734 170.714  0.00  0.00    +0.000 C 
ATOM     25  C   UNL     1      37.611 -29.536 176.681  0.00  0.00    +0.000 C 
ATOM     26  C   UNL     1      43.034 -19.978 171.778  0.00  0.00    +0.000 C 
ATOM     27  C   UNL     1      43.186 -21.809 170.059  0.00  0.00    +0.000 C 
ATOM     28  C   UNL     1      41.655 -19.794 169.680  0.00  0.00    +0.000 C 
ENDROOT
BRANCH  17  29
ATOM     29  O   UNL     1      36.517 -30.450 174.248  0.00  0.00    +0.000 OA
ATOM     30  H   UNL     1      36.836 -31.064 173.554  0.00  0.00    +0.000 HD
ENDBRANCH  17  29
BRANCH  14  32
ATOM     31  O   UNL     1      39.577 -19.604 175.200  0.00  0.00    +0.000 OA
ATOM     32  C   UNL     1      40.570 -19.431 174.505  0.00  0.00    +0.000 C 
BRANCH  32  33
ATOM     33  O   UNL     1      40.811 -18.206 173.989  0.00  0.00    +0.000 OA
ATOM     34  H   UNL     1      40.975 -17.629 174.765  0.00  0.00    +0.000 HD
ENDBRANCH  32  33
ENDBRANCH  14  32
BRANCH   9  35
ATOM     35  C   UNL     1      39.487 -29.340 175.047  0.00  0.00    +0.000 C 
BRANCH  35  36
ATOM     36  O   UNL     1      40.706 -29.791 174.737  0.00  0.00    +0.000 OA
ATOM     37  H   UNL     1      40.933 -30.579 175.265  0.00  0.00    +0.000 HD
ENDBRANCH  35  36
ENDBRANCH   9  35
TORSDOF 5
ENDMDL
