MODEL 1
REMARK VINA RESULT:     -10.5      0.000      0.000
REMARK  Name = 73659_MaslinicAcid.pdbqt.pdb
REMARK  4 active torsions:
REMARK  status: ('A' for Active; 'I' for Inactive)
REMARK    1  A    between atoms: C_14  and  C_35
REMARK    2  A    between atoms: C_17  and  O_30
REMARK    3  A    between atoms: C_19  and  O_32
REMARK    4  A    between atoms: C_35  and  O_36
REMARK                            x       y       z     vdW  Elec       q    Type
REMARK                         _______ _______ _______ _____ _____    ______ ____
ROOT
ATOM      1  C   UNL     1      20.334   1.118 192.240  0.00  0.00    +0.000 C 
ATOM      2  C   UNL     1      21.573   0.132 192.368  0.00  0.00    +0.000 C 
ATOM      3  C   UNL     1      21.835  -0.738 193.600  0.00  0.00    +0.000 C 
ATOM      4  C   UNL     1      20.743   2.548 191.514  0.00  0.00    +0.000 C 
ATOM      5  C   UNL     1      21.403  -0.180 194.961  0.00  0.00    +0.000 C 
ATOM      6  C   UNL     1      19.868   1.329 193.615  0.00  0.00    +0.000 C 
ATOM      7  C   UNL     1      20.331   0.751 194.911  0.00  0.00    +0.000 C 
ATOM      8  C   UNL     1      21.585   2.320 190.144  0.00  0.00    +0.000 C 
ATOM      9  C   UNL     1      22.203  -0.516 196.210  0.00  0.00    +0.000 C 
ATOM     10  C   UNL     1      21.375   3.070 188.886  0.00  0.00    +0.000 C 
ATOM     11  C   UNL     1      22.448   0.215 191.239  0.00  0.00    +0.000 C 
ATOM     12  C   UNL     1      23.263  -0.965 193.752  0.00  0.00    +0.000 C 
ATOM     13  C   UNL     1      19.578   3.338 191.077  0.00  0.00    +0.000 C 
ATOM     14  C   UNL     1      19.911   3.692 188.443  0.00  0.00    +0.000 C 
ATOM     15  C   UNL     1      19.228   0.346 191.412  0.00  0.00    +0.000 C 
ATOM     16  C   UNL     1      19.212   3.880 189.714  0.00  0.00    +0.000 C 
ATOM     17  C   UNL     1      23.648  -1.054 196.046  0.00  0.00    +0.000 C 
ATOM     18  C   UNL     1      21.099  -2.082 193.388  0.00  0.00    +0.000 C 
ATOM     19  C   UNL     1      24.222  -1.133 194.745  0.00  0.00    +0.000 C 
ATOM     20  C   UNL     1      22.380   1.288 190.190  0.00  0.00    +0.000 C 
ATOM     21  C   UNL     1      21.681   3.439 192.436  0.00  0.00    +0.000 C 
ATOM     22  C   UNL     1      22.526   3.736 188.281  0.00  0.00    +0.000 C 
ATOM     23  C   UNL     1      20.257   4.934 187.702  0.00  0.00    +0.000 C 
ATOM     24  C   UNL     1      22.975   4.923 187.458  0.00  0.00    +0.000 C 
ATOM     25  C   UNL     1      22.376   0.793 197.058  0.00  0.00    +0.000 C 
ATOM     26  C   UNL     1      21.416  -1.553 197.062  0.00  0.00    +0.000 C 
ATOM     27  C   UNL     1      21.616   5.509 187.225  0.00  0.00    +0.000 C 
ATOM     28  C   UNL     1      23.642   4.478 186.144  0.00  0.00    +0.000 C 
ATOM     29  C   UNL     1      23.871   5.865 188.283  0.00  0.00    +0.000 C 
ENDROOT
BRANCH  17  30
ATOM     30  O   UNL     1      24.432  -1.497 197.108  0.00  0.00    +0.000 OA
ATOM     31  H   UNL     1      24.382  -0.878 197.866  0.00  0.00    +0.000 HD
ENDBRANCH  17  30
BRANCH  19  32
ATOM     32  O   UNL     1      25.410  -1.769 194.545  0.00  0.00    +0.000 OA
ATOM     33  H   UNL     1      26.053  -1.541 195.244  0.00  0.00    +0.000 HD
ENDBRANCH  19  32
BRANCH  14  35
ATOM     34  O   UNL     1      19.720   2.165 186.518  0.00  0.00    +0.000 OA
ATOM     35  C   UNL     1      19.233   2.671 187.520  0.00  0.00    +0.000 C 
BRANCH  35  36
ATOM     36  O   UNL     1      17.954   2.387 187.852  0.00  0.00    +0.000 OA
ATOM     37  H   UNL     1      17.988   1.490 188.252  0.00  0.00    +0.000 HD
ENDBRANCH  35  36
ENDBRANCH  14  35
TORSDOF 4
ENDMDL
MODEL 2
REMARK VINA RESULT:      -9.8      3.271      4.479
REMARK  Name = 73659_MaslinicAcid.pdbqt.pdb
REMARK  4 active torsions:
REMARK  status: ('A' for Active; 'I' for Inactive)
REMARK    1  A    between atoms: C_14  and  C_35
REMARK    2  A    between atoms: C_17  and  O_30
REMARK    3  A    between atoms: C_19  and  O_32
REMARK    4  A    between atoms: C_35  and  O_36
REMARK                            x       y       z     vdW  Elec       q    Type
REMARK                         _______ _______ _______ _____ _____    ______ ____
ROOT
ATOM      1  C   UNL     1      23.639   1.110 192.256  0.00  0.00    +0.000 C 
ATOM      2  C   UNL     1      24.753   0.426 191.353  0.00  0.00    +0.000 C 
ATOM      3  C   UNL     1      26.112  -0.032 191.892  0.00  0.00    +0.000 C 
ATOM      4  C   UNL     1      22.872   2.350 191.473  0.00  0.00    +0.000 C 
ATOM      5  C   UNL     1      26.723   0.777 193.041  0.00  0.00    +0.000 C 
ATOM      6  C   UNL     1      24.352   1.589 193.447  0.00  0.00    +0.000 C 
ATOM      7  C   UNL     1      25.782   1.460 193.857  0.00  0.00    +0.000 C 
ATOM      8  C   UNL     1      22.384   1.923 189.983  0.00  0.00    +0.000 C 
ATOM      9  C   UNL     1      28.233   0.925 193.149  0.00  0.00    +0.000 C 
ATOM     10  C   UNL     1      21.073   2.270 189.391  0.00  0.00    +0.000 C 
ATOM     11  C   UNL     1      24.369   0.363 189.977  0.00  0.00    +0.000 C 
ATOM     12  C   UNL     1      27.112   0.043 190.840  0.00  0.00    +0.000 C 
ATOM     13  C   UNL     1      21.628   2.781 192.135  0.00  0.00    +0.000 C 
ATOM     14  C   UNL     1      19.707   2.487 190.292  0.00  0.00    +0.000 C 
ATOM     15  C   UNL     1      22.623  -0.033 192.663  0.00  0.00    +0.000 C 
ATOM     16  C   UNL     1      20.214   2.875 191.608  0.00  0.00    +0.000 C 
ATOM     17  C   UNL     1      29.100   0.626 191.899  0.00  0.00    +0.000 C 
ATOM     18  C   UNL     1      25.953  -1.492 192.377  0.00  0.00    +0.000 C 
ATOM     19  C   UNL     1      28.465   0.311 190.664  0.00  0.00    +0.000 C 
ATOM     20  C   UNL     1      23.196   1.095 189.389  0.00  0.00    +0.000 C 
ATOM     21  C   UNL     1      23.827   3.601 191.256  0.00  0.00    +0.000 C 
ATOM     22  C   UNL     1      21.061   2.946 188.095  0.00  0.00    +0.000 C 
ATOM     23  C   UNL     1      18.951   3.534 189.553  0.00  0.00    +0.000 C 
ATOM     24  C   UNL     1      20.318   3.936 187.226  0.00  0.00    +0.000 C 
ATOM     25  C   UNL     1      28.563   2.420 193.495  0.00  0.00    +0.000 C 
ATOM     26  C   UNL     1      28.757   0.026 194.305  0.00  0.00    +0.000 C 
ATOM     27  C   UNL     1      19.183   4.193 188.169  0.00  0.00    +0.000 C 
ATOM     28  C   UNL     1      19.841   3.288 185.914  0.00  0.00    +0.000 C 
ATOM     29  C   UNL     1      21.159   5.203 186.984  0.00  0.00    +0.000 C 
ENDROOT
BRANCH  17  30
ATOM     30  O   UNL     1      30.493   0.620 191.910  0.00  0.00    +0.000 OA
ATOM     31  H   UNL     1      30.854   0.935 191.055  0.00  0.00    +0.000 HD
ENDBRANCH  17  30
BRANCH  19  32
ATOM     32  O   UNL     1      29.190  -0.136 189.601  0.00  0.00    +0.000 OA
ATOM     33  H   UNL     1      29.295   0.564 188.928  0.00  0.00    +0.000 HD
ENDBRANCH  19  32
BRANCH  14  35
ATOM     34  O   UNL     1      17.923   0.904 189.672  0.00  0.00    +0.000 OA
ATOM     35  C   UNL     1      18.941   1.159 190.302  0.00  0.00    +0.000 C 
BRANCH  35  36
ATOM     36  O   UNL     1      19.442   0.236 191.154  0.00  0.00    +0.000 OA
ATOM     37  H   UNL     1      19.367   0.644 192.044  0.00  0.00    +0.000 HD
ENDBRANCH  35  36
ENDBRANCH  14  35
TORSDOF 4
ENDMDL
MODEL 3
REMARK VINA RESULT:      -9.4      2.487      8.116
REMARK  Name = 73659_MaslinicAcid.pdbqt.pdb
REMARK  4 active torsions:
REMARK  status: ('A' for Active; 'I' for Inactive)
REMARK    1  A    between atoms: C_14  and  C_35
REMARK    2  A    between atoms: C_17  and  O_30
REMARK    3  A    between atoms: C_19  and  O_32
REMARK    4  A    between atoms: C_35  and  O_36
REMARK                            x       y       z     vdW  Elec       q    Type
REMARK                         _______ _______ _______ _____ _____    ______ ____
ROOT
ATOM      1  C   UNL     1      20.012   1.512 190.701  0.00  0.00    +0.000 C 
ATOM      2  C   UNL     1      20.575   2.992 190.572  0.00  0.00    +0.000 C 
ATOM      3  C   UNL     1      20.644   3.755 189.246  0.00  0.00    +0.000 C 
ATOM      4  C   UNL     1      20.902   0.593 191.751  0.00  0.00    +0.000 C 
ATOM      5  C   UNL     1      20.887   2.936 187.973  0.00  0.00    +0.000 C 
ATOM      6  C   UNL     1      20.056   0.965 189.341  0.00  0.00    +0.000 C 
ATOM      7  C   UNL     1      20.453   1.585 188.042  0.00  0.00    +0.000 C 
ATOM      8  C   UNL     1      21.164   1.355 193.161  0.00  0.00    +0.000 C 
ATOM      9  C   UNL     1      21.676   3.537 186.820  0.00  0.00    +0.000 C 
ATOM     10  C   UNL     1      21.071   0.722 194.495  0.00  0.00    +0.000 C 
ATOM     11  C   UNL     1      21.077   3.490 191.815  0.00  0.00    +0.000 C 
ATOM     12  C   UNL     1      21.752   4.696 189.273  0.00  0.00    +0.000 C 
ATOM     13  C   UNL     1      20.229  -0.656 192.152  0.00  0.00    +0.000 C 
ATOM     14  C   UNL     1      20.065  -0.544 194.823  0.00  0.00    +0.000 C 
ATOM     15  C   UNL     1      18.509   1.642 191.179  0.00  0.00    +0.000 C 
ATOM     16  C   UNL     1      19.878  -1.187 193.523  0.00  0.00    +0.000 C 
ATOM     17  C   UNL     1      22.566   4.776 187.095  0.00  0.00    +0.000 C 
ATOM     18  C   UNL     1      19.304   4.510 189.071  0.00  0.00    +0.000 C 
ATOM     19  C   UNL     1      22.698   5.264 188.426  0.00  0.00    +0.000 C 
ATOM     20  C   UNL     1      21.315   2.644 193.033  0.00  0.00    +0.000 C 
ATOM     21  C   UNL     1      22.348   0.265 191.179  0.00  0.00    +0.000 C 
ATOM     22  C   UNL     1      22.222   0.832 195.390  0.00  0.00    +0.000 C 
ATOM     23  C   UNL     1      20.804  -1.338 195.840  0.00  0.00    +0.000 C 
ATOM     24  C   UNL     1      22.999   0.146 196.492  0.00  0.00    +0.000 C 
ATOM     25  C   UNL     1      22.679   2.455 186.287  0.00  0.00    +0.000 C 
ATOM     26  C   UNL     1      20.700   3.912 185.669  0.00  0.00    +0.000 C 
ATOM     27  C   UNL     1      22.111  -1.053 196.625  0.00  0.00    +0.000 C 
ATOM     28  C   UNL     1      23.020   0.992 197.778  0.00  0.00    +0.000 C 
ATOM     29  C   UNL     1      24.413  -0.239 196.018  0.00  0.00    +0.000 C 
ENDROOT
BRANCH  17  30
ATOM     30  O   UNL     1      23.245   5.474 186.099  0.00  0.00    +0.000 OA
ATOM     31  H   UNL     1      24.212   5.461 186.255  0.00  0.00    +0.000 HD
ENDBRANCH  17  30
BRANCH  19  32
ATOM     32  O   UNL     1      23.317   6.451 188.676  0.00  0.00    +0.000 OA
ATOM     33  H   UNL     1      22.665   7.155 188.859  0.00  0.00    +0.000 HD
ENDBRANCH  19  32
BRANCH  14  35
ATOM     34  O   UNL     1      18.683   0.967 196.194  0.00  0.00    +0.000 OA
ATOM     35  C   UNL     1      18.770   0.032 195.409  0.00  0.00    +0.000 C 
BRANCH  35  36
ATOM     36  O   UNL     1      17.651  -0.633 195.043  0.00  0.00    +0.000 OA
ATOM     37  H   UNL     1      17.094  -0.658 195.852  0.00  0.00    +0.000 HD
ENDBRANCH  35  36
ENDBRANCH  14  35
TORSDOF 4
ENDMDL
MODEL 4
REMARK VINA RESULT:      -9.2      3.318      5.099
REMARK  Name = 73659_MaslinicAcid.pdbqt.pdb
REMARK  4 active torsions:
REMARK  status: ('A' for Active; 'I' for Inactive)
REMARK    1  A    between atoms: C_14  and  C_35
REMARK    2  A    between atoms: C_17  and  O_30
REMARK    3  A    between atoms: C_19  and  O_32
REMARK    4  A    between atoms: C_35  and  O_36
REMARK                            x       y       z     vdW  Elec       q    Type
REMARK                         _______ _______ _______ _____ _____    ______ ____
ROOT
ATOM      1  C   UNL     1      25.878   1.857 190.316  0.00  0.00    +0.000 C 
ATOM      2  C   UNL     1      25.779   2.310 191.836  0.00  0.00    +0.000 C 
ATOM      3  C   UNL     1      26.606   1.679 192.960  0.00  0.00    +0.000 C 
ATOM      4  C   UNL     1      24.399   1.820 189.576  0.00  0.00    +0.000 C 
ATOM      5  C   UNL     1      26.958   0.193 192.827  0.00  0.00    +0.000 C 
ATOM      6  C   UNL     1      26.492   0.525 190.353  0.00  0.00    +0.000 C 
ATOM      7  C   UNL     1      27.010  -0.290 191.492  0.00  0.00    +0.000 C 
ATOM      8  C   UNL     1      23.550   3.181 189.835  0.00  0.00    +0.000 C 
ATOM      9  C   UNL     1      27.074  -0.676 194.070  0.00  0.00    +0.000 C 
ATOM     10  C   UNL     1      22.764   3.896 188.805  0.00  0.00    +0.000 C 
ATOM     11  C   UNL     1      24.778   3.313 192.037  0.00  0.00    +0.000 C 
ATOM     12  C   UNL     1      25.875   1.755 194.215  0.00  0.00    +0.000 C 
ATOM     13  C   UNL     1      24.480   1.736 188.106  0.00  0.00    +0.000 C 
ATOM     14  C   UNL     1      23.153   3.880 187.201  0.00  0.00    +0.000 C 
ATOM     15  C   UNL     1      26.855   2.879 189.604  0.00  0.00    +0.000 C 
ATOM     16  C   UNL     1      23.902   2.634 187.036  0.00  0.00    +0.000 C 
ATOM     17  C   UNL     1      26.439  -0.172 195.391  0.00  0.00    +0.000 C 
ATOM     18  C   UNL     1      27.932   2.469 193.064  0.00  0.00    +0.000 C 
ATOM     19  C   UNL     1      25.688   1.038 195.392  0.00  0.00    +0.000 C 
ATOM     20  C   UNL     1      23.747   3.698 191.015  0.00  0.00    +0.000 C 
ATOM     21  C   UNL     1      23.482   0.647 190.131  0.00  0.00    +0.000 C 
ATOM     22  C   UNL     1      21.357   4.177 189.086  0.00  0.00    +0.000 C 
ATOM     23  C   UNL     1      21.837   3.942 186.511  0.00  0.00    +0.000 C 
ATOM     24  C   UNL     1      19.985   4.345 188.473  0.00  0.00    +0.000 C 
ATOM     25  C   UNL     1      26.350  -2.040 193.792  0.00  0.00    +0.000 C 
ATOM     26  C   UNL     1      28.575  -0.966 194.356  0.00  0.00    +0.000 C 
ATOM     27  C   UNL     1      20.399   4.170 187.044  0.00  0.00    +0.000 C 
ATOM     28  C   UNL     1      19.418   5.752 188.739  0.00  0.00    +0.000 C 
ATOM     29  C   UNL     1      19.029   3.229 188.933  0.00  0.00    +0.000 C 
ENDROOT
BRANCH  17  30
ATOM     30  O   UNL     1      26.577  -0.828 196.612  0.00  0.00    +0.000 OA
ATOM     31  H   UNL     1      25.718  -0.886 197.080  0.00  0.00    +0.000 HD
ENDBRANCH  17  30
BRANCH  19  32
ATOM     32  O   UNL     1      25.277   1.603 196.561  0.00  0.00    +0.000 OA
ATOM     33  H   UNL     1      24.335   1.406 196.733  0.00  0.00    +0.000 HD
ENDBRANCH  19  32
BRANCH  14  35
ATOM     34  O   UNL     1      24.444   5.907 187.744  0.00  0.00    +0.000 OA
ATOM     35  C   UNL     1      23.987   5.134 186.913  0.00  0.00    +0.000 C 
BRANCH  35  36
ATOM     36  O   UNL     1      24.148   5.403 185.598  0.00  0.00    +0.000 OA
ATOM     37  H   UNL     1      25.120   5.411 185.457  0.00  0.00    +0.000 HD
ENDBRANCH  35  36
ENDBRANCH  14  35
TORSDOF 4
ENDMDL
MODEL 5
REMARK VINA RESULT:      -8.9      1.729      8.516
REMARK  Name = 73659_MaslinicAcid.pdbqt.pdb
REMARK  4 active torsions:
REMARK  status: ('A' for Active; 'I' for Inactive)
REMARK    1  A    between atoms: C_14  and  C_35
REMARK    2  A    between atoms: C_17  and  O_30
REMARK    3  A    between atoms: C_19  and  O_32
REMARK    4  A    between atoms: C_35  and  O_36
REMARK                            x       y       z     vdW  Elec       q    Type
REMARK                         _______ _______ _______ _____ _____    ______ ____
ROOT
ATOM      1  C   UNL     1      24.137   2.090 191.198  0.00  0.00    +0.000 C 
ATOM      2  C   UNL     1      23.187   1.533 190.054  0.00  0.00    +0.000 C 
ATOM      3  C   UNL     1      23.149   2.106 188.634  0.00  0.00    +0.000 C 
ATOM      4  C   UNL     1      23.382   2.140 192.670  0.00  0.00    +0.000 C 
ATOM      5  C   UNL     1      23.420   3.607 188.474  0.00  0.00    +0.000 C 
ATOM      6  C   UNL     1      24.528   3.432 190.752  0.00  0.00    +0.000 C 
ATOM      7  C   UNL     1      24.221   4.181 189.497  0.00  0.00    +0.000 C 
ATOM      8  C   UNL     1      22.630   0.743 193.020  0.00  0.00    +0.000 C 
ATOM      9  C   UNL     1      22.725   4.392 187.371  0.00  0.00    +0.000 C 
ATOM     10  C   UNL     1      22.650   0.079 194.342  0.00  0.00    +0.000 C 
ATOM     11  C   UNL     1      22.325   0.493 190.526  0.00  0.00    +0.000 C 
ATOM     12  C   UNL     1      21.825   1.926 188.063  0.00  0.00    +0.000 C 
ATOM     13  C   UNL     1      24.311   2.326 193.800  0.00  0.00    +0.000 C 
ATOM     14  C   UNL     1      23.910   0.216 195.400  0.00  0.00    +0.000 C 
ATOM     15  C   UNL     1      25.406   1.145 191.232  0.00  0.00    +0.000 C 
ATOM     16  C   UNL     1      24.533   1.489 195.039  0.00  0.00    +0.000 C 
ATOM     17  C   UNL     1      21.465   3.783 186.706  0.00  0.00    +0.000 C 
ATOM     18  C   UNL     1      24.203   1.346 187.795  0.00  0.00    +0.000 C 
ATOM     19  C   UNL     1      20.935   2.556 187.199  0.00  0.00    +0.000 C 
ATOM     20  C   UNL     1      22.123   0.152 191.975  0.00  0.00    +0.000 C 
ATOM     21  C   UNL     1      22.244   3.248 192.721  0.00  0.00    +0.000 C 
ATOM     22  C   UNL     1      21.369  -0.256 194.962  0.00  0.00    +0.000 C 
ATOM     23  C   UNL     1      23.263   0.166 196.738  0.00  0.00    +0.000 C 
ATOM     24  C   UNL     1      20.638  -0.418 196.276  0.00  0.00    +0.000 C 
ATOM     25  C   UNL     1      22.223   5.752 187.970  0.00  0.00    +0.000 C 
ATOM     26  C   UNL     1      23.746   4.700 186.239  0.00  0.00    +0.000 C 
ATOM     27  C   UNL     1      21.805  -0.135 197.172  0.00  0.00    +0.000 C 
ATOM     28  C   UNL     1      20.111  -1.853 196.455  0.00  0.00    +0.000 C 
ATOM     29  C   UNL     1      19.529   0.639 196.429  0.00  0.00    +0.000 C 
ENDROOT
BRANCH  17  30
ATOM     30  O   UNL     1      20.814   4.357 185.616  0.00  0.00    +0.000 OA
ATOM     31  H   UNL     1      20.142   5.007 185.909  0.00  0.00    +0.000 HD
ENDBRANCH  17  30
BRANCH  19  32
ATOM     32  O   UNL     1      19.948   1.902 186.526  0.00  0.00    +0.000 OA
ATOM     33  H   UNL     1      20.177   0.962 186.393  0.00  0.00    +0.000 HD
ENDBRANCH  19  32
BRANCH  14  35
ATOM     34  O   UNL     1      25.898  -0.995 194.594  0.00  0.00    +0.000 OA
ATOM     35  C   UNL     1      24.828  -0.994 195.186  0.00  0.00    +0.000 C 
BRANCH  35  36
ATOM     36  O   UNL     1      24.330  -2.159 195.659  0.00  0.00    +0.000 OA
ATOM     37  H   UNL     1      23.794  -2.525 194.921  0.00  0.00    +0.000 HD
ENDBRANCH  35  36
ENDBRANCH  14  35
TORSDOF 4
ENDMDL
MODEL 6
REMARK VINA RESULT:      -8.6      3.722      5.066
REMARK  Name = 73659_MaslinicAcid.pdbqt.pdb
REMARK  4 active torsions:
REMARK  status: ('A' for Active; 'I' for Inactive)
REMARK    1  A    between atoms: C_14  and  C_35
REMARK    2  A    between atoms: C_17  and  O_30
REMARK    3  A    between atoms: C_19  and  O_32
REMARK    4  A    between atoms: C_35  and  O_36
REMARK                            x       y       z     vdW  Elec       q    Type
REMARK                         _______ _______ _______ _____ _____    ______ ____
ROOT
ATOM      1  C   UNL     1      22.416   1.489 192.178  0.00  0.00    +0.000 C 
ATOM      2  C   UNL     1      22.149  -0.041 192.516  0.00  0.00    +0.000 C 
ATOM      3  C   UNL     1      20.918  -0.532 193.285  0.00  0.00    +0.000 C 
ATOM      4  C   UNL     1      24.010   1.898 192.348  0.00  0.00    +0.000 C 
ATOM      5  C   UNL     1      20.335   0.401 194.352  0.00  0.00    +0.000 C 
ATOM      6  C   UNL     1      21.567   2.240 193.110  0.00  0.00    +0.000 C 
ATOM      7  C   UNL     1      20.586   1.783 194.137  0.00  0.00    +0.000 C 
ATOM      8  C   UNL     1      24.995   0.846 191.599  0.00  0.00    +0.000 C 
ATOM      9  C   UNL     1      19.688  -0.180 195.600  0.00  0.00    +0.000 C 
ATOM     10  C   UNL     1      26.176   1.221 190.790  0.00  0.00    +0.000 C 
ATOM     11  C   UNL     1      23.223  -0.884 192.089  0.00  0.00    +0.000 C 
ATOM     12  C   UNL     1      21.246  -1.744 194.020  0.00  0.00    +0.000 C 
ATOM     13  C   UNL     1      24.352   3.193 191.730  0.00  0.00    +0.000 C 
ATOM     14  C   UNL     1      26.283   2.642 189.958  0.00  0.00    +0.000 C 
ATOM     15  C   UNL     1      21.915   1.716 190.694  0.00  0.00    +0.000 C 
ATOM     16  C   UNL     1      25.386   3.540 190.684  0.00  0.00    +0.000 C 
ATOM     17  C   UNL     1      19.989  -1.653 195.977  0.00  0.00    +0.000 C 
ATOM     18  C   UNL     1      19.804  -0.818 192.250  0.00  0.00    +0.000 C 
ATOM     19  C   UNL     1      20.930  -2.396 195.207  0.00  0.00    +0.000 C 
ATOM     20  C   UNL     1      24.564  -0.384 191.636  0.00  0.00    +0.000 C 
ATOM     21  C   UNL     1      24.471   1.890 193.869  0.00  0.00    +0.000 C 
ATOM     22  C   UNL     1      27.463   0.618 191.131  0.00  0.00    +0.000 C 
ATOM     23  C   UNL     1      27.730   2.984 190.014  0.00  0.00    +0.000 C 
ATOM     24  C   UNL     1      28.960   0.831 191.152  0.00  0.00    +0.000 C 
ATOM     25  C   UNL     1      20.177   0.642 196.843  0.00  0.00    +0.000 C 
ATOM     26  C   UNL     1      18.143  -0.035 195.492  0.00  0.00    +0.000 C 
ATOM     27  C   UNL     1      28.961   2.191 190.523  0.00  0.00    +0.000 C 
ATOM     28  C   UNL     1      29.690  -0.206 190.280  0.00  0.00    +0.000 C 
ATOM     29  C   UNL     1      29.497   0.868 192.595  0.00  0.00    +0.000 C 
ENDROOT
BRANCH  17  30
ATOM     30  O   UNL     1      19.370  -2.323 197.029  0.00  0.00    +0.000 OA
ATOM     31  H   UNL     1      19.120  -1.702 197.745  0.00  0.00    +0.000 HD
ENDBRANCH  17  30
BRANCH  19  32
ATOM     32  O   UNL     1      21.081  -3.736 195.393  0.00  0.00    +0.000 OA
ATOM     33  H   UNL     1      20.681  -4.240 194.658  0.00  0.00    +0.000 HD
ENDBRANCH  19  32
BRANCH  14  35
ATOM     34  O   UNL     1      24.937   2.943 187.916  0.00  0.00    +0.000 OA
ATOM     35  C   UNL     1      25.837   2.370 188.516  0.00  0.00    +0.000 C 
BRANCH  35  36
ATOM     36  O   UNL     1      26.487   1.347 187.918  0.00  0.00    +0.000 OA
ATOM     37  H   UNL     1      25.801   0.887 187.384  0.00  0.00    +0.000 HD
ENDBRANCH  35  36
ENDBRANCH  14  35
TORSDOF 4
ENDMDL
MODEL 7
REMARK VINA RESULT:      -8.5     32.690     35.563
REMARK  Name = 73659_MaslinicAcid.pdbqt.pdb
REMARK  4 active torsions:
REMARK  status: ('A' for Active; 'I' for Inactive)
REMARK    1  A    between atoms: C_14  and  C_35
REMARK    2  A    between atoms: C_17  and  O_30
REMARK    3  A    between atoms: C_19  and  O_32
REMARK    4  A    between atoms: C_35  and  O_36
REMARK                            x       y       z     vdW  Elec       q    Type
REMARK                         _______ _______ _______ _____ _____    ______ ____
ROOT
ATOM      1  C   UNL     1      44.364  -5.664 164.965  0.00  0.00    +0.000 C 
ATOM      2  C   UNL     1      42.989  -5.632 165.761  0.00  0.00    +0.000 C 
ATOM      3  C   UNL     1      42.019  -6.816 165.816  0.00  0.00    +0.000 C 
ATOM      4  C   UNL     1      44.671  -4.234 164.190  0.00  0.00    +0.000 C 
ATOM      5  C   UNL     1      41.947  -7.725 164.584  0.00  0.00    +0.000 C 
ATOM      6  C   UNL     1      44.229  -6.771 164.013  0.00  0.00    +0.000 C 
ATOM      7  C   UNL     1      43.128  -7.757 163.796  0.00  0.00    +0.000 C 
ATOM      8  C   UNL     1      44.471  -2.953 165.168  0.00  0.00    +0.000 C 
ATOM      9  C   UNL     1      40.632  -8.389 164.204  0.00  0.00    +0.000 C 
ATOM     10  C   UNL     1      45.379  -1.786 165.229  0.00  0.00    +0.000 C 
ATOM     11  C   UNL     1      42.734  -4.353 166.349  0.00  0.00    +0.000 C 
ATOM     12  C   UNL     1      40.657  -6.332 165.975  0.00  0.00    +0.000 C 
ATOM     13  C   UNL     1      46.066  -4.105 163.729  0.00  0.00    +0.000 C 
ATOM     14  C   UNL     1      46.994  -1.882 164.901  0.00  0.00    +0.000 C 
ATOM     15  C   UNL     1      45.491  -6.001 166.024  0.00  0.00    +0.000 C 
ATOM     16  C   UNL     1      47.102  -3.043 164.017  0.00  0.00    +0.000 C 
ATOM     17  C   UNL     1      39.316  -7.826 164.797  0.00  0.00    +0.000 C 
ATOM     18  C   UNL     1      42.420  -7.693 167.025  0.00  0.00    +0.000 C 
ATOM     19  C   UNL     1      39.355  -6.652 165.603  0.00  0.00    +0.000 C 
ATOM     20  C   UNL     1      43.508  -3.105 166.032  0.00  0.00    +0.000 C 
ATOM     21  C   UNL     1      43.678  -3.989 162.974  0.00  0.00    +0.000 C 
ATOM     22  C   UNL     1      44.802  -0.455 165.051  0.00  0.00    +0.000 C 
ATOM     23  C   UNL     1      47.316  -0.566 164.288  0.00  0.00    +0.000 C 
ATOM     24  C   UNL     1      45.057   0.943 164.534  0.00  0.00    +0.000 C 
ATOM     25  C   UNL     1      40.440  -8.261 162.653  0.00  0.00    +0.000 C 
ATOM     26  C   UNL     1      40.696  -9.901 164.568  0.00  0.00    +0.000 C 
ATOM     27  C   UNL     1      46.482   0.730 164.123  0.00  0.00    +0.000 C 
ATOM     28  C   UNL     1      44.932   1.991 165.655  0.00  0.00    +0.000 C 
ATOM     29  C   UNL     1      44.155   1.263 163.327  0.00  0.00    +0.000 C 
ENDROOT
BRANCH  17  30
ATOM     30  O   UNL     1      38.069  -8.417 164.609  0.00  0.00    +0.000 OA
ATOM     31  H   UNL     1      38.113  -9.386 164.748  0.00  0.00    +0.000 HD
ENDBRANCH  17  30
BRANCH  19  32
ATOM     32  O   UNL     1      38.253  -6.238 166.287  0.00  0.00    +0.000 OA
ATOM     33  H   UNL     1      37.441  -6.379 165.763  0.00  0.00    +0.000 HD
ENDBRANCH  19  32
BRANCH  14  35
ATOM     34  O   UNL     1      48.133  -1.170 166.967  0.00  0.00    +0.000 OA
ATOM     35  C   UNL     1      47.728  -2.064 166.235  0.00  0.00    +0.000 C 
BRANCH  35  36
ATOM     36  O   UNL     1      47.988  -3.351 166.555  0.00  0.00    +0.000 OA
ATOM     37  H   UNL     1      47.106  -3.778 166.628  0.00  0.00    +0.000 HD
ENDBRANCH  35  36
ENDBRANCH  14  35
TORSDOF 4
ENDMDL
MODEL 8
REMARK VINA RESULT:      -8.5      2.584      4.433
REMARK  Name = 73659_MaslinicAcid.pdbqt.pdb
REMARK  4 active torsions:
REMARK  status: ('A' for Active; 'I' for Inactive)
REMARK    1  A    between atoms: C_14  and  C_35
REMARK    2  A    between atoms: C_17  and  O_30
REMARK    3  A    between atoms: C_19  and  O_32
REMARK    4  A    between atoms: C_35  and  O_36
REMARK                            x       y       z     vdW  Elec       q    Type
REMARK                         _______ _______ _______ _____ _____    ______ ____
ROOT
ATOM      1  C   UNL     1      24.955   0.768 191.567  0.00  0.00    +0.000 C 
ATOM      2  C   UNL     1      24.815   1.621 192.899  0.00  0.00    +0.000 C 
ATOM      3  C   UNL     1      25.505   1.251 194.215  0.00  0.00    +0.000 C 
ATOM      4  C   UNL     1      23.525   0.657 190.741  0.00  0.00    +0.000 C 
ATOM      5  C   UNL     1      25.708  -0.240 194.509  0.00  0.00    +0.000 C 
ATOM      6  C   UNL     1      25.424  -0.552 192.005  0.00  0.00    +0.000 C 
ATOM      7  C   UNL     1      25.787  -1.069 193.358  0.00  0.00    +0.000 C 
ATOM      8  C   UNL     1      22.810   2.104 190.559  0.00  0.00    +0.000 C 
ATOM      9  C   UNL     1      25.660  -0.747 195.942  0.00  0.00    +0.000 C 
ATOM     10  C   UNL     1      22.163   2.578 189.316  0.00  0.00    +0.000 C 
ATOM     11  C   UNL     1      23.914   2.722 192.744  0.00  0.00    +0.000 C 
ATOM     12  C   UNL     1      24.714   1.724 195.340  0.00  0.00    +0.000 C 
ATOM     13  C   UNL     1      23.683   0.172 189.358  0.00  0.00    +0.000 C 
ATOM     14  C   UNL     1      22.641   2.095 187.811  0.00  0.00    +0.000 C 
ATOM     15  C   UNL     1      26.072   1.472 190.695  0.00  0.00    +0.000 C 
ATOM     16  C   UNL     1      23.264   0.792 188.044  0.00  0.00    +0.000 C 
ATOM     17  C   UNL     1      25.006   0.147 197.026  0.00  0.00    +0.000 C 
ATOM     18  C   UNL     1      26.898   1.924 194.218  0.00  0.00    +0.000 C 
ATOM     19  C   UNL     1      24.386   1.371 196.644  0.00  0.00    +0.000 C 
ATOM     20  C   UNL     1      22.990   2.902 191.573  0.00  0.00    +0.000 C 
ATOM     21  C   UNL     1      22.460  -0.240 191.507  0.00  0.00    +0.000 C 
ATOM     22  C   UNL     1      20.779   3.042 189.394  0.00  0.00    +0.000 C 
ATOM     23  C   UNL     1      21.381   2.080 187.021  0.00  0.00    +0.000 C 
ATOM     24  C   UNL     1      19.470   3.154 188.645  0.00  0.00    +0.000 C 
ATOM     25  C   UNL     1      24.815  -2.069 195.974  0.00  0.00    +0.000 C 
ATOM     26  C   UNL     1      27.104  -1.075 196.419  0.00  0.00    +0.000 C 
ATOM     27  C   UNL     1      19.946   2.564 187.353  0.00  0.00    +0.000 C 
ATOM     28  C   UNL     1      19.038   4.622 188.482  0.00  0.00    +0.000 C 
ATOM     29  C   UNL     1      18.378   2.289 189.301  0.00  0.00    +0.000 C 
ENDROOT
BRANCH  17  30
ATOM     30  O   UNL     1      25.003  -0.163 198.384  0.00  0.00    +0.000 OA
ATOM     31  H   UNL     1      25.555  -0.952 198.567  0.00  0.00    +0.000 HD
ENDBRANCH  17  30
BRANCH  19  32
ATOM     32  O   UNL     1      23.968   2.264 197.584  0.00  0.00    +0.000 OA
ATOM     33  H   UNL     1      23.806   1.823 198.440  0.00  0.00    +0.000 HD
ENDBRANCH  19  32
BRANCH  14  35
ATOM     34  O   UNL     1      24.689   3.465 187.771  0.00  0.00    +0.000 OA
ATOM     35  C   UNL     1      23.616   3.149 187.274  0.00  0.00    +0.000 C 
BRANCH  35  36
ATOM     36  O   UNL     1      23.172   3.810 186.181  0.00  0.00    +0.000 OA
ATOM     37  H   UNL     1      23.261   4.762 186.406  0.00  0.00    +0.000 HD
ENDBRANCH  35  36
ENDBRANCH  14  35
TORSDOF 4
ENDMDL
MODEL 9
REMARK VINA RESULT:      -8.2      5.383      7.703
REMARK  Name = 73659_MaslinicAcid.pdbqt.pdb
REMARK  4 active torsions:
REMARK  status: ('A' for Active; 'I' for Inactive)
REMARK    1  A    between atoms: C_14  and  C_35
REMARK    2  A    between atoms: C_17  and  O_30
REMARK    3  A    between atoms: C_19  and  O_32
REMARK    4  A    between atoms: C_35  and  O_36
REMARK                            x       y       z     vdW  Elec       q    Type
REMARK                         _______ _______ _______ _____ _____    ______ ____
ROOT
ATOM      1  C   UNL     1      25.485   2.430 190.061  0.00  0.00    +0.000 C 
ATOM      2  C   UNL     1      24.744   1.049 190.328  0.00  0.00    +0.000 C 
ATOM      3  C   UNL     1      23.225   0.920 190.465  0.00  0.00    +0.000 C 
ATOM      4  C   UNL     1      26.888   2.565 190.928  0.00  0.00    +0.000 C 
ATOM      5  C   UNL     1      22.469   2.104 191.080  0.00  0.00    +0.000 C 
ATOM      6  C   UNL     1      24.517   3.464 190.445  0.00  0.00    +0.000 C 
ATOM      7  C   UNL     1      23.106   3.364 190.923  0.00  0.00    +0.000 C 
ATOM      8  C   UNL     1      27.824   1.244 190.788  0.00  0.00    +0.000 C 
ATOM      9  C   UNL     1      21.222   1.859 191.916  0.00  0.00    +0.000 C 
ATOM     10  C   UNL     1      29.291   1.262 190.600  0.00  0.00    +0.000 C 
ATOM     11  C   UNL     1      25.664  -0.033 190.501  0.00  0.00    +0.000 C 
ATOM     12  C   UNL     1      22.899  -0.195 191.339  0.00  0.00    +0.000 C 
ATOM     13  C   UNL     1      27.761   3.658 190.463  0.00  0.00    +0.000 C 
ATOM     14  C   UNL     1      30.085   2.487 189.828  0.00  0.00    +0.000 C 
ATOM     15  C   UNL     1      25.758   2.501 188.504  0.00  0.00    +0.000 C 
ATOM     16  C   UNL     1      29.200   3.639 189.999  0.00  0.00    +0.000 C 
ATOM     17  C   UNL     1      20.971   0.437 192.478  0.00  0.00    +0.000 C 
ATOM     18  C   UNL     1      22.647   0.678 189.050  0.00  0.00    +0.000 C 
ATOM     19  C   UNL     1      21.950  -0.579 192.280  0.00  0.00    +0.000 C 
ATOM     20  C   UNL     1      27.144   0.136 190.694  0.00  0.00    +0.000 C 
ATOM     21  C   UNL     1      26.616   2.719 192.485  0.00  0.00    +0.000 C 
ATOM     22  C   UNL     1      30.114   0.499 191.536  0.00  0.00    +0.000 C 
ATOM     23  C   UNL     1      31.394   2.565 190.530  0.00  0.00    +0.000 C 
ATOM     24  C   UNL     1      31.453   0.437 192.237  0.00  0.00    +0.000 C 
ATOM     25  C   UNL     1      21.293   2.769 193.192  0.00  0.00    +0.000 C 
ATOM     26  C   UNL     1      19.965   2.263 191.094  0.00  0.00    +0.000 C 
ATOM     27  C   UNL     1      32.050   1.655 191.599  0.00  0.00    +0.000 C 
ATOM     28  C   UNL     1      32.224  -0.842 191.868  0.00  0.00    +0.000 C 
ATOM     29  C   UNL     1      31.292   0.609 193.759  0.00  0.00    +0.000 C 
ENDROOT
BRANCH  17  30
ATOM     30  O   UNL     1      19.814   0.070 193.160  0.00  0.00    +0.000 OA
ATOM     31  H   UNL     1      19.890  -0.837 193.523  0.00  0.00    +0.000 HD
ENDBRANCH  17  30
BRANCH  19  32
ATOM     32  O   UNL     1      21.683  -1.876 192.596  0.00  0.00    +0.000 OA
ATOM     33  H   UNL     1      21.808  -2.038 193.551  0.00  0.00    +0.000 HD
ENDBRANCH  19  32
BRANCH  14  35
ATOM     34  O   UNL     1      31.193   2.395 187.629  0.00  0.00    +0.000 OA
ATOM     35  C   UNL     1      30.269   2.072 188.364  0.00  0.00    +0.000 C 
BRANCH  35  36
ATOM     36  O   UNL     1      29.252   1.333 187.865  0.00  0.00    +0.000 OA
ATOM     37  H   UNL     1      28.483   1.535 188.442  0.00  0.00    +0.000 HD
ENDBRANCH  35  36
ENDBRANCH  14  35
TORSDOF 4
ENDMDL
