MODEL 1
REMARK VINA RESULT:      -5.7      0.000      0.000
REMARK  Name = 76617_Cardol.pdbqt.pdb
REMARK  10 active torsions:
REMARK  status: ('A' for Active; 'I' for Inactive)
REMARK    1  A    between atoms: C_1  and  C_2
REMARK    2  A    between atoms: C_3  and  C_4
REMARK    3  A    between atoms: C_5  and  C_6
REMARK    4  A    between atoms: C_7  and  C_8
REMARK    5  A    between atoms: C_8  and  C_9
REMARK    6  A    between atoms: C_10  and  C_11
REMARK    7  A    between atoms: C_14  and  C_15
REMARK    8  A    between atoms: C_15  and  C_16
REMARK    9  A    between atoms: C_19  and  O_24
REMARK   10  A    between atoms: C_20  and  O_22
REMARK                            x       y       z     vdW  Elec       q    Type
REMARK                         _______ _______ _______ _____ _____    ______ ____
ROOT
ATOM      1  C   UNL     1      42.208 -17.989 188.802  0.00  0.00    +0.000 C 
ATOM      2  C   UNL     1      41.095 -18.387 189.007  0.00  0.00    +0.000 C 
ENDROOT
BRANCH   1   3
ATOM      3  C   UNL     1      43.629 -17.482 188.540  0.00  0.00    +0.000 C 
ATOM      4  C   UNL     1      45.051 -16.974 188.278  0.00  0.00    +0.000 C 
BRANCH   4   5
ATOM      5  C   UNL     1      46.471 -16.465 188.016  0.00  0.00    +0.000 C 
ATOM      6  C   UNL     1      47.891 -15.956 187.753  0.00  0.00    +0.000 C 
BRANCH   6   7
ATOM      7  C   UNL     1      49.312 -15.446 187.490  0.00  0.00    +0.000 C 
ATOM      8  C   UNL     1      50.732 -14.938 187.228  0.00  0.00    +0.000 C 
BRANCH   8   9
ATOM      9  C   UNL     1      52.152 -14.429 186.965  0.00  0.00    +0.000 C 
BRANCH   9  10
ATOM     10  C   UNL     1      53.573 -13.920 186.701  0.00  0.00    +0.000 C 
ATOM     11  C   UNL     1      54.993 -13.411 186.438  0.00  0.00    +0.000 C 
BRANCH  11  12
ATOM     12  C   UNL     1      56.414 -12.902 186.174  0.00  0.00    +0.000 C 
ATOM     13  C   UNL     1      57.834 -12.394 185.910  0.00  0.00    +0.000 C 
ATOM     14  C   UNL     1      59.255 -11.884 185.646  0.00  0.00    +0.000 C 
ENDBRANCH  11  12
ENDBRANCH   9  10
ENDBRANCH   8   9
ENDBRANCH   6   7
ENDBRANCH   4   5
ENDBRANCH   1   3
BRANCH   2  15
ATOM     15  C   UNL     1      39.673 -18.894 189.269  0.00  0.00    +0.000 C 
BRANCH  15  16
ATOM     16  C   UNL     1      38.350 -19.364 189.511  0.00  0.00    +0.000 A 
ATOM     17  C   UNL     1      38.147 -20.476 190.326  0.00  0.00    +0.000 A 
ATOM     18  C   UNL     1      37.265 -18.709 188.931  0.00  0.00    +0.000 A 
ATOM     19  C   UNL     1      35.976 -19.177 189.174  0.00  0.00    +0.000 A 
ATOM     20  C   UNL     1      36.850 -20.927 190.556  0.00  0.00    +0.000 A 
ATOM     21  C   UNL     1      35.756 -20.286 189.985  0.00  0.00    +0.000 A 
BRANCH  20  22
ATOM     22  O   UNL     1      36.625 -22.014 191.351  0.00  0.00    +0.000 OA
ATOM     23  H   UNL     1      37.246 -22.718 191.093  0.00  0.00    +0.000 HD
ENDBRANCH  20  22
BRANCH  19  24
ATOM     24  O   UNL     1      34.895 -18.554 188.619  0.00  0.00    +0.000 OA
ATOM     25  H   UNL     1      34.094 -19.040 188.880  0.00  0.00    +0.000 HD
ENDBRANCH  19  24
ENDBRANCH  15  16
ENDBRANCH   2  15
TORSDOF 10
ENDMDL
MODEL 2
REMARK VINA RESULT:      -5.2     20.900     22.776
REMARK  Name = 76617_Cardol.pdbqt.pdb
REMARK  10 active torsions:
REMARK  status: ('A' for Active; 'I' for Inactive)
REMARK    1  A    between atoms: C_1  and  C_2
REMARK    2  A    between atoms: C_3  and  C_4
REMARK    3  A    between atoms: C_5  and  C_6
REMARK    4  A    between atoms: C_7  and  C_8
REMARK    5  A    between atoms: C_8  and  C_9
REMARK    6  A    between atoms: C_10  and  C_11
REMARK    7  A    between atoms: C_14  and  C_15
REMARK    8  A    between atoms: C_15  and  C_16
REMARK    9  A    between atoms: C_19  and  O_24
REMARK   10  A    between atoms: C_20  and  O_22
REMARK                            x       y       z     vdW  Elec       q    Type
REMARK                         _______ _______ _______ _____ _____    ______ ____
ROOT
ATOM      1  C   UNL     1      43.052   2.077 175.618  0.00  0.00    +0.000 C 
ATOM      2  C   UNL     1      42.162   2.594 175.001  0.00  0.00    +0.000 C 
ENDROOT
BRANCH   1   3
ATOM      3  C   UNL     1      44.186   1.417 176.407  0.00  0.00    +0.000 C 
ATOM      4  C   UNL     1      45.320   0.755 177.196  0.00  0.00    +0.000 C 
BRANCH   4   5
ATOM      5  C   UNL     1      46.454   0.092 177.984  0.00  0.00    +0.000 C 
ATOM      6  C   UNL     1      47.588  -0.570 178.772  0.00  0.00    +0.000 C 
BRANCH   6   7
ATOM      7  C   UNL     1      48.722  -1.233 179.561  0.00  0.00    +0.000 C 
ATOM      8  C   UNL     1      49.854  -1.896 180.350  0.00  0.00    +0.000 C 
BRANCH   8   9
ATOM      9  C   UNL     1      50.987  -2.559 181.139  0.00  0.00    +0.000 C 
BRANCH   9  10
ATOM     10  C   UNL     1      52.119  -3.224 181.929  0.00  0.00    +0.000 C 
ATOM     11  C   UNL     1      53.251  -3.886 182.719  0.00  0.00    +0.000 C 
BRANCH  11  12
ATOM     12  C   UNL     1      54.384  -4.550 183.508  0.00  0.00    +0.000 C 
ATOM     13  C   UNL     1      55.517  -5.213 184.296  0.00  0.00    +0.000 C 
ATOM     14  C   UNL     1      56.650  -5.877 185.086  0.00  0.00    +0.000 C 
ENDBRANCH  11  12
ENDBRANCH   9  10
ENDBRANCH   8   9
ENDBRANCH   6   7
ENDBRANCH   4   5
ENDBRANCH   1   3
BRANCH   2  15
ATOM     15  C   UNL     1      41.028   3.256 174.211  0.00  0.00    +0.000 C 
BRANCH  15  16
ATOM     16  C   UNL     1      39.973   3.869 173.477  0.00  0.00    +0.000 A 
ATOM     17  C   UNL     1      39.100   4.746 174.117  0.00  0.00    +0.000 A 
ATOM     18  C   UNL     1      39.820   3.590 172.120  0.00  0.00    +0.000 A 
ATOM     19  C   UNL     1      38.785   4.195 171.410  0.00  0.00    +0.000 A 
ATOM     20  C   UNL     1      38.072   5.341 173.390  0.00  0.00    +0.000 A 
ATOM     21  C   UNL     1      37.905   5.072 172.035  0.00  0.00    +0.000 A 
BRANCH  20  22
ATOM     22  O   UNL     1      37.204   6.203 173.994  0.00  0.00    +0.000 OA
ATOM     23  H   UNL     1      37.702   6.748 174.628  0.00  0.00    +0.000 HD
ENDBRANCH  20  22
BRANCH  19  24
ATOM     24  O   UNL     1      38.612   3.938 170.080  0.00  0.00    +0.000 OA
ATOM     25  H   UNL     1      37.662   3.806 169.915  0.00  0.00    +0.000 HD
ENDBRANCH  19  24
ENDBRANCH  15  16
ENDBRANCH   2  15
TORSDOF 10
ENDMDL
MODEL 3
REMARK VINA RESULT:      -5.1     19.915     22.085
REMARK  Name = 76617_Cardol.pdbqt.pdb
REMARK  10 active torsions:
REMARK  status: ('A' for Active; 'I' for Inactive)
REMARK    1  A    between atoms: C_1  and  C_2
REMARK    2  A    between atoms: C_3  and  C_4
REMARK    3  A    between atoms: C_5  and  C_6
REMARK    4  A    between atoms: C_7  and  C_8
REMARK    5  A    between atoms: C_8  and  C_9
REMARK    6  A    between atoms: C_10  and  C_11
REMARK    7  A    between atoms: C_14  and  C_15
REMARK    8  A    between atoms: C_15  and  C_16
REMARK    9  A    between atoms: C_19  and  O_24
REMARK   10  A    between atoms: C_20  and  O_22
REMARK                            x       y       z     vdW  Elec       q    Type
REMARK                         _______ _______ _______ _____ _____    ______ ____
ROOT
ATOM      1  C   UNL     1      44.066   1.602 176.357  0.00  0.00    +0.000 C 
ATOM      2  C   UNL     1      43.179   2.132 175.748  0.00  0.00    +0.000 C 
ENDROOT
BRANCH   1   3
ATOM      3  C   UNL     1      45.199   0.924 177.133  0.00  0.00    +0.000 C 
ATOM      4  C   UNL     1      46.333   0.245 177.908  0.00  0.00    +0.000 C 
BRANCH   4   5
ATOM      5  C   UNL     1      47.466  -0.434 178.683  0.00  0.00    +0.000 C 
ATOM      6  C   UNL     1      48.599  -1.113 179.457  0.00  0.00    +0.000 C 
BRANCH   6   7
ATOM      7  C   UNL     1      49.733  -1.792 180.233  0.00  0.00    +0.000 C 
ATOM      8  C   UNL     1      50.866  -2.470 181.008  0.00  0.00    +0.000 C 
BRANCH   8   9
ATOM      9  C   UNL     1      52.000  -3.148 181.782  0.00  0.00    +0.000 C 
BRANCH   9  10
ATOM     10  C   UNL     1      53.134  -3.826 182.558  0.00  0.00    +0.000 C 
ATOM     11  C   UNL     1      54.267  -4.504 183.333  0.00  0.00    +0.000 C 
BRANCH  11  12
ATOM     12  C   UNL     1      55.400  -5.183 184.110  0.00  0.00    +0.000 C 
ATOM     13  C   UNL     1      56.532  -5.861 184.886  0.00  0.00    +0.000 C 
ATOM     14  C   UNL     1      57.665  -6.540 185.662  0.00  0.00    +0.000 C 
ENDBRANCH  11  12
ENDBRANCH   9  10
ENDBRANCH   8   9
ENDBRANCH   6   7
ENDBRANCH   4   5
ENDBRANCH   1   3
BRANCH   2  15
ATOM     15  C   UNL     1      42.045   2.811 174.973  0.00  0.00    +0.000 C 
BRANCH  15  16
ATOM     16  C   UNL     1      40.990   3.442 174.252  0.00  0.00    +0.000 A 
ATOM     17  C   UNL     1      40.940   3.341 172.863  0.00  0.00    +0.000 A 
ATOM     18  C   UNL     1      40.012   4.157 174.941  0.00  0.00    +0.000 A 
ATOM     19  C   UNL     1      38.984   4.770 174.228  0.00  0.00    +0.000 A 
ATOM     20  C   UNL     1      39.904   3.960 172.169  0.00  0.00    +0.000 A 
ATOM     21  C   UNL     1      38.921   4.678 172.841  0.00  0.00    +0.000 A 
BRANCH  20  22
ATOM     22  O   UNL     1      39.834   3.876 170.808  0.00  0.00    +0.000 OA
ATOM     23  H   UNL     1      38.899   3.932 170.545  0.00  0.00    +0.000 HD
ENDBRANCH  20  22
BRANCH  19  24
ATOM     24  O   UNL     1      38.014   5.477 174.877  0.00  0.00    +0.000 OA
ATOM     25  H   UNL     1      37.672   6.157 174.271  0.00  0.00    +0.000 HD
ENDBRANCH  19  24
ENDBRANCH  15  16
ENDBRANCH   2  15
TORSDOF 10
ENDMDL
MODEL 4
REMARK VINA RESULT:      -5.0     15.866     16.776
REMARK  Name = 76617_Cardol.pdbqt.pdb
REMARK  10 active torsions:
REMARK  status: ('A' for Active; 'I' for Inactive)
REMARK    1  A    between atoms: C_1  and  C_2
REMARK    2  A    between atoms: C_3  and  C_4
REMARK    3  A    between atoms: C_5  and  C_6
REMARK    4  A    between atoms: C_7  and  C_8
REMARK    5  A    between atoms: C_8  and  C_9
REMARK    6  A    between atoms: C_10  and  C_11
REMARK    7  A    between atoms: C_14  and  C_15
REMARK    8  A    between atoms: C_15  and  C_16
REMARK    9  A    between atoms: C_19  and  O_24
REMARK   10  A    between atoms: C_20  and  O_22
REMARK                            x       y       z     vdW  Elec       q    Type
REMARK                         _______ _______ _______ _____ _____    ______ ____
ROOT
ATOM      1  C   UNL     1      47.684 -20.297 173.239  0.00  0.00    +0.000 C 
ATOM      2  C   UNL     1      46.528 -20.099 172.985  0.00  0.00    +0.000 C 
ENDROOT
BRANCH   1   3
ATOM      3  C   UNL     1      49.160 -20.548 173.563  0.00  0.00    +0.000 C 
ATOM      4  C   UNL     1      50.636 -20.798 173.888  0.00  0.00    +0.000 C 
BRANCH   4   5
ATOM      5  C   UNL     1      52.111 -21.048 174.214  0.00  0.00    +0.000 C 
ATOM      6  C   UNL     1      53.586 -21.299 174.541  0.00  0.00    +0.000 C 
BRANCH   6   7
ATOM      7  C   UNL     1      55.062 -21.551 174.867  0.00  0.00    +0.000 C 
ATOM      8  C   UNL     1      56.537 -21.801 175.193  0.00  0.00    +0.000 C 
BRANCH   8   9
ATOM      9  C   UNL     1      58.012 -22.051 175.520  0.00  0.00    +0.000 C 
BRANCH   9  10
ATOM     10  C   UNL     1      59.487 -22.302 175.848  0.00  0.00    +0.000 C 
ATOM     11  C   UNL     1      60.962 -22.551 176.174  0.00  0.00    +0.000 C 
BRANCH  11  12
ATOM     12  C   UNL     1      62.438 -22.802 176.501  0.00  0.00    +0.000 C 
ATOM     13  C   UNL     1      63.913 -23.053 176.828  0.00  0.00    +0.000 C 
ATOM     14  C   UNL     1      65.388 -23.304 177.155  0.00  0.00    +0.000 C 
ENDBRANCH  11  12
ENDBRANCH   9  10
ENDBRANCH   8   9
ENDBRANCH   6   7
ENDBRANCH   4   5
ENDBRANCH   1   3
BRANCH   2  15
ATOM     15  C   UNL     1      45.052 -19.848 172.660  0.00  0.00    +0.000 C 
BRANCH  15  16
ATOM     16  C   UNL     1      43.680 -19.616 172.356  0.00  0.00    +0.000 A 
ATOM     17  C   UNL     1      42.687 -20.208 173.134  0.00  0.00    +0.000 A 
ATOM     18  C   UNL     1      43.337 -18.796 171.283  0.00  0.00    +0.000 A 
ATOM     19  C   UNL     1      41.992 -18.575 170.995  0.00  0.00    +0.000 A 
ATOM     20  C   UNL     1      41.348 -19.974 172.830  0.00  0.00    +0.000 A 
ATOM     21  C   UNL     1      40.989 -19.159 171.762  0.00  0.00    +0.000 A 
BRANCH  20  22
ATOM     22  O   UNL     1      40.358 -20.542 173.577  0.00  0.00    +0.000 OA
ATOM     23  H   UNL     1      39.594 -19.939 173.586  0.00  0.00    +0.000 HD
ENDBRANCH  20  22
BRANCH  19  24
ATOM     24  O   UNL     1      41.629 -17.777 169.948  0.00  0.00    +0.000 OA
ATOM     25  H   UNL     1      42.371 -17.737 169.321  0.00  0.00    +0.000 HD
ENDBRANCH  19  24
ENDBRANCH  15  16
ENDBRANCH   2  15
TORSDOF 10
ENDMDL
MODEL 5
REMARK VINA RESULT:      -5.0      0.725      2.063
REMARK  Name = 76617_Cardol.pdbqt.pdb
REMARK  10 active torsions:
REMARK  status: ('A' for Active; 'I' for Inactive)
REMARK    1  A    between atoms: C_1  and  C_2
REMARK    2  A    between atoms: C_3  and  C_4
REMARK    3  A    between atoms: C_5  and  C_6
REMARK    4  A    between atoms: C_7  and  C_8
REMARK    5  A    between atoms: C_8  and  C_9
REMARK    6  A    between atoms: C_10  and  C_11
REMARK    7  A    between atoms: C_14  and  C_15
REMARK    8  A    between atoms: C_15  and  C_16
REMARK    9  A    between atoms: C_19  and  O_24
REMARK   10  A    between atoms: C_20  and  O_22
REMARK                            x       y       z     vdW  Elec       q    Type
REMARK                         _______ _______ _______ _____ _____    ______ ____
ROOT
ATOM      1  C   UNL     1      43.297 -17.690 188.864  0.00  0.00    +0.000 C 
ATOM      2  C   UNL     1      42.197 -18.103 189.106  0.00  0.00    +0.000 C 
ENDROOT
BRANCH   1   3
ATOM      3  C   UNL     1      44.701 -17.163 188.556  0.00  0.00    +0.000 C 
ATOM      4  C   UNL     1      46.107 -16.637 188.249  0.00  0.00    +0.000 C 
BRANCH   4   5
ATOM      5  C   UNL     1      47.512 -16.112 187.940  0.00  0.00    +0.000 C 
ATOM      6  C   UNL     1      48.917 -15.586 187.631  0.00  0.00    +0.000 C 
BRANCH   6   7
ATOM      7  C   UNL     1      50.322 -15.060 187.322  0.00  0.00    +0.000 C 
ATOM      8  C   UNL     1      51.727 -14.534 187.014  0.00  0.00    +0.000 C 
BRANCH   8   9
ATOM      9  C   UNL     1      53.131 -14.007 186.706  0.00  0.00    +0.000 C 
BRANCH   9  10
ATOM     10  C   UNL     1      54.536 -13.479 186.397  0.00  0.00    +0.000 C 
ATOM     11  C   UNL     1      55.940 -12.952 186.089  0.00  0.00    +0.000 C 
BRANCH  11  12
ATOM     12  C   UNL     1      57.345 -12.423 185.780  0.00  0.00    +0.000 C 
ATOM     13  C   UNL     1      58.748 -11.894 185.472  0.00  0.00    +0.000 C 
ATOM     14  C   UNL     1      60.152 -11.365 185.163  0.00  0.00    +0.000 C 
ENDBRANCH  11  12
ENDBRANCH   9  10
ENDBRANCH   8   9
ENDBRANCH   6   7
ENDBRANCH   4   5
ENDBRANCH   1   3
BRANCH   2  15
ATOM     15  C   UNL     1      40.791 -18.631 189.413  0.00  0.00    +0.000 C 
BRANCH  15  16
ATOM     16  C   UNL     1      39.484 -19.120 189.699  0.00  0.00    +0.000 A 
ATOM     17  C   UNL     1      38.367 -18.390 189.299  0.00  0.00    +0.000 A 
ATOM     18  C   UNL     1      39.330 -20.328 190.376  0.00  0.00    +0.000 A 
ATOM     19  C   UNL     1      38.048 -20.799 190.651  0.00  0.00    +0.000 A 
ATOM     20  C   UNL     1      37.094 -18.878 189.583  0.00  0.00    +0.000 A 
ATOM     21  C   UNL     1      36.922 -20.081 190.258  0.00  0.00    +0.000 A 
BRANCH  20  22
ATOM     22  O   UNL     1      35.983 -18.182 189.201  0.00  0.00    +0.000 OA
ATOM     23  H   UNL     1      36.235 -17.252 189.066  0.00  0.00    +0.000 HD
ENDBRANCH  20  22
BRANCH  19  24
ATOM     24  O   UNL     1      37.868 -21.979 191.314  0.00  0.00    +0.000 OA
ATOM     25  H   UNL     1      38.738 -22.401 191.429  0.00  0.00    +0.000 HD
ENDBRANCH  19  24
ENDBRANCH  15  16
ENDBRANCH   2  15
TORSDOF 10
ENDMDL
MODEL 6
REMARK VINA RESULT:      -4.5      1.859      3.745
REMARK  Name = 76617_Cardol.pdbqt.pdb
REMARK  10 active torsions:
REMARK  status: ('A' for Active; 'I' for Inactive)
REMARK    1  A    between atoms: C_1  and  C_2
REMARK    2  A    between atoms: C_3  and  C_4
REMARK    3  A    between atoms: C_5  and  C_6
REMARK    4  A    between atoms: C_7  and  C_8
REMARK    5  A    between atoms: C_8  and  C_9
REMARK    6  A    between atoms: C_10  and  C_11
REMARK    7  A    between atoms: C_14  and  C_15
REMARK    8  A    between atoms: C_15  and  C_16
REMARK    9  A    between atoms: C_19  and  O_24
REMARK   10  A    between atoms: C_20  and  O_22
REMARK                            x       y       z     vdW  Elec       q    Type
REMARK                         _______ _______ _______ _____ _____    ______ ____
ROOT
ATOM      1  C   UNL     1      45.476 -17.078 188.613  0.00  0.00    +0.000 C 
ATOM      2  C   UNL     1      44.394 -17.521 188.881  0.00  0.00    +0.000 C 
ENDROOT
BRANCH   1   3
ATOM      3  C   UNL     1      46.858 -16.512 188.273  0.00  0.00    +0.000 C 
ATOM      4  C   UNL     1      48.240 -15.946 187.931  0.00  0.00    +0.000 C 
BRANCH   4   5
ATOM      5  C   UNL     1      49.621 -15.379 187.590  0.00  0.00    +0.000 C 
ATOM      6  C   UNL     1      51.002 -14.813 187.248  0.00  0.00    +0.000 C 
BRANCH   6   7
ATOM      7  C   UNL     1      52.384 -14.246 186.905  0.00  0.00    +0.000 C 
ATOM      8  C   UNL     1      53.765 -13.680 186.563  0.00  0.00    +0.000 C 
BRANCH   8   9
ATOM      9  C   UNL     1      55.146 -13.114 186.220  0.00  0.00    +0.000 C 
BRANCH   9  10
ATOM     10  C   UNL     1      56.527 -12.547 185.876  0.00  0.00    +0.000 C 
ATOM     11  C   UNL     1      57.907 -11.980 185.530  0.00  0.00    +0.000 C 
BRANCH  11  12
ATOM     12  C   UNL     1      59.288 -11.414 185.186  0.00  0.00    +0.000 C 
ATOM     13  C   UNL     1      60.668 -10.847 184.840  0.00  0.00    +0.000 C 
ATOM     14  C   UNL     1      62.049 -10.280 184.495  0.00  0.00    +0.000 C 
ENDBRANCH  11  12
ENDBRANCH   9  10
ENDBRANCH   8   9
ENDBRANCH   6   7
ENDBRANCH   4   5
ENDBRANCH   1   3
BRANCH   2  15
ATOM     15  C   UNL     1      43.011 -18.087 189.221  0.00  0.00    +0.000 C 
BRANCH  15  16
ATOM     16  C   UNL     1      41.726 -18.613 189.537  0.00  0.00    +0.000 A 
ATOM     17  C   UNL     1      40.849 -18.966 188.514  0.00  0.00    +0.000 A 
ATOM     18  C   UNL     1      41.352 -18.773 190.870  0.00  0.00    +0.000 A 
ATOM     19  C   UNL     1      40.093 -19.288 191.170  0.00  0.00    +0.000 A 
ATOM     20  C   UNL     1      39.595 -19.480 188.835  0.00  0.00    +0.000 A 
ATOM     21  C   UNL     1      39.206 -19.645 190.159  0.00  0.00    +0.000 A 
BRANCH  20  22
ATOM     22  O   UNL     1      38.718 -19.833 187.850  0.00  0.00    +0.000 OA
ATOM     23  H   UNL     1      39.182 -20.406 187.216  0.00  0.00    +0.000 HD
ENDBRANCH  20  22
BRANCH  19  24
ATOM     24  O   UNL     1      39.701 -19.454 192.467  0.00  0.00    +0.000 OA
ATOM     25  H   UNL     1      38.730 -19.417 192.501  0.00  0.00    +0.000 HD
ENDBRANCH  19  24
ENDBRANCH  15  16
ENDBRANCH   2  15
TORSDOF 10
ENDMDL
MODEL 7
REMARK VINA RESULT:      -4.5     16.412     23.295
REMARK  Name = 76617_Cardol.pdbqt.pdb
REMARK  10 active torsions:
REMARK  status: ('A' for Active; 'I' for Inactive)
REMARK    1  A    between atoms: C_1  and  C_2
REMARK    2  A    between atoms: C_3  and  C_4
REMARK    3  A    between atoms: C_5  and  C_6
REMARK    4  A    between atoms: C_7  and  C_8
REMARK    5  A    between atoms: C_8  and  C_9
REMARK    6  A    between atoms: C_10  and  C_11
REMARK    7  A    between atoms: C_14  and  C_15
REMARK    8  A    between atoms: C_15  and  C_16
REMARK    9  A    between atoms: C_19  and  O_24
REMARK   10  A    between atoms: C_20  and  O_22
REMARK                            x       y       z     vdW  Elec       q    Type
REMARK                         _______ _______ _______ _____ _____    ______ ____
ROOT
ATOM      1  C   UNL     1      38.508 -24.718 176.192  0.00  0.00    +0.000 C 
ATOM      2  C   UNL     1      39.194 -23.851 175.728  0.00  0.00    +0.000 C 
ENDROOT
BRANCH   1   3
ATOM      3  C   UNL     1      37.631 -25.824 176.787  0.00  0.00    +0.000 C 
ATOM      4  C   UNL     1      36.754 -26.931 177.382  0.00  0.00    +0.000 C 
BRANCH   4   5
ATOM      5  C   UNL     1      35.876 -28.035 177.978  0.00  0.00    +0.000 C 
ATOM      6  C   UNL     1      34.999 -29.140 178.572  0.00  0.00    +0.000 C 
BRANCH   6   7
ATOM      7  C   UNL     1      34.120 -30.246 179.167  0.00  0.00    +0.000 C 
ATOM      8  C   UNL     1      33.243 -31.351 179.762  0.00  0.00    +0.000 C 
BRANCH   8   9
ATOM      9  C   UNL     1      32.365 -32.456 180.357  0.00  0.00    +0.000 C 
BRANCH   9  10
ATOM     10  C   UNL     1      31.488 -33.562 180.951  0.00  0.00    +0.000 C 
ATOM     11  C   UNL     1      30.612 -34.668 181.546  0.00  0.00    +0.000 C 
BRANCH  11  12
ATOM     12  C   UNL     1      29.735 -35.775 182.141  0.00  0.00    +0.000 C 
ATOM     13  C   UNL     1      28.859 -36.881 182.736  0.00  0.00    +0.000 C 
ATOM     14  C   UNL     1      27.982 -37.988 183.330  0.00  0.00    +0.000 C 
ENDBRANCH  11  12
ENDBRANCH   9  10
ENDBRANCH   8   9
ENDBRANCH   6   7
ENDBRANCH   4   5
ENDBRANCH   1   3
BRANCH   2  15
ATOM     15  C   UNL     1      40.072 -22.745 175.132  0.00  0.00    +0.000 C 
BRANCH  15  16
ATOM     16  C   UNL     1      40.888 -21.716 174.579  0.00  0.00    +0.000 A 
ATOM     17  C   UNL     1      42.096 -22.043 173.967  0.00  0.00    +0.000 A 
ATOM     18  C   UNL     1      40.473 -20.388 174.653  0.00  0.00    +0.000 A 
ATOM     19  C   UNL     1      41.278 -19.390 174.109  0.00  0.00    +0.000 A 
ATOM     20  C   UNL     1      42.886 -21.030 173.429  0.00  0.00    +0.000 A 
ATOM     21  C   UNL     1      42.487 -19.700 173.495  0.00  0.00    +0.000 A 
BRANCH  20  22
ATOM     22  O   UNL     1      44.074 -21.325 172.824  0.00  0.00    +0.000 OA
ATOM     23  H   UNL     1      44.542 -20.491 172.643  0.00  0.00    +0.000 HD
ENDBRANCH  20  22
BRANCH  19  24
ATOM     24  O   UNL     1      40.896 -18.080 174.168  0.00  0.00    +0.000 OA
ATOM     25  H   UNL     1      40.125 -18.013 174.758  0.00  0.00    +0.000 HD
ENDBRANCH  19  24
ENDBRANCH  15  16
ENDBRANCH   2  15
TORSDOF 10
ENDMDL
MODEL 8
REMARK VINA RESULT:      -4.4      8.843     17.726
REMARK  Name = 76617_Cardol.pdbqt.pdb
REMARK  10 active torsions:
REMARK  status: ('A' for Active; 'I' for Inactive)
REMARK    1  A    between atoms: C_1  and  C_2
REMARK    2  A    between atoms: C_3  and  C_4
REMARK    3  A    between atoms: C_5  and  C_6
REMARK    4  A    between atoms: C_7  and  C_8
REMARK    5  A    between atoms: C_8  and  C_9
REMARK    6  A    between atoms: C_10  and  C_11
REMARK    7  A    between atoms: C_14  and  C_15
REMARK    8  A    between atoms: C_15  and  C_16
REMARK    9  A    between atoms: C_19  and  O_24
REMARK   10  A    between atoms: C_20  and  O_22
REMARK                            x       y       z     vdW  Elec       q    Type
REMARK                         _______ _______ _______ _____ _____    ______ ____
ROOT
ATOM      1  C   UNL     1      40.248 -16.478 191.203  0.00  0.00    +0.000 C 
ATOM      2  C   UNL     1      41.116 -16.731 190.414  0.00  0.00    +0.000 C 
ENDROOT
BRANCH   1   3
ATOM      3  C   UNL     1      39.141 -16.155 192.210  0.00  0.00    +0.000 C 
ATOM      4  C   UNL     1      38.035 -15.831 193.219  0.00  0.00    +0.000 C 
BRANCH   4   5
ATOM      5  C   UNL     1      36.929 -15.506 194.227  0.00  0.00    +0.000 C 
ATOM      6  C   UNL     1      35.823 -15.181 195.236  0.00  0.00    +0.000 C 
BRANCH   6   7
ATOM      7  C   UNL     1      34.717 -14.856 196.245  0.00  0.00    +0.000 C 
ATOM      8  C   UNL     1      33.612 -14.531 197.255  0.00  0.00    +0.000 C 
BRANCH   8   9
ATOM      9  C   UNL     1      32.507 -14.207 198.264  0.00  0.00    +0.000 C 
BRANCH   9  10
ATOM     10  C   UNL     1      31.403 -13.881 199.274  0.00  0.00    +0.000 C 
ATOM     11  C   UNL     1      30.300 -13.556 200.285  0.00  0.00    +0.000 C 
BRANCH  11  12
ATOM     12  C   UNL     1      29.195 -13.232 201.297  0.00  0.00    +0.000 C 
ATOM     13  C   UNL     1      28.092 -12.908 202.308  0.00  0.00    +0.000 C 
ATOM     14  C   UNL     1      26.988 -12.583 203.319  0.00  0.00    +0.000 C 
ENDBRANCH  11  12
ENDBRANCH   9  10
ENDBRANCH   8   9
ENDBRANCH   6   7
ENDBRANCH   4   5
ENDBRANCH   1   3
BRANCH   2  15
ATOM     15  C   UNL     1      42.223 -17.054 189.405  0.00  0.00    +0.000 C 
BRANCH  15  16
ATOM     16  C   UNL     1      43.253 -17.355 188.468  0.00  0.00    +0.000 A 
ATOM     17  C   UNL     1      44.536 -16.849 188.660  0.00  0.00    +0.000 A 
ATOM     18  C   UNL     1      42.971 -18.156 187.363  0.00  0.00    +0.000 A 
ATOM     19  C   UNL     1      43.984 -18.445 186.452  0.00  0.00    +0.000 A 
ATOM     20  C   UNL     1      45.536 -17.150 187.738  0.00  0.00    +0.000 A 
ATOM     21  C   UNL     1      45.271 -17.947 186.629  0.00  0.00    +0.000 A 
BRANCH  20  22
ATOM     22  O   UNL     1      46.801 -16.666 187.904  0.00  0.00    +0.000 OA
ATOM     23  H   UNL     1      46.795 -15.713 187.706  0.00  0.00    +0.000 HD
ENDBRANCH  20  22
BRANCH  19  24
ATOM     24  O   UNL     1      43.735 -19.226 185.360  0.00  0.00    +0.000 OA
ATOM     25  H   UNL     1      43.318 -20.052 185.663  0.00  0.00    +0.000 HD
ENDBRANCH  19  24
ENDBRANCH  15  16
ENDBRANCH   2  15
TORSDOF 10
ENDMDL
MODEL 9
REMARK VINA RESULT:      -4.4     16.860     23.196
REMARK  Name = 76617_Cardol.pdbqt.pdb
REMARK  10 active torsions:
REMARK  status: ('A' for Active; 'I' for Inactive)
REMARK    1  A    between atoms: C_1  and  C_2
REMARK    2  A    between atoms: C_3  and  C_4
REMARK    3  A    between atoms: C_5  and  C_6
REMARK    4  A    between atoms: C_7  and  C_8
REMARK    5  A    between atoms: C_8  and  C_9
REMARK    6  A    between atoms: C_10  and  C_11
REMARK    7  A    between atoms: C_14  and  C_15
REMARK    8  A    between atoms: C_15  and  C_16
REMARK    9  A    between atoms: C_19  and  O_24
REMARK   10  A    between atoms: C_20  and  O_22
REMARK                            x       y       z     vdW  Elec       q    Type
REMARK                         _______ _______ _______ _____ _____    ______ ____
ROOT
ATOM      1  C   UNL     1      39.336 -23.919 175.042  0.00  0.00    +0.000 C 
ATOM      2  C   UNL     1      40.030 -23.098 174.509  0.00  0.00    +0.000 C 
ENDROOT
BRANCH   1   3
ATOM      3  C   UNL     1      38.449 -24.967 175.720  0.00  0.00    +0.000 C 
ATOM      4  C   UNL     1      37.563 -26.017 176.398  0.00  0.00    +0.000 C 
BRANCH   4   5
ATOM      5  C   UNL     1      36.678 -27.067 177.077  0.00  0.00    +0.000 C 
ATOM      6  C   UNL     1      35.792 -28.116 177.754  0.00  0.00    +0.000 C 
BRANCH   6   7
ATOM      7  C   UNL     1      34.906 -29.167 178.432  0.00  0.00    +0.000 C 
ATOM      8  C   UNL     1      34.021 -30.216 179.111  0.00  0.00    +0.000 C 
BRANCH   8   9
ATOM      9  C   UNL     1      33.136 -31.265 179.789  0.00  0.00    +0.000 C 
BRANCH   9  10
ATOM     10  C   UNL     1      32.250 -32.314 180.469  0.00  0.00    +0.000 C 
ATOM     11  C   UNL     1      31.364 -33.363 181.147  0.00  0.00    +0.000 C 
BRANCH  11  12
ATOM     12  C   UNL     1      30.478 -34.412 181.826  0.00  0.00    +0.000 C 
ATOM     13  C   UNL     1      29.592 -35.460 182.504  0.00  0.00    +0.000 C 
ATOM     14  C   UNL     1      28.705 -36.509 183.183  0.00  0.00    +0.000 C 
ENDBRANCH  11  12
ENDBRANCH   9  10
ENDBRANCH   8   9
ENDBRANCH   6   7
ENDBRANCH   4   5
ENDBRANCH   1   3
BRANCH   2  15
ATOM     15  C   UNL     1      40.917 -22.049 173.831  0.00  0.00    +0.000 C 
BRANCH  15  16
ATOM     16  C   UNL     1      41.743 -21.075 173.200  0.00  0.00    +0.000 A 
ATOM     17  C   UNL     1      41.169 -20.096 172.392  0.00  0.00    +0.000 A 
ATOM     18  C   UNL     1      43.123 -21.106 173.395  0.00  0.00    +0.000 A 
ATOM     19  C   UNL     1      43.922 -20.149 172.774  0.00  0.00    +0.000 A 
ATOM     20  C   UNL     1      41.986 -19.148 171.780  0.00  0.00    +0.000 A 
ATOM     21  C   UNL     1      43.364 -19.165 171.964  0.00  0.00    +0.000 A 
BRANCH  20  22
ATOM     22  O   UNL     1      41.447 -18.179 170.984  0.00  0.00    +0.000 OA
ATOM     23  H   UNL     1      42.144 -17.535 170.769  0.00  0.00    +0.000 HD
ENDBRANCH  20  22
BRANCH  19  24
ATOM     24  O   UNL     1      45.277 -20.157 172.948  0.00  0.00    +0.000 OA
ATOM     25  H   UNL     1      45.473 -19.824 173.841  0.00  0.00    +0.000 HD
ENDBRANCH  19  24
ENDBRANCH  15  16
ENDBRANCH   2  15
TORSDOF 10
ENDMDL
