MODEL 1
REMARK VINA RESULT:      -5.8      0.000      0.000
REMARK  Name = 85668777_Hyaluronidase.pdbqt.pdb
REMARK  5 active torsions:
REMARK  status: ('A' for Active; 'I' for Inactive)
REMARK    1  A    between atoms: N_1  and  C_13
REMARK    2  A    between atoms: C_14  and  C_15
REMARK    3  A    between atoms: C_15  and  C_16
REMARK    4  A    between atoms: C_17  and  C_19
REMARK    5  A    between atoms: C_19  and  O_20
REMARK                            x       y       z     vdW  Elec       q    Type
REMARK                         _______ _______ _______ _____ _____    ______ ____
ROOT
ATOM      1  N   UNL     1      23.463   9.850 169.126  0.00  0.00    +0.000 N 
ATOM      2  C   UNL     1      25.685  10.427 168.362  0.00  0.00    +0.000 C 
ATOM      3  C   UNL     1      25.678   9.902 169.797  0.00  0.00    +0.000 A 
ATOM      4  C   UNL     1      24.148  10.346 168.015  0.00  0.00    +0.000 C 
ATOM      5  C   UNL     1      24.357   9.587 170.177  0.00  0.00    +0.000 A 
ATOM      6  C   UNL     1      26.221  11.894 168.356  0.00  0.00    +0.000 C 
ATOM      7  C   UNL     1      26.545   9.472 167.473  0.00  0.00    +0.000 C 
ATOM      8  C   UNL     1      26.736   9.723 170.677  0.00  0.00    +0.000 A 
ATOM      9  C   UNL     1      24.079   9.090 171.438  0.00  0.00    +0.000 A 
ATOM     10  C   UNL     1      23.499  10.674 166.879  0.00  0.00    +0.000 C 
ATOM     11  C   UNL     1      26.455   9.222 171.947  0.00  0.00    +0.000 A 
ATOM     12  C   UNL     1      25.141   8.908 172.323  0.00  0.00    +0.000 A 
ENDROOT
BRANCH   1  13
ATOM     13  C   UNL     1      22.040   9.626 169.213  0.00  0.00    +0.000 C 
ATOM     14  C   UNL     1      20.529   9.390 169.311  0.00  0.00    +0.000 C 
BRANCH  14  15
ATOM     15  C   UNL     1      19.019   9.153 169.410  0.00  0.00    +0.000 C 
BRANCH  15  16
ATOM     16  C   UNL     1      17.510   8.918 169.510  0.00  0.00    +0.000 C 
ATOM     17  C   UNL     1      15.999   8.683 169.610  0.00  0.00    +0.000 C 
BRANCH  17  19
ATOM     18  O   UNL     1      13.853   8.403 168.730  0.00  0.00    +0.000 OA
ATOM     19  C   UNL     1      14.587   8.464 169.701  0.00  0.00    +0.000 C 
BRANCH  19  20
ATOM     20  O   UNL     1      14.134   8.331 170.960  0.00  0.00    +0.000 OA
ATOM     21  H   UNL     1      14.933   8.086 171.469  0.00  0.00    +0.000 HD
ENDBRANCH  19  20
ENDBRANCH  17  19
ENDBRANCH  15  16
ENDBRANCH  14  15
ENDBRANCH   1  13
TORSDOF 5
ENDMDL
MODEL 2
REMARK VINA RESULT:      -5.6     22.243     24.334
REMARK  Name = 85668777_Hyaluronidase.pdbqt.pdb
REMARK  5 active torsions:
REMARK  status: ('A' for Active; 'I' for Inactive)
REMARK    1  A    between atoms: N_1  and  C_13
REMARK    2  A    between atoms: C_14  and  C_15
REMARK    3  A    between atoms: C_15  and  C_16
REMARK    4  A    between atoms: C_17  and  C_19
REMARK    5  A    between atoms: C_19  and  O_20
REMARK                            x       y       z     vdW  Elec       q    Type
REMARK                         _______ _______ _______ _____ _____    ______ ____
ROOT
ATOM      1  N   UNL     1      40.585  -6.954 164.976  0.00  0.00    +0.000 N 
ATOM      2  C   UNL     1      42.865  -6.525 164.286  0.00  0.00    +0.000 C 
ATOM      3  C   UNL     1      42.660  -6.320 165.787  0.00  0.00    +0.000 A 
ATOM      4  C   UNL     1      41.409  -6.948 163.849  0.00  0.00    +0.000 C 
ATOM      5  C   UNL     1      41.315  -6.585 166.119  0.00  0.00    +0.000 A 
ATOM      6  C   UNL     1      43.310  -5.174 163.641  0.00  0.00    +0.000 C 
ATOM      7  C   UNL     1      43.907  -7.668 164.064  0.00  0.00    +0.000 C 
ATOM      8  C   UNL     1      43.573  -5.936 166.758  0.00  0.00    +0.000 A 
ATOM      9  C   UNL     1      40.869  -6.470 167.424  0.00  0.00    +0.000 A 
ATOM     10  C   UNL     1      40.931  -7.270 162.630  0.00  0.00    +0.000 C 
ATOM     11  C   UNL     1      43.123  -5.820 168.073  0.00  0.00    +0.000 A 
ATOM     12  C   UNL     1      41.786  -6.086 168.402  0.00  0.00    +0.000 A 
ENDROOT
BRANCH   1  13
ATOM     13  C   UNL     1      39.182  -7.287 164.999  0.00  0.00    +0.000 C 
ATOM     14  C   UNL     1      37.693  -7.647 165.022  0.00  0.00    +0.000 C 
BRANCH  14  15
ATOM     15  C   UNL     1      36.204  -8.007 165.045  0.00  0.00    +0.000 C 
BRANCH  15  16
ATOM     16  C   UNL     1      34.716  -8.367 165.068  0.00  0.00    +0.000 C 
ATOM     17  C   UNL     1      33.227  -8.726 165.092  0.00  0.00    +0.000 C 
BRANCH  17  19
ATOM     18  O   UNL     1      31.131  -9.066 164.118  0.00  0.00    +0.000 OA
ATOM     19  C   UNL     1      31.835  -9.061 165.113  0.00  0.00    +0.000 C 
BRANCH  19  20
ATOM     20  O   UNL     1      31.365  -9.371 166.333  0.00  0.00    +0.000 OA
ATOM     21  H   UNL     1      31.312 -10.349 166.319  0.00  0.00    +0.000 HD
ENDBRANCH  19  20
ENDBRANCH  17  19
ENDBRANCH  15  16
ENDBRANCH  14  15
ENDBRANCH   1  13
TORSDOF 5
ENDMDL
MODEL 3
REMARK VINA RESULT:      -5.1     24.901     27.777
REMARK  Name = 85668777_Hyaluronidase.pdbqt.pdb
REMARK  5 active torsions:
REMARK  status: ('A' for Active; 'I' for Inactive)
REMARK    1  A    between atoms: N_1  and  C_13
REMARK    2  A    between atoms: C_14  and  C_15
REMARK    3  A    between atoms: C_15  and  C_16
REMARK    4  A    between atoms: C_17  and  C_19
REMARK    5  A    between atoms: C_19  and  O_20
REMARK                            x       y       z     vdW  Elec       q    Type
REMARK                         _______ _______ _______ _____ _____    ______ ____
ROOT
ATOM      1  N   UNL     1      12.376 -12.813 178.050  0.00  0.00    +0.000 N 
ATOM      2  C   UNL     1      11.360 -10.955 176.878  0.00  0.00    +0.000 C 
ATOM      3  C   UNL     1      11.574 -10.663 178.363  0.00  0.00    +0.000 A 
ATOM      4  C   UNL     1      11.935 -12.421 176.784  0.00  0.00    +0.000 C 
ATOM      5  C   UNL     1      12.166 -11.784 178.983  0.00  0.00    +0.000 A 
ATOM      6  C   UNL     1       9.833 -10.893 176.558  0.00  0.00    +0.000 C 
ATOM      7  C   UNL     1      12.191  -9.936 176.033  0.00  0.00    +0.000 C 
ATOM      8  C   UNL     1      11.271  -9.521 179.091  0.00  0.00    +0.000 A 
ATOM      9  C   UNL     1      12.463 -11.774 180.334  0.00  0.00    +0.000 A 
ATOM     10  C   UNL     1      12.034 -13.246 175.721  0.00  0.00    +0.000 C 
ATOM     11  C   UNL     1      11.571  -9.513 180.453  0.00  0.00    +0.000 A 
ATOM     12  C   UNL     1      12.161 -10.626 181.067  0.00  0.00    +0.000 A 
ENDROOT
BRANCH   1  13
ATOM     13  C   UNL     1      12.968 -14.085 178.385  0.00  0.00    +0.000 C 
ATOM     14  C   UNL     1      13.592 -15.438 178.741  0.00  0.00    +0.000 C 
BRANCH  14  15
ATOM     15  C   UNL     1      14.216 -16.791 179.097  0.00  0.00    +0.000 C 
BRANCH  15  16
ATOM     16  C   UNL     1      14.839 -18.143 179.452  0.00  0.00    +0.000 C 
ATOM     17  C   UNL     1      15.463 -19.497 179.807  0.00  0.00    +0.000 C 
BRANCH  17  19
ATOM     18  O   UNL     1      16.169 -21.674 179.337  0.00  0.00    +0.000 OA
ATOM     19  C   UNL     1      16.046 -20.762 180.137  0.00  0.00    +0.000 C 
BRANCH  19  20
ATOM     20  O   UNL     1      16.450 -20.863 181.416  0.00  0.00    +0.000 OA
ATOM     21  H   UNL     1      17.396 -21.101 181.342  0.00  0.00    +0.000 HD
ENDBRANCH  19  20
ENDBRANCH  17  19
ENDBRANCH  15  16
ENDBRANCH  14  15
ENDBRANCH   1  13
TORSDOF 5
ENDMDL
MODEL 4
REMARK VINA RESULT:      -5.0     26.082     27.453
REMARK  Name = 85668777_Hyaluronidase.pdbqt.pdb
REMARK  5 active torsions:
REMARK  status: ('A' for Active; 'I' for Inactive)
REMARK    1  A    between atoms: N_1  and  C_13
REMARK    2  A    between atoms: C_14  and  C_15
REMARK    3  A    between atoms: C_15  and  C_16
REMARK    4  A    between atoms: C_17  and  C_19
REMARK    5  A    between atoms: C_19  and  O_20
REMARK                            x       y       z     vdW  Elec       q    Type
REMARK                         _______ _______ _______ _____ _____    ______ ____
ROOT
ATOM      1  N   UNL     1      42.563  -6.397 164.896  0.00  0.00    +0.000 N 
ATOM      2  C   UNL     1      41.412  -8.515 164.682  0.00  0.00    +0.000 C 
ATOM      3  C   UNL     1      41.749  -7.892 163.327  0.00  0.00    +0.000 A 
ATOM      4  C   UNL     1      42.006  -7.427 165.657  0.00  0.00    +0.000 C 
ATOM      5  C   UNL     1      42.415  -6.665 163.525  0.00  0.00    +0.000 A 
ATOM      6  C   UNL     1      39.862  -8.649 164.813  0.00  0.00    +0.000 C 
ATOM      7  C   UNL     1      42.146  -9.889 164.808  0.00  0.00    +0.000 C 
ATOM      8  C   UNL     1      41.488  -8.366 162.049  0.00  0.00    +0.000 A 
ATOM      9  C   UNL     1      42.828  -5.899 162.450  0.00  0.00    +0.000 A 
ATOM     10  C   UNL     1      42.028  -7.392 167.005  0.00  0.00    +0.000 C 
ATOM     11  C   UNL     1      41.906  -7.593 160.966  0.00  0.00    +0.000 A 
ATOM     12  C   UNL     1      42.569  -6.374 161.164  0.00  0.00    +0.000 A 
ENDROOT
BRANCH   1  13
ATOM     13  C   UNL     1      43.208  -5.214 165.413  0.00  0.00    +0.000 C 
ATOM     14  C   UNL     1      43.891  -3.956 165.957  0.00  0.00    +0.000 C 
BRANCH  14  15
ATOM     15  C   UNL     1      44.573  -2.697 166.501  0.00  0.00    +0.000 C 
BRANCH  15  16
ATOM     16  C   UNL     1      45.256  -1.439 167.045  0.00  0.00    +0.000 C 
ATOM     17  C   UNL     1      45.939  -0.181 167.590  0.00  0.00    +0.000 C 
BRANCH  17  19
ATOM     18  O   UNL     1      47.115   1.828 167.391  0.00  0.00    +0.000 OA
ATOM     19  C   UNL     1      46.578   0.994 168.100  0.00  0.00    +0.000 C 
BRANCH  19  20
ATOM     20  O   UNL     1      46.539   1.102 169.440  0.00  0.00    +0.000 OA
ATOM     21  H   UNL     1      47.387   0.709 169.729  0.00  0.00    +0.000 HD
ENDBRANCH  19  20
ENDBRANCH  17  19
ENDBRANCH  15  16
ENDBRANCH  14  15
ENDBRANCH   1  13
TORSDOF 5
ENDMDL
MODEL 5
REMARK VINA RESULT:      -4.9      9.575     11.223
REMARK  Name = 85668777_Hyaluronidase.pdbqt.pdb
REMARK  5 active torsions:
REMARK  status: ('A' for Active; 'I' for Inactive)
REMARK    1  A    between atoms: N_1  and  C_13
REMARK    2  A    between atoms: C_14  and  C_15
REMARK    3  A    between atoms: C_15  and  C_16
REMARK    4  A    between atoms: C_17  and  C_19
REMARK    5  A    between atoms: C_19  and  O_20
REMARK                            x       y       z     vdW  Elec       q    Type
REMARK                         _______ _______ _______ _____ _____    ______ ____
ROOT
ATOM      1  N   UNL     1      17.425  16.141 176.210  0.00  0.00    +0.000 N 
ATOM      2  C   UNL     1      18.271  17.896 177.645  0.00  0.00    +0.000 C 
ATOM      3  C   UNL     1      16.791  17.603 177.890  0.00  0.00    +0.000 A 
ATOM      4  C   UNL     1      18.587  16.857 176.501  0.00  0.00    +0.000 C 
ATOM      5  C   UNL     1      16.364  16.575 177.023  0.00  0.00    +0.000 A 
ATOM      6  C   UNL     1      18.428  19.374 177.167  0.00  0.00    +0.000 C 
ATOM      7  C   UNL     1      19.073  17.601 178.954  0.00  0.00    +0.000 C 
ATOM      8  C   UNL     1      15.912  18.190 178.789  0.00  0.00    +0.000 A 
ATOM      9  C   UNL     1      15.057  16.123 177.046  0.00  0.00    +0.000 A 
ATOM     10  C   UNL     1      19.742  16.616 175.846  0.00  0.00    +0.000 C 
ATOM     11  C   UNL     1      14.595  17.733 178.811  0.00  0.00    +0.000 A 
ATOM     12  C   UNL     1      14.173  16.711 177.950  0.00  0.00    +0.000 A 
ENDROOT
BRANCH   1  13
ATOM     13  C   UNL     1      17.297  15.097 175.222  0.00  0.00    +0.000 C 
ATOM     14  C   UNL     1      17.160  13.993 174.169  0.00  0.00    +0.000 C 
BRANCH  14  15
ATOM     15  C   UNL     1      17.022  12.889 173.116  0.00  0.00    +0.000 C 
BRANCH  15  16
ATOM     16  C   UNL     1      16.884  11.785 172.065  0.00  0.00    +0.000 C 
ATOM     17  C   UNL     1      16.744  10.680 171.012  0.00  0.00    +0.000 C 
BRANCH  17  19
ATOM     18  O   UNL     1      16.525   9.869 168.832  0.00  0.00    +0.000 OA
ATOM     19  C   UNL     1      16.613   9.649 170.028  0.00  0.00    +0.000 C 
BRANCH  19  20
ATOM     20  O   UNL     1      16.593   8.405 170.538  0.00  0.00    +0.000 OA
ATOM     21  H   UNL     1      16.813   7.837 169.772  0.00  0.00    +0.000 HD
ENDBRANCH  19  20
ENDBRANCH  17  19
ENDBRANCH  15  16
ENDBRANCH  14  15
ENDBRANCH   1  13
TORSDOF 5
ENDMDL
MODEL 6
REMARK VINA RESULT:      -4.9     40.033     41.664
REMARK  Name = 85668777_Hyaluronidase.pdbqt.pdb
REMARK  5 active torsions:
REMARK  status: ('A' for Active; 'I' for Inactive)
REMARK    1  A    between atoms: N_1  and  C_13
REMARK    2  A    between atoms: C_14  and  C_15
REMARK    3  A    between atoms: C_15  and  C_16
REMARK    4  A    between atoms: C_17  and  C_19
REMARK    5  A    between atoms: C_19  and  O_20
REMARK                            x       y       z     vdW  Elec       q    Type
REMARK                         _______ _______ _______ _____ _____    ______ ____
ROOT
ATOM      1  N   UNL     1      52.194 -12.995 187.922  0.00  0.00    +0.000 N 
ATOM      2  C   UNL     1      53.809 -11.283 188.483  0.00  0.00    +0.000 C 
ATOM      3  C   UNL     1      54.404 -12.382 187.602  0.00  0.00    +0.000 A 
ATOM      4  C   UNL     1      52.326 -11.800 188.631  0.00  0.00    +0.000 C 
ATOM      5  C   UNL     1      53.412 -13.343 187.315  0.00  0.00    +0.000 A 
ATOM      6  C   UNL     1      54.568 -11.255 189.848  0.00  0.00    +0.000 C 
ATOM      7  C   UNL     1      53.891  -9.920 187.724  0.00  0.00    +0.000 C 
ATOM      8  C   UNL     1      55.693 -12.516 187.108  0.00  0.00    +0.000 A 
ATOM      9  C   UNL     1      53.698 -14.446 186.531  0.00  0.00    +0.000 A 
ATOM     10  C   UNL     1      51.285 -11.262 189.300  0.00  0.00    +0.000 C 
ATOM     11  C   UNL     1      55.980 -13.628 186.318  0.00  0.00    +0.000 A 
ATOM     12  C   UNL     1      54.993 -14.582 186.032  0.00  0.00    +0.000 A 
ENDROOT
BRANCH   1  13
ATOM     13  C   UNL     1      50.991 -13.785 187.808  0.00  0.00    +0.000 C 
ATOM     14  C   UNL     1      49.714 -14.621 187.681  0.00  0.00    +0.000 C 
BRANCH  14  15
ATOM     15  C   UNL     1      48.436 -15.456 187.554  0.00  0.00    +0.000 C 
BRANCH  15  16
ATOM     16  C   UNL     1      47.160 -16.292 187.426  0.00  0.00    +0.000 C 
ATOM     17  C   UNL     1      45.883 -17.128 187.298  0.00  0.00    +0.000 C 
BRANCH  17  19
ATOM     18  O   UNL     1      44.047 -18.304 188.137  0.00  0.00    +0.000 OA
ATOM     19  C   UNL     1      44.690 -17.912 187.179  0.00  0.00    +0.000 C 
BRANCH  19  20
ATOM     20  O   UNL     1      44.337 -18.182 185.911  0.00  0.00    +0.000 OA
ATOM     21  H   UNL     1      43.500 -17.689 185.794  0.00  0.00    +0.000 HD
ENDBRANCH  19  20
ENDBRANCH  17  19
ENDBRANCH  15  16
ENDBRANCH  14  15
ENDBRANCH   1  13
TORSDOF 5
ENDMDL
MODEL 7
REMARK VINA RESULT:      -4.9     25.215     28.256
REMARK  Name = 85668777_Hyaluronidase.pdbqt.pdb
REMARK  5 active torsions:
REMARK  status: ('A' for Active; 'I' for Inactive)
REMARK    1  A    between atoms: N_1  and  C_13
REMARK    2  A    between atoms: C_14  and  C_15
REMARK    3  A    between atoms: C_15  and  C_16
REMARK    4  A    between atoms: C_17  and  C_19
REMARK    5  A    between atoms: C_19  and  O_20
REMARK                            x       y       z     vdW  Elec       q    Type
REMARK                         _______ _______ _______ _____ _____    ______ ____
ROOT
ATOM      1  N   UNL     1      12.006 -12.307 180.101  0.00  0.00    +0.000 N 
ATOM      2  C   UNL     1      11.151 -10.048 179.949  0.00  0.00    +0.000 C 
ATOM      3  C   UNL     1      10.476 -10.855 181.057  0.00  0.00    +0.000 A 
ATOM      4  C   UNL     1      12.157 -11.122 179.379  0.00  0.00    +0.000 C 
ATOM      5  C   UNL     1      11.019 -12.156 181.090  0.00  0.00    +0.000 A 
ATOM      6  C   UNL     1      10.077  -9.622 178.898  0.00  0.00    +0.000 C 
ATOM      7  C   UNL     1      11.887  -8.824 180.584  0.00  0.00    +0.000 C 
ATOM      8  C   UNL     1       9.480 -10.474 181.945  0.00  0.00    +0.000 A 
ATOM      9  C   UNL     1      10.574 -13.089 182.010  0.00  0.00    +0.000 A 
ATOM     10  C   UNL     1      13.050 -11.023 178.373  0.00  0.00    +0.000 C 
ATOM     11  C   UNL     1       9.032 -11.415 182.871  0.00  0.00    +0.000 A 
ATOM     12  C   UNL     1       9.573 -12.707 182.904  0.00  0.00    +0.000 A 
ENDROOT
BRANCH   1  13
ATOM     13  C   UNL     1      12.744 -13.529 179.890  0.00  0.00    +0.000 C 
ATOM     14  C   UNL     1      13.522 -14.828 179.664  0.00  0.00    +0.000 C 
BRANCH  14  15
ATOM     15  C   UNL     1      14.301 -16.128 179.437  0.00  0.00    +0.000 C 
BRANCH  15  16
ATOM     16  C   UNL     1      15.077 -17.428 179.212  0.00  0.00    +0.000 C 
ATOM     17  C   UNL     1      15.854 -18.729 178.986  0.00  0.00    +0.000 C 
BRANCH  17  19
ATOM     18  O   UNL     1      17.146 -20.215 177.728  0.00  0.00    +0.000 OA
ATOM     19  C   UNL     1      16.579 -19.945 178.773  0.00  0.00    +0.000 C 
BRANCH  19  20
ATOM     20  O   UNL     1      16.581 -20.774 179.832  0.00  0.00    +0.000 OA
ATOM     21  H   UNL     1      16.226 -21.611 179.471  0.00  0.00    +0.000 HD
ENDBRANCH  19  20
ENDBRANCH  17  19
ENDBRANCH  15  16
ENDBRANCH  14  15
ENDBRANCH   1  13
TORSDOF 5
ENDMDL
MODEL 8
REMARK VINA RESULT:      -4.8     12.147     13.530
REMARK  Name = 85668777_Hyaluronidase.pdbqt.pdb
REMARK  5 active torsions:
REMARK  status: ('A' for Active; 'I' for Inactive)
REMARK    1  A    between atoms: N_1  and  C_13
REMARK    2  A    between atoms: C_14  and  C_15
REMARK    3  A    between atoms: C_15  and  C_16
REMARK    4  A    between atoms: C_17  and  C_19
REMARK    5  A    between atoms: C_19  and  O_20
REMARK                            x       y       z     vdW  Elec       q    Type
REMARK                         _______ _______ _______ _____ _____    ______ ____
ROOT
ATOM      1  N   UNL     1      16.132  16.191 176.399  0.00  0.00    +0.000 N 
ATOM      2  C   UNL     1      16.887  14.902 174.495  0.00  0.00    +0.000 C 
ATOM      3  C   UNL     1      18.046  15.443 175.332  0.00  0.00    +0.000 A 
ATOM      4  C   UNL     1      15.656  15.465 175.306  0.00  0.00    +0.000 C 
ATOM      5  C   UNL     1      17.537  16.182 176.420  0.00  0.00    +0.000 A 
ATOM      6  C   UNL     1      16.973  15.499 173.055  0.00  0.00    +0.000 C 
ATOM      7  C   UNL     1      16.938  13.341 174.501  0.00  0.00    +0.000 C 
ATOM      8  C   UNL     1      19.413  15.297 175.146  0.00  0.00    +0.000 A 
ATOM      9  C   UNL     1      18.387  16.780 177.334  0.00  0.00    +0.000 A 
ATOM     10  C   UNL     1      14.334  15.332 175.075  0.00  0.00    +0.000 C 
ATOM     11  C   UNL     1      20.269  15.900 176.067  0.00  0.00    +0.000 A 
ATOM     12  C   UNL     1      19.761  16.632 177.149  0.00  0.00    +0.000 A 
ENDROOT
BRANCH   1  13
ATOM     13  C   UNL     1      15.323  16.864 177.387  0.00  0.00    +0.000 C 
ATOM     14  C   UNL     1      14.469  17.582 178.437  0.00  0.00    +0.000 C 
BRANCH  14  15
ATOM     15  C   UNL     1      13.616  18.299 179.487  0.00  0.00    +0.000 C 
BRANCH  15  16
ATOM     16  C   UNL     1      12.764  19.016 180.538  0.00  0.00    +0.000 C 
ATOM     17  C   UNL     1      11.910  19.733 181.589  0.00  0.00    +0.000 C 
BRANCH  17  19
ATOM     18  O   UNL     1      10.202  21.163 182.292  0.00  0.00    +0.000 OA
ATOM     19  C   UNL     1      11.112  20.401 182.571  0.00  0.00    +0.000 C 
BRANCH  19  20
ATOM     20  O   UNL     1      11.453  20.116 183.841  0.00  0.00    +0.000 OA
ATOM     21  H   UNL     1      10.877  19.359 184.071  0.00  0.00    +0.000 HD
ENDBRANCH  19  20
ENDBRANCH  17  19
ENDBRANCH  15  16
ENDBRANCH  14  15
ENDBRANCH   1  13
TORSDOF 5
ENDMDL
MODEL 9
REMARK VINA RESULT:      -4.8     25.743     28.353
REMARK  Name = 85668777_Hyaluronidase.pdbqt.pdb
REMARK  5 active torsions:
REMARK  status: ('A' for Active; 'I' for Inactive)
REMARK    1  A    between atoms: N_1  and  C_13
REMARK    2  A    between atoms: C_14  and  C_15
REMARK    3  A    between atoms: C_15  and  C_16
REMARK    4  A    between atoms: C_17  and  C_19
REMARK    5  A    between atoms: C_19  and  O_20
REMARK                            x       y       z     vdW  Elec       q    Type
REMARK                         _______ _______ _______ _____ _____    ______ ____
ROOT
ATOM      1  N   UNL     1      41.603  -8.071 165.069  0.00  0.00    +0.000 N 
ATOM      2  C   UNL     1      42.065  -6.450 166.805  0.00  0.00    +0.000 C 
ATOM      3  C   UNL     1      40.574  -6.554 166.484  0.00  0.00    +0.000 A 
ATOM      4  C   UNL     1      42.654  -7.512 165.798  0.00  0.00    +0.000 C 
ATOM      5  C   UNL     1      40.377  -7.512 165.468  0.00  0.00    +0.000 A 
ATOM      6  C   UNL     1      42.555  -5.000 166.496  0.00  0.00    +0.000 C 
ATOM      7  C   UNL     1      42.296  -6.855 168.297  0.00  0.00    +0.000 C 
ATOM      8  C   UNL     1      39.502  -5.867 167.036  0.00  0.00    +0.000 A 
ATOM      9  C   UNL     1      39.109  -7.795 164.993  0.00  0.00    +0.000 A 
ATOM     10  C   UNL     1      43.931  -7.892 165.590  0.00  0.00    +0.000 C 
ATOM     11  C   UNL     1      38.224  -6.153 166.557  0.00  0.00    +0.000 A 
ATOM     12  C   UNL     1      38.030  -7.106 165.548  0.00  0.00    +0.000 A 
ENDROOT
BRANCH   1  13
ATOM     13  C   UNL     1      41.724  -9.082 164.046  0.00  0.00    +0.000 C 
ATOM     14  C   UNL     1      41.855 -10.159 162.964  0.00  0.00    +0.000 C 
BRANCH  14  15
ATOM     15  C   UNL     1      41.987 -11.236 161.883  0.00  0.00    +0.000 C 
BRANCH  15  16
ATOM     16  C   UNL     1      42.119 -12.313 160.803  0.00  0.00    +0.000 C 
ATOM     17  C   UNL     1      42.250 -13.391 159.723  0.00  0.00    +0.000 C 
BRANCH  17  19
ATOM     18  O   UNL     1      41.614 -14.492 157.763  0.00  0.00    +0.000 OA
ATOM     19  C   UNL     1      42.371 -14.399 158.714  0.00  0.00    +0.000 C 
BRANCH  19  20
ATOM     20  O   UNL     1      43.399 -15.245 158.904  0.00  0.00    +0.000 OA
ATOM     21  H   UNL     1      43.780 -15.351 158.009  0.00  0.00    +0.000 HD
ENDBRANCH  19  20
ENDBRANCH  17  19
ENDBRANCH  15  16
ENDBRANCH  14  15
ENDBRANCH   1  13
TORSDOF 5
ENDMDL
