MODEL 1
REMARK VINA RESULT:      -6.1      0.000      0.000
REMARK  Name = 86311066_OplopantriolA.pdbqt.pdb
REMARK  12 active torsions:
REMARK  status: ('A' for Active; 'I' for Inactive)
REMARK    1  A    between atoms: C_1  and  C_3
REMARK    2  A    between atoms: C_2  and  C_13
REMARK    3  A    between atoms: C_4  and  C_5
REMARK    4  A    between atoms: C_6  and  C_7
REMARK    5  A    between atoms: C_8  and  C_9
REMARK    6  A    between atoms: C_10  and  O_11
REMARK    7  A    between atoms: C_13  and  O_14
REMARK    8  A    between atoms: C_13  and  C_16
REMARK    9  A    between atoms: C_17  and  C_18
REMARK   10  A    between atoms: C_19  and  C_20
REMARK   11  A    between atoms: C_20  and  C_21
REMARK   12  A    between atoms: C_20  and  O_23
REMARK                            x       y       z     vdW  Elec       q    Type
REMARK                         _______ _______ _______ _____ _____    ______ ____
ROOT
ATOM      1  C   UNL     1      18.332   1.165 191.598  0.00  0.00    +0.000 C 
ATOM      2  C   UNL     1      18.114   1.289 190.423  0.00  0.00    +0.000 C 
ENDROOT
BRANCH   1   3
ATOM      3  C   UNL     1      18.608   1.008 193.095  0.00  0.00    +0.000 C 
ATOM      4  C   UNL     1      18.885   0.851 194.594  0.00  0.00    +0.000 C 
BRANCH   4   5
ATOM      5  C   UNL     1      19.162   0.695 196.092  0.00  0.00    +0.000 C 
ATOM      6  C   UNL     1      19.437   0.540 197.591  0.00  0.00    +0.000 C 
BRANCH   6   7
ATOM      7  C   UNL     1      19.714   0.386 199.090  0.00  0.00    +0.000 C 
ATOM      8  C   UNL     1      19.990   0.231 200.588  0.00  0.00    +0.000 C 
BRANCH   8   9
ATOM      9  C   UNL     1      20.267   0.077 202.087  0.00  0.00    +0.000 C 
ATOM     10  C   UNL     1      20.543  -0.076 203.585  0.00  0.00    +0.000 C 
BRANCH  10  11
ATOM     11  O   UNL     1      20.783  -0.210 204.884  0.00  0.00    +0.000 OA
ATOM     12  H   UNL     1      20.700  -1.141 205.150  0.00  0.00    +0.000 HD
ENDBRANCH  10  11
ENDBRANCH   8   9
ENDBRANCH   6   7
ENDBRANCH   4   5
ENDBRANCH   1   3
BRANCH   2  13
ATOM     13  C   UNL     1      17.859   1.436 189.038  0.00  0.00    +0.000 C 
BRANCH  13  14
ATOM     14  O   UNL     1      16.704   0.876 188.541  0.00  0.00    +0.000 OA
ATOM     15  H   UNL     1      16.466   1.254 187.678  0.00  0.00    +0.000 HD
ENDBRANCH  13  14
BRANCH  13  16
ATOM     16  C   UNL     1      18.724   2.122 188.147  0.00  0.00    +0.000 C 
ATOM     17  C   UNL     1      19.456   2.703 187.392  0.00  0.00    +0.000 C 
BRANCH  17  18
ATOM     18  C   UNL     1      20.389   3.441 186.429  0.00  0.00    +0.000 C 
ATOM     19  C   UNL     1      21.120   4.020 185.673  0.00  0.00    +0.000 C 
BRANCH  19  20
ATOM     20  C   UNL     1      21.985   4.704 184.778  0.00  0.00    +0.000 C 
BRANCH  20  21
ATOM     21  C   UNL     1      21.981   4.492 183.371  0.00  0.00    +0.000 C 
ATOM     22  C   UNL     1      21.992   4.288 182.052  0.00  0.00    +0.000 C 
ENDBRANCH  20  21
BRANCH  20  23
ATOM     23  O   UNL     1      22.875   5.621 185.300  0.00  0.00    +0.000 OA
ATOM     24  H   UNL     1      22.568   5.980 186.151  0.00  0.00    +0.000 HD
ENDBRANCH  20  23
ENDBRANCH  19  20
ENDBRANCH  17  18
ENDBRANCH  13  16
ENDBRANCH   2  13
TORSDOF 12
ENDMDL
MODEL 2
REMARK VINA RESULT:      -5.3      7.371      7.940
REMARK  Name = 86311066_OplopantriolA.pdbqt.pdb
REMARK  12 active torsions:
REMARK  status: ('A' for Active; 'I' for Inactive)
REMARK    1  A    between atoms: C_1  and  C_3
REMARK    2  A    between atoms: C_2  and  C_13
REMARK    3  A    between atoms: C_4  and  C_5
REMARK    4  A    between atoms: C_6  and  C_7
REMARK    5  A    between atoms: C_8  and  C_9
REMARK    6  A    between atoms: C_10  and  O_11
REMARK    7  A    between atoms: C_13  and  O_14
REMARK    8  A    between atoms: C_13  and  C_16
REMARK    9  A    between atoms: C_17  and  C_18
REMARK   10  A    between atoms: C_19  and  C_20
REMARK   11  A    between atoms: C_20  and  C_21
REMARK   12  A    between atoms: C_20  and  O_23
REMARK                            x       y       z     vdW  Elec       q    Type
REMARK                         _______ _______ _______ _____ _____    ______ ____
ROOT
ATOM      1  C   UNL     1      26.774  -0.498 191.644  0.00  0.00    +0.000 C 
ATOM      2  C   UNL     1      26.809   0.274 190.725  0.00  0.00    +0.000 C 
ENDROOT
BRANCH   1   3
ATOM      3  C   UNL     1      26.731  -1.483 192.816  0.00  0.00    +0.000 C 
ATOM      4  C   UNL     1      26.687  -2.469 193.987  0.00  0.00    +0.000 C 
BRANCH   4   5
ATOM      5  C   UNL     1      26.643  -3.454 195.159  0.00  0.00    +0.000 C 
ATOM      6  C   UNL     1      26.597  -4.441 196.329  0.00  0.00    +0.000 C 
BRANCH   6   7
ATOM      7  C   UNL     1      26.551  -5.427 197.501  0.00  0.00    +0.000 C 
ATOM      8  C   UNL     1      26.506  -6.413 198.672  0.00  0.00    +0.000 C 
BRANCH   8   9
ATOM      9  C   UNL     1      26.460  -7.400 199.842  0.00  0.00    +0.000 C 
ATOM     10  C   UNL     1      26.414  -8.388 201.011  0.00  0.00    +0.000 C 
BRANCH  10  11
ATOM     11  O   UNL     1      26.375  -9.244 202.026  0.00  0.00    +0.000 OA
ATOM     12  H   UNL     1      25.738  -8.945 202.696  0.00  0.00    +0.000 HD
ENDBRANCH  10  11
ENDBRANCH   8   9
ENDBRANCH   6   7
ENDBRANCH   4   5
ENDBRANCH   1   3
BRANCH   2  13
ATOM     13  C   UNL     1      26.850   1.184 189.640  0.00  0.00    +0.000 C 
BRANCH  13  14
ATOM     14  O   UNL     1      28.070   1.733 189.316  0.00  0.00    +0.000 OA
ATOM     15  H   UNL     1      28.738   1.048 189.149  0.00  0.00    +0.000 HD
ENDBRANCH  13  14
BRANCH  13  16
ATOM     16  C   UNL     1      25.711   1.554 188.880  0.00  0.00    +0.000 C 
ATOM     17  C   UNL     1      24.747   1.866 188.236  0.00  0.00    +0.000 C 
BRANCH  17  18
ATOM     18  C   UNL     1      23.518   2.262 187.414  0.00  0.00    +0.000 C 
ATOM     19  C   UNL     1      22.554   2.572 186.769  0.00  0.00    +0.000 C 
BRANCH  19  20
ATOM     20  C   UNL     1      21.415   2.939 186.005  0.00  0.00    +0.000 C 
BRANCH  20  21
ATOM     21  C   UNL     1      20.098   2.996 186.542  0.00  0.00    +0.000 C 
ATOM     22  C   UNL     1      18.869   3.042 187.060  0.00  0.00    +0.000 C 
ENDBRANCH  20  21
BRANCH  20  23
ATOM     23  O   UNL     1      21.593   3.257 184.673  0.00  0.00    +0.000 OA
ATOM     24  H   UNL     1      21.413   4.196 184.498  0.00  0.00    +0.000 HD
ENDBRANCH  20  23
ENDBRANCH  19  20
ENDBRANCH  17  18
ENDBRANCH  13  16
ENDBRANCH   2  13
TORSDOF 12
ENDMDL
MODEL 3
REMARK VINA RESULT:      -5.0      2.981     14.111
REMARK  Name = 86311066_OplopantriolA.pdbqt.pdb
REMARK  12 active torsions:
REMARK  status: ('A' for Active; 'I' for Inactive)
REMARK    1  A    between atoms: C_1  and  C_3
REMARK    2  A    between atoms: C_2  and  C_13
REMARK    3  A    between atoms: C_4  and  C_5
REMARK    4  A    between atoms: C_6  and  C_7
REMARK    5  A    between atoms: C_8  and  C_9
REMARK    6  A    between atoms: C_10  and  O_11
REMARK    7  A    between atoms: C_13  and  O_14
REMARK    8  A    between atoms: C_13  and  C_16
REMARK    9  A    between atoms: C_17  and  C_18
REMARK   10  A    between atoms: C_19  and  C_20
REMARK   11  A    between atoms: C_20  and  C_21
REMARK   12  A    between atoms: C_20  and  O_23
REMARK                            x       y       z     vdW  Elec       q    Type
REMARK                         _______ _______ _______ _____ _____    ______ ____
ROOT
ATOM      1  C   UNL     1      18.589   0.389 194.732  0.00  0.00    +0.000 C 
ATOM      2  C   UNL     1      18.288   0.023 195.836  0.00  0.00    +0.000 C 
ENDROOT
BRANCH   1   3
ATOM      3  C   UNL     1      18.971   0.856 193.325  0.00  0.00    +0.000 C 
ATOM      4  C   UNL     1      19.352   1.324 191.917  0.00  0.00    +0.000 C 
BRANCH   4   5
ATOM      5  C   UNL     1      19.732   1.791 190.509  0.00  0.00    +0.000 C 
ATOM      6  C   UNL     1      20.114   2.260 189.101  0.00  0.00    +0.000 C 
BRANCH   6   7
ATOM      7  C   UNL     1      20.494   2.729 187.694  0.00  0.00    +0.000 C 
ATOM      8  C   UNL     1      20.875   3.197 186.286  0.00  0.00    +0.000 C 
BRANCH   8   9
ATOM      9  C   UNL     1      21.256   3.664 184.878  0.00  0.00    +0.000 C 
ATOM     10  C   UNL     1      21.635   4.131 183.469  0.00  0.00    +0.000 C 
BRANCH  10  11
ATOM     11  O   UNL     1      21.965   4.536 182.249  0.00  0.00    +0.000 OA
ATOM     12  H   UNL     1      22.536   5.321 182.296  0.00  0.00    +0.000 HD
ENDBRANCH  10  11
ENDBRANCH   8   9
ENDBRANCH   6   7
ENDBRANCH   4   5
ENDBRANCH   1   3
BRANCH   2  13
ATOM     13  C   UNL     1      17.934  -0.409 197.137  0.00  0.00    +0.000 C 
BRANCH  13  14
ATOM     14  O   UNL     1      17.335  -1.643 197.256  0.00  0.00    +0.000 OA
ATOM     15  H   UNL     1      16.378  -1.563 197.409  0.00  0.00    +0.000 HD
ENDBRANCH  13  14
BRANCH  13  16
ATOM     16  C   UNL     1      18.162   0.355 198.310  0.00  0.00    +0.000 C 
ATOM     17  C   UNL     1      18.357   1.002 199.303  0.00  0.00    +0.000 C 
BRANCH  17  18
ATOM     18  C   UNL     1      18.606   1.825 200.569  0.00  0.00    +0.000 C 
ATOM     19  C   UNL     1      18.802   2.472 201.562  0.00  0.00    +0.000 C 
BRANCH  19  20
ATOM     20  C   UNL     1      19.034   3.237 202.735  0.00  0.00    +0.000 C 
BRANCH  20  21
ATOM     21  C   UNL     1      20.225   3.981 202.961  0.00  0.00    +0.000 C 
ATOM     22  C   UNL     1      21.348   4.676 203.157  0.00  0.00    +0.000 C 
ENDBRANCH  20  21
BRANCH  20  23
ATOM     23  O   UNL     1      18.053   3.258 203.707  0.00  0.00    +0.000 OA
ATOM     24  H   UNL     1      17.358   2.601 203.534  0.00  0.00    +0.000 HD
ENDBRANCH  20  23
ENDBRANCH  19  20
ENDBRANCH  17  18
ENDBRANCH  13  16
ENDBRANCH   2  13
TORSDOF 12
ENDMDL
MODEL 4
REMARK VINA RESULT:      -4.8      1.688      2.380
REMARK  Name = 86311066_OplopantriolA.pdbqt.pdb
REMARK  12 active torsions:
REMARK  status: ('A' for Active; 'I' for Inactive)
REMARK    1  A    between atoms: C_1  and  C_3
REMARK    2  A    between atoms: C_2  and  C_13
REMARK    3  A    between atoms: C_4  and  C_5
REMARK    4  A    between atoms: C_6  and  C_7
REMARK    5  A    between atoms: C_8  and  C_9
REMARK    6  A    between atoms: C_10  and  O_11
REMARK    7  A    between atoms: C_13  and  O_14
REMARK    8  A    between atoms: C_13  and  C_16
REMARK    9  A    between atoms: C_17  and  C_18
REMARK   10  A    between atoms: C_19  and  C_20
REMARK   11  A    between atoms: C_20  and  C_21
REMARK   12  A    between atoms: C_20  and  O_23
REMARK                            x       y       z     vdW  Elec       q    Type
REMARK                         _______ _______ _______ _____ _____    ______ ____
ROOT
ATOM      1  C   UNL     1      18.545   0.908 193.648  0.00  0.00    +0.000 C 
ATOM      2  C   UNL     1      18.368   1.164 192.488  0.00  0.00    +0.000 C 
ENDROOT
BRANCH   1   3
ATOM      3  C   UNL     1      18.769   0.584 195.128  0.00  0.00    +0.000 C 
ATOM      4  C   UNL     1      18.992   0.258 196.608  0.00  0.00    +0.000 C 
BRANCH   4   5
ATOM      5  C   UNL     1      19.215  -0.067 198.088  0.00  0.00    +0.000 C 
ATOM      6  C   UNL     1      19.440  -0.393 199.567  0.00  0.00    +0.000 C 
BRANCH   6   7
ATOM      7  C   UNL     1      19.665  -0.718 201.047  0.00  0.00    +0.000 C 
ATOM      8  C   UNL     1      19.889  -1.044 202.527  0.00  0.00    +0.000 C 
BRANCH   8   9
ATOM      9  C   UNL     1      20.112  -1.369 204.007  0.00  0.00    +0.000 C 
ATOM     10  C   UNL     1      20.335  -1.693 205.487  0.00  0.00    +0.000 C 
BRANCH  10  11
ATOM     11  O   UNL     1      20.528  -1.974 206.770  0.00  0.00    +0.000 OA
ATOM     12  H   UNL     1      20.929  -1.215 207.226  0.00  0.00    +0.000 HD
ENDBRANCH  10  11
ENDBRANCH   8   9
ENDBRANCH   6   7
ENDBRANCH   4   5
ENDBRANCH   1   3
BRANCH   2  13
ATOM     13  C   UNL     1      18.162   1.466 191.120  0.00  0.00    +0.000 C 
BRANCH  13  14
ATOM     14  O   UNL     1      17.037   0.950 190.518  0.00  0.00    +0.000 OA
ATOM     15  H   UNL     1      16.355   0.718 191.171  0.00  0.00    +0.000 HD
ENDBRANCH  13  14
BRANCH  13  16
ATOM     16  C   UNL     1      19.045   2.263 190.348  0.00  0.00    +0.000 C 
ATOM     17  C   UNL     1      19.792   2.938 189.694  0.00  0.00    +0.000 C 
BRANCH  17  18
ATOM     18  C   UNL     1      20.744   3.798 188.858  0.00  0.00    +0.000 C 
ATOM     19  C   UNL     1      21.490   4.473 188.202  0.00  0.00    +0.000 C 
BRANCH  19  20
ATOM     20  C   UNL     1      22.373   5.269 187.426  0.00  0.00    +0.000 C 
BRANCH  20  21
ATOM     21  C   UNL     1      22.399   5.248 186.004  0.00  0.00    +0.000 C 
ATOM     22  C   UNL     1      22.435   5.216 184.670  0.00  0.00    +0.000 C 
ENDBRANCH  20  21
BRANCH  20  23
ATOM     23  O   UNL     1      23.250   6.106 188.086  0.00  0.00    +0.000 OA
ATOM     24  H   UNL     1      22.912   7.017 188.139  0.00  0.00    +0.000 HD
ENDBRANCH  20  23
ENDBRANCH  19  20
ENDBRANCH  17  18
ENDBRANCH  13  16
ENDBRANCH   2  13
TORSDOF 12
ENDMDL
MODEL 5
REMARK VINA RESULT:      -4.8      5.996     13.395
REMARK  Name = 86311066_OplopantriolA.pdbqt.pdb
REMARK  12 active torsions:
REMARK  status: ('A' for Active; 'I' for Inactive)
REMARK    1  A    between atoms: C_1  and  C_3
REMARK    2  A    between atoms: C_2  and  C_13
REMARK    3  A    between atoms: C_4  and  C_5
REMARK    4  A    between atoms: C_6  and  C_7
REMARK    5  A    between atoms: C_8  and  C_9
REMARK    6  A    between atoms: C_10  and  O_11
REMARK    7  A    between atoms: C_13  and  O_14
REMARK    8  A    between atoms: C_13  and  C_16
REMARK    9  A    between atoms: C_17  and  C_18
REMARK   10  A    between atoms: C_19  and  C_20
REMARK   11  A    between atoms: C_20  and  C_21
REMARK   12  A    between atoms: C_20  and  O_23
REMARK                            x       y       z     vdW  Elec       q    Type
REMARK                         _______ _______ _______ _____ _____    ______ ____
ROOT
ATOM      1  C   UNL     1      18.621   0.260 196.164  0.00  0.00    +0.000 C 
ATOM      2  C   UNL     1      17.978  -0.265 197.033  0.00  0.00    +0.000 C 
ENDROOT
BRANCH   1   3
ATOM      3  C   UNL     1      19.440   0.930 195.058  0.00  0.00    +0.000 C 
ATOM      4  C   UNL     1      20.260   1.602 193.952  0.00  0.00    +0.000 C 
BRANCH   4   5
ATOM      5  C   UNL     1      21.079   2.273 192.845  0.00  0.00    +0.000 C 
ATOM      6  C   UNL     1      21.896   2.945 191.738  0.00  0.00    +0.000 C 
BRANCH   6   7
ATOM      7  C   UNL     1      22.714   3.617 190.631  0.00  0.00    +0.000 C 
ATOM      8  C   UNL     1      23.532   4.289 189.523  0.00  0.00    +0.000 C 
BRANCH   8   9
ATOM      9  C   UNL     1      24.350   4.959 188.415  0.00  0.00    +0.000 C 
ATOM     10  C   UNL     1      25.168   5.629 187.308  0.00  0.00    +0.000 C 
BRANCH  10  11
ATOM     11  O   UNL     1      25.877   6.209 186.347  0.00  0.00    +0.000 OA
ATOM     12  H   UNL     1      26.256   5.539 185.753  0.00  0.00    +0.000 HD
ENDBRANCH  10  11
ENDBRANCH   8   9
ENDBRANCH   6   7
ENDBRANCH   4   5
ENDBRANCH   1   3
BRANCH   2  13
ATOM     13  C   UNL     1      17.221  -0.884 198.057  0.00  0.00    +0.000 C 
BRANCH  13  14
ATOM     14  O   UNL     1      17.756  -0.897 199.325  0.00  0.00    +0.000 OA
ATOM     15  H   UNL     1      17.901   0.004 199.661  0.00  0.00    +0.000 HD
ENDBRANCH  13  14
BRANCH  13  16
ATOM     16  C   UNL     1      15.953  -1.484 197.844  0.00  0.00    +0.000 C 
ATOM     17  C   UNL     1      14.880  -1.992 197.665  0.00  0.00    +0.000 C 
BRANCH  17  18
ATOM     18  C   UNL     1      13.511  -2.639 197.439  0.00  0.00    +0.000 C 
ATOM     19  C   UNL     1      12.437  -3.146 197.261  0.00  0.00    +0.000 C 
BRANCH  19  20
ATOM     20  C   UNL     1      11.167  -3.745 197.050  0.00  0.00    +0.000 C 
BRANCH  20  21
ATOM     21  C   UNL     1      10.854  -4.529 195.905  0.00  0.00    +0.000 C 
ATOM     22  C   UNL     1      10.573  -5.274 194.833  0.00  0.00    +0.000 C 
ENDBRANCH  20  21
BRANCH  20  23
ATOM     23  O   UNL     1      10.187  -3.556 198.004  0.00  0.00    +0.000 OA
ATOM     24  H   UNL     1      10.327  -4.120 198.784  0.00  0.00    +0.000 HD
ENDBRANCH  20  23
ENDBRANCH  19  20
ENDBRANCH  17  18
ENDBRANCH  13  16
ENDBRANCH   2  13
TORSDOF 12
ENDMDL
MODEL 6
REMARK VINA RESULT:      -4.7     35.561     36.861
REMARK  Name = 86311066_OplopantriolA.pdbqt.pdb
REMARK  12 active torsions:
REMARK  status: ('A' for Active; 'I' for Inactive)
REMARK    1  A    between atoms: C_1  and  C_3
REMARK    2  A    between atoms: C_2  and  C_13
REMARK    3  A    between atoms: C_4  and  C_5
REMARK    4  A    between atoms: C_6  and  C_7
REMARK    5  A    between atoms: C_8  and  C_9
REMARK    6  A    between atoms: C_10  and  O_11
REMARK    7  A    between atoms: C_13  and  O_14
REMARK    8  A    between atoms: C_13  and  C_16
REMARK    9  A    between atoms: C_17  and  C_18
REMARK   10  A    between atoms: C_19  and  C_20
REMARK   11  A    between atoms: C_20  and  C_21
REMARK   12  A    between atoms: C_20  and  O_23
REMARK                            x       y       z     vdW  Elec       q    Type
REMARK                         _______ _______ _______ _____ _____    ______ ____
ROOT
ATOM      1  C   UNL     1      53.186 -14.033 186.942  0.00  0.00    +0.000 C 
ATOM      2  C   UNL     1      54.307 -13.629 186.786  0.00  0.00    +0.000 C 
ENDROOT
BRANCH   1   3
ATOM      3  C   UNL     1      51.759 -14.549 187.142  0.00  0.00    +0.000 C 
ATOM      4  C   UNL     1      50.331 -15.066 187.341  0.00  0.00    +0.000 C 
BRANCH   4   5
ATOM      5  C   UNL     1      48.902 -15.581 187.541  0.00  0.00    +0.000 C 
ATOM      6  C   UNL     1      47.474 -16.097 187.742  0.00  0.00    +0.000 C 
BRANCH   6   7
ATOM      7  C   UNL     1      46.046 -16.614 187.943  0.00  0.00    +0.000 C 
ATOM      8  C   UNL     1      44.618 -17.130 188.143  0.00  0.00    +0.000 C 
BRANCH   8   9
ATOM      9  C   UNL     1      43.190 -17.646 188.342  0.00  0.00    +0.000 C 
ATOM     10  C   UNL     1      41.762 -18.163 188.543  0.00  0.00    +0.000 C 
BRANCH  10  11
ATOM     11  O   UNL     1      40.524 -18.610 188.715  0.00  0.00    +0.000 OA
ATOM     12  H   UNL     1      40.365 -18.810 189.653  0.00  0.00    +0.000 HD
ENDBRANCH  10  11
ENDBRANCH   8   9
ENDBRANCH   6   7
ENDBRANCH   4   5
ENDBRANCH   1   3
BRANCH   2  13
ATOM     13  C   UNL     1      55.628 -13.152 186.600  0.00  0.00    +0.000 C 
BRANCH  13  14
ATOM     14  O   UNL     1      56.579 -13.544 187.514  0.00  0.00    +0.000 OA
ATOM     15  H   UNL     1      57.234 -12.844 187.672  0.00  0.00    +0.000 HD
ENDBRANCH  13  14
BRANCH  13  16
ATOM     16  C   UNL     1      56.015 -12.302 185.533  0.00  0.00    +0.000 C 
ATOM     17  C   UNL     1      56.341 -11.583 184.629  0.00  0.00    +0.000 C 
BRANCH  17  18
ATOM     18  C   UNL     1      56.756 -10.666 183.475  0.00  0.00    +0.000 C 
ATOM     19  C   UNL     1      57.081  -9.947 182.570  0.00  0.00    +0.000 C 
BRANCH  19  20
ATOM     20  C   UNL     1      57.465  -9.096 181.500  0.00  0.00    +0.000 C 
BRANCH  20  21
ATOM     21  C   UNL     1      56.589  -8.147 180.903  0.00  0.00    +0.000 C 
ATOM     22  C   UNL     1      55.754  -7.265 180.349  0.00  0.00    +0.000 C 
ENDBRANCH  20  21
BRANCH  20  23
ATOM     23  O   UNL     1      58.753  -9.196 181.013  0.00  0.00    +0.000 OA
ATOM     24  H   UNL     1      58.905 -10.045 180.563  0.00  0.00    +0.000 HD
ENDBRANCH  20  23
ENDBRANCH  19  20
ENDBRANCH  17  18
ENDBRANCH  13  16
ENDBRANCH   2  13
TORSDOF 12
ENDMDL
MODEL 7
REMARK VINA RESULT:      -4.7      5.285      6.220
REMARK  Name = 86311066_OplopantriolA.pdbqt.pdb
REMARK  12 active torsions:
REMARK  status: ('A' for Active; 'I' for Inactive)
REMARK    1  A    between atoms: C_1  and  C_3
REMARK    2  A    between atoms: C_2  and  C_13
REMARK    3  A    between atoms: C_4  and  C_5
REMARK    4  A    between atoms: C_6  and  C_7
REMARK    5  A    between atoms: C_8  and  C_9
REMARK    6  A    between atoms: C_10  and  O_11
REMARK    7  A    between atoms: C_13  and  O_14
REMARK    8  A    between atoms: C_13  and  C_16
REMARK    9  A    between atoms: C_17  and  C_18
REMARK   10  A    between atoms: C_19  and  C_20
REMARK   11  A    between atoms: C_20  and  C_21
REMARK   12  A    between atoms: C_20  and  O_23
REMARK                            x       y       z     vdW  Elec       q    Type
REMARK                         _______ _______ _______ _____ _____    ______ ____
ROOT
ATOM      1  C   UNL     1      19.169   0.772 196.076  0.00  0.00    +0.000 C 
ATOM      2  C   UNL     1      20.023   0.961 195.252  0.00  0.00    +0.000 C 
ENDROOT
BRANCH   1   3
ATOM      3  C   UNL     1      18.081   0.534 197.126  0.00  0.00    +0.000 C 
ATOM      4  C   UNL     1      16.993   0.293 198.177  0.00  0.00    +0.000 C 
BRANCH   4   5
ATOM      5  C   UNL     1      15.903   0.053 199.227  0.00  0.00    +0.000 C 
ATOM      6  C   UNL     1      14.813  -0.188 200.276  0.00  0.00    +0.000 C 
BRANCH   6   7
ATOM      7  C   UNL     1      13.724  -0.429 201.325  0.00  0.00    +0.000 C 
ATOM      8  C   UNL     1      12.634  -0.669 202.374  0.00  0.00    +0.000 C 
BRANCH   8   9
ATOM      9  C   UNL     1      11.545  -0.909 203.423  0.00  0.00    +0.000 C 
ATOM     10  C   UNL     1      10.455  -1.150 204.473  0.00  0.00    +0.000 C 
BRANCH  10  11
ATOM     11  O   UNL     1       9.511  -1.358 205.383  0.00  0.00    +0.000 OA
ATOM     12  H   UNL     1       9.043  -2.190 205.200  0.00  0.00    +0.000 HD
ENDBRANCH  10  11
ENDBRANCH   8   9
ENDBRANCH   6   7
ENDBRANCH   4   5
ENDBRANCH   1   3
BRANCH   2  13
ATOM     13  C   UNL     1      21.030   1.182 194.282  0.00  0.00    +0.000 C 
BRANCH  13  14
ATOM     14  O   UNL     1      22.287   0.685 194.545  0.00  0.00    +0.000 OA
ATOM     15  H   UNL     1      22.251  -0.238 194.846  0.00  0.00    +0.000 HD
ENDBRANCH  13  14
BRANCH  13  16
ATOM     16  C   UNL     1      20.813   1.880 193.066  0.00  0.00    +0.000 C 
ATOM     17  C   UNL     1      20.629   2.472 192.038  0.00  0.00    +0.000 C 
BRANCH  17  18
ATOM     18  C   UNL     1      20.397   3.228 190.727  0.00  0.00    +0.000 C 
ATOM     19  C   UNL     1      20.214   3.821 189.699  0.00  0.00    +0.000 C 
BRANCH  19  20
ATOM     20  C   UNL     1      19.998   4.521 188.483  0.00  0.00    +0.000 C 
BRANCH  20  21
ATOM     21  C   UNL     1      19.924   3.880 187.215  0.00  0.00    +0.000 C 
ATOM     22  C   UNL     1      19.870   3.277 186.025  0.00  0.00    +0.000 C 
ENDBRANCH  20  21
BRANCH  20  23
ATOM     23  O   UNL     1      19.855   5.893 188.533  0.00  0.00    +0.000 OA
ATOM     24  H   UNL     1      20.528   6.347 187.999  0.00  0.00    +0.000 HD
ENDBRANCH  20  23
ENDBRANCH  19  20
ENDBRANCH  17  18
ENDBRANCH  13  16
ENDBRANCH   2  13
TORSDOF 12
ENDMDL
MODEL 8
REMARK VINA RESULT:      -4.6      7.731     12.713
REMARK  Name = 86311066_OplopantriolA.pdbqt.pdb
REMARK  12 active torsions:
REMARK  status: ('A' for Active; 'I' for Inactive)
REMARK    1  A    between atoms: C_1  and  C_3
REMARK    2  A    between atoms: C_2  and  C_13
REMARK    3  A    between atoms: C_4  and  C_5
REMARK    4  A    between atoms: C_6  and  C_7
REMARK    5  A    between atoms: C_8  and  C_9
REMARK    6  A    between atoms: C_10  and  O_11
REMARK    7  A    between atoms: C_13  and  O_14
REMARK    8  A    between atoms: C_13  and  C_16
REMARK    9  A    between atoms: C_17  and  C_18
REMARK   10  A    between atoms: C_19  and  C_20
REMARK   11  A    between atoms: C_20  and  C_21
REMARK   12  A    between atoms: C_20  and  O_23
REMARK                            x       y       z     vdW  Elec       q    Type
REMARK                         _______ _______ _______ _____ _____    ______ ____
ROOT
ATOM      1  C   UNL     1      22.216  -0.161 192.438  0.00  0.00    +0.000 C 
ATOM      2  C   UNL     1      21.029  -0.159 192.625  0.00  0.00    +0.000 C 
ENDROOT
BRANCH   1   3
ATOM      3  C   UNL     1      23.728  -0.165 192.199  0.00  0.00    +0.000 C 
ATOM      4  C   UNL     1      25.241  -0.167 191.959  0.00  0.00    +0.000 C 
BRANCH   4   5
ATOM      5  C   UNL     1      26.753  -0.169 191.719  0.00  0.00    +0.000 C 
ATOM      6  C   UNL     1      28.266  -0.170 191.478  0.00  0.00    +0.000 C 
BRANCH   6   7
ATOM      7  C   UNL     1      29.778  -0.171 191.236  0.00  0.00    +0.000 C 
ATOM      8  C   UNL     1      31.291  -0.172 190.995  0.00  0.00    +0.000 C 
BRANCH   8   9
ATOM      9  C   UNL     1      32.803  -0.172 190.753  0.00  0.00    +0.000 C 
ATOM     10  C   UNL     1      34.316  -0.173 190.512  0.00  0.00    +0.000 C 
BRANCH  10  11
ATOM     11  O   UNL     1      35.627  -0.173 190.303  0.00  0.00    +0.000 OA
ATOM     12  H   UNL     1      35.994  -1.060 190.456  0.00  0.00    +0.000 HD
ENDBRANCH  10  11
ENDBRANCH   8   9
ENDBRANCH   6   7
ENDBRANCH   4   5
ENDBRANCH   1   3
BRANCH   2  13
ATOM     13  C   UNL     1      19.630  -0.157 192.846  0.00  0.00    +0.000 C 
BRANCH  13  14
ATOM     14  O   UNL     1      18.815  -0.400 191.765  0.00  0.00    +0.000 OA
ATOM     15  H   UNL     1      18.755  -1.350 191.568  0.00  0.00    +0.000 HD
ENDBRANCH  13  14
BRANCH  13  16
ATOM     16  C   UNL     1      19.034   0.080 194.112  0.00  0.00    +0.000 C 
ATOM     17  C   UNL     1      18.530   0.281 195.183  0.00  0.00    +0.000 C 
BRANCH  17  18
ATOM     18  C   UNL     1      17.890   0.537 196.550  0.00  0.00    +0.000 C 
ATOM     19  C   UNL     1      17.388   0.738 197.622  0.00  0.00    +0.000 C 
BRANCH  19  20
ATOM     20  C   UNL     1      16.794   0.977 198.889  0.00  0.00    +0.000 C 
BRANCH  20  21
ATOM     21  C   UNL     1      17.546   1.260 200.064  0.00  0.00    +0.000 C 
ATOM     22  C   UNL     1      18.264   1.526 201.157  0.00  0.00    +0.000 C 
ENDBRANCH  20  21
BRANCH  20  23
ATOM     23  O   UNL     1      15.418   0.932 198.986  0.00  0.00    +0.000 OA
ATOM     24  H   UNL     1      14.996   0.839 198.115  0.00  0.00    +0.000 HD
ENDBRANCH  20  23
ENDBRANCH  19  20
ENDBRANCH  17  18
ENDBRANCH  13  16
ENDBRANCH   2  13
TORSDOF 12
ENDMDL
MODEL 9
REMARK VINA RESULT:      -4.6     15.831     20.455
REMARK  Name = 86311066_OplopantriolA.pdbqt.pdb
REMARK  12 active torsions:
REMARK  status: ('A' for Active; 'I' for Inactive)
REMARK    1  A    between atoms: C_1  and  C_3
REMARK    2  A    between atoms: C_2  and  C_13
REMARK    3  A    between atoms: C_4  and  C_5
REMARK    4  A    between atoms: C_6  and  C_7
REMARK    5  A    between atoms: C_8  and  C_9
REMARK    6  A    between atoms: C_10  and  O_11
REMARK    7  A    between atoms: C_13  and  O_14
REMARK    8  A    between atoms: C_13  and  C_16
REMARK    9  A    between atoms: C_17  and  C_18
REMARK   10  A    between atoms: C_19  and  C_20
REMARK   11  A    between atoms: C_20  and  C_21
REMARK   12  A    between atoms: C_20  and  O_23
REMARK                            x       y       z     vdW  Elec       q    Type
REMARK                         _______ _______ _______ _____ _____    ______ ____
ROOT
ATOM      1  C   UNL     1      10.652  -9.174 181.262  0.00  0.00    +0.000 C 
ATOM      2  C   UNL     1      10.105  -8.143 181.546  0.00  0.00    +0.000 C 
ENDROOT
BRANCH   1   3
ATOM      3  C   UNL     1      11.350 -10.488 180.898  0.00  0.00    +0.000 C 
ATOM      4  C   UNL     1      12.049 -11.802 180.536  0.00  0.00    +0.000 C 
BRANCH   4   5
ATOM      5  C   UNL     1      12.748 -13.115 180.173  0.00  0.00    +0.000 C 
ATOM      6  C   UNL     1      13.448 -14.429 179.813  0.00  0.00    +0.000 C 
BRANCH   6   7
ATOM      7  C   UNL     1      14.149 -15.742 179.452  0.00  0.00    +0.000 C 
ATOM      8  C   UNL     1      14.849 -17.056 179.090  0.00  0.00    +0.000 C 
BRANCH   8   9
ATOM      9  C   UNL     1      15.550 -18.369 178.729  0.00  0.00    +0.000 C 
ATOM     10  C   UNL     1      16.252 -19.681 178.368  0.00  0.00    +0.000 C 
BRANCH  10  11
ATOM     11  O   UNL     1      16.860 -20.819 178.056  0.00  0.00    +0.000 OA
ATOM     12  H   UNL     1      17.384 -21.141 178.809  0.00  0.00    +0.000 HD
ENDBRANCH  10  11
ENDBRANCH   8   9
ENDBRANCH   6   7
ENDBRANCH   4   5
ENDBRANCH   1   3
BRANCH   2  13
ATOM     13  C   UNL     1       9.460  -6.928 181.881  0.00  0.00    +0.000 C 
BRANCH  13  14
ATOM     14  O   UNL     1       8.460  -6.488 181.044  0.00  0.00    +0.000 OA
ATOM     15  H   UNL     1       7.892  -7.220 180.749  0.00  0.00    +0.000 HD
ENDBRANCH  13  14
BRANCH  13  16
ATOM     16  C   UNL     1       9.788  -6.150 183.021  0.00  0.00    +0.000 C 
ATOM     17  C   UNL     1      10.065  -5.492 183.987  0.00  0.00    +0.000 C 
BRANCH  17  18
ATOM     18  C   UNL     1      10.416  -4.653 185.218  0.00  0.00    +0.000 C 
ATOM     19  C   UNL     1      10.692  -3.996 186.184  0.00  0.00    +0.000 C 
BRANCH  19  20
ATOM     20  C   UNL     1      11.016  -3.218 187.327  0.00  0.00    +0.000 C 
BRANCH  20  21
ATOM     21  C   UNL     1      10.747  -3.637 188.660  0.00  0.00    +0.000 C 
ATOM     22  C   UNL     1      10.498  -4.016 189.915  0.00  0.00    +0.000 C 
ENDBRANCH  20  21
BRANCH  20  23
ATOM     23  O   UNL     1      11.623  -1.993 187.135  0.00  0.00    +0.000 OA
ATOM     24  H   UNL     1      11.225  -1.504 186.394  0.00  0.00    +0.000 HD
ENDBRANCH  20  23
ENDBRANCH  19  20
ENDBRANCH  17  18
ENDBRANCH  13  16
ENDBRANCH   2  13
TORSDOF 12
ENDMDL
