MODEL 1
REMARK VINA RESULT:      -8.4      0.000      0.000
REMARK  Name = 91746246_sitosterol.pdbqt.pdb
REMARK  10 active torsions:
REMARK  status: ('A' for Active; 'I' for Inactive)
REMARK    1  A    between atoms: C_5  and  C_20
REMARK    2  A    between atoms: C_19  and  O_30
REMARK    3  A    between atoms: C_20  and  C_22
REMARK    4  A    between atoms: C_23  and  C_24
REMARK    5  A    between atoms: C_24  and  C_28
REMARK    6  A    between atoms: O_30  and  C_32
REMARK    7  A    between atoms: C_32  and  C_33
REMARK    8  A    between atoms: C_34  and  C_35
REMARK    9  A    between atoms: C_38  and  O_41
REMARK   10  A    between atoms: C_40  and  O_43
REMARK                            x       y       z     vdW  Elec       q    Type
REMARK                         _______ _______ _______ _____ _____    ______ ____
ROOT
ATOM      1  C   UNL     1      21.785  -0.065 195.149  0.00  0.00    +0.000 C 
ATOM      2  C   UNL     1      21.073  -1.368 195.797  0.00  0.00    +0.000 C 
ATOM      3  C   UNL     1      20.095  -1.267 196.900  0.00  0.00    +0.000 C 
ATOM      4  C   UNL     1      19.440   0.001 197.388  0.00  0.00    +0.000 C 
ATOM      5  C   UNL     1      21.731  -0.353 193.654  0.00  0.00    +0.000 C 
ATOM      6  C   UNL     1      20.964   1.061 195.591  0.00  0.00    +0.000 C 
ATOM      7  C   UNL     1      18.459   0.055 198.588  0.00  0.00    +0.000 C 
ATOM      8  C   UNL     1      20.872  -2.313 194.742  0.00  0.00    +0.000 C 
ATOM      9  C   UNL     1      19.888   1.127 196.648  0.00  0.00    +0.000 C 
ATOM     10  C   UNL     1      21.249  -1.676 193.432  0.00  0.00    +0.000 C 
ATOM     11  C   UNL     1      19.560  -2.428 197.511  0.00  0.00    +0.000 C 
ATOM     12  C   UNL     1      23.248  -0.044 195.665  0.00  0.00    +0.000 C 
ATOM     13  C   UNL     1      17.828  -1.411 199.007  0.00  0.00    +0.000 C 
ATOM     14  C   UNL     1      17.257   0.871 198.242  0.00  0.00    +0.000 C 
ATOM     15  C   UNL     1      18.457  -2.440 198.527  0.00  0.00    +0.000 C 
ATOM     16  C   UNL     1      19.204   0.610 199.838  0.00  0.00    +0.000 C 
ATOM     17  C   UNL     1      16.384  -1.473 199.057  0.00  0.00    +0.000 C 
ATOM     18  C   UNL     1      15.742   0.617 198.307  0.00  0.00    +0.000 C 
ATOM     19  C   UNL     1      15.241  -0.651 198.760  0.00  0.00    +0.000 C 
ENDROOT
BRANCH   5  20
ATOM     20  C   UNL     1      22.320   0.479 192.654  0.00  0.00    +0.000 C 
ATOM     21  C   UNL     1      23.754   0.932 192.726  0.00  0.00    +0.000 C 
BRANCH  20  22
ATOM     22  C   UNL     1      21.518   1.126 191.673  0.00  0.00    +0.000 C 
ATOM     23  C   UNL     1      20.650   1.826 190.616  0.00  0.00    +0.000 C 
BRANCH  23  24
ATOM     24  C   UNL     1      19.829   2.472 189.642  0.00  0.00    +0.000 C 
ATOM     25  C   UNL     1      18.569   1.896 189.224  0.00  0.00    +0.000 C 
ATOM     26  C   UNL     1      17.681   2.517 188.167  0.00  0.00    +0.000 C 
ATOM     27  C   UNL     1      18.020   0.613 189.813  0.00  0.00    +0.000 C 
BRANCH  24  28
ATOM     28  C   UNL     1      20.257   3.701 189.073  0.00  0.00    +0.000 C 
ATOM     29  C   UNL     1      20.738   4.992 188.401  0.00  0.00    +0.000 C 
ENDBRANCH  24  28
ENDBRANCH  23  24
ENDBRANCH  20  22
ENDBRANCH   5  20
BRANCH  19  30
ATOM     30  O   UNL     1      14.140  -0.717 199.609  0.00  0.00    +0.000 OA
BRANCH  30  32
ATOM     31  O   UNL     1      13.410  -2.845 200.199  0.00  0.00    +0.000 OA
ATOM     32  C   UNL     1      13.449  -1.883 199.446  0.00  0.00    +0.000 C 
BRANCH  32  33
ATOM     33  C   UNL     1      12.681  -1.876 198.226  0.00  0.00    +0.000 C 
ATOM     34  C   UNL     1      12.025  -1.863 197.219  0.00  0.00    +0.000 C 
BRANCH  34  35
ATOM     35  C   UNL     1      11.232  -1.840 196.034  0.00  0.00    +0.000 A 
ATOM     36  C   UNL     1      11.347  -2.874 195.106  0.00  0.00    +0.000 A 
ATOM     37  C   UNL     1      10.353  -0.786 195.802  0.00  0.00    +0.000 A 
ATOM     38  C   UNL     1      10.583  -2.868 193.935  0.00  0.00    +0.000 A 
ATOM     39  C   UNL     1       9.585  -0.767 194.640  0.00  0.00    +0.000 A 
ATOM     40  C   UNL     1       9.705  -1.803 193.715  0.00  0.00    +0.000 A 
BRANCH  38  41
ATOM     41  O   UNL     1      10.636  -3.844 192.971  0.00  0.00    +0.000 OA
ATOM     42  C   UNL     1      11.676  -3.714 192.036  0.00  0.00    +0.000 C 
ENDBRANCH  38  41
BRANCH  40  43
ATOM     43  O   UNL     1       8.950  -1.777 192.575  0.00  0.00    +0.000 OA
ATOM     44  H   UNL     1       8.766  -2.695 192.300  0.00  0.00    +0.000 HD
ENDBRANCH  40  43
ENDBRANCH  34  35
ENDBRANCH  32  33
ENDBRANCH  30  32
ENDBRANCH  19  30
TORSDOF 10
ENDMDL
MODEL 2
REMARK VINA RESULT:      -8.1     36.377     40.347
REMARK  Name = 91746246_sitosterol.pdbqt.pdb
REMARK  10 active torsions:
REMARK  status: ('A' for Active; 'I' for Inactive)
REMARK    1  A    between atoms: C_5  and  C_20
REMARK    2  A    between atoms: C_19  and  O_30
REMARK    3  A    between atoms: C_20  and  C_22
REMARK    4  A    between atoms: C_23  and  C_24
REMARK    5  A    between atoms: C_24  and  C_28
REMARK    6  A    between atoms: O_30  and  C_32
REMARK    7  A    between atoms: C_32  and  C_33
REMARK    8  A    between atoms: C_34  and  C_35
REMARK    9  A    between atoms: C_38  and  O_41
REMARK   10  A    between atoms: C_40  and  O_43
REMARK                            x       y       z     vdW  Elec       q    Type
REMARK                         _______ _______ _______ _____ _____    ______ ____
ROOT
ATOM      1  C   UNL     1      37.519 -21.814 166.012  0.00  0.00    +0.000 C 
ATOM      2  C   UNL     1      38.927 -22.532 166.370  0.00  0.00    +0.000 C 
ATOM      3  C   UNL     1      40.075 -21.786 166.923  0.00  0.00    +0.000 C 
ATOM      4  C   UNL     1      40.040 -20.377 167.461  0.00  0.00    +0.000 C 
ATOM      5  C   UNL     1      36.486 -22.797 166.548  0.00  0.00    +0.000 C 
ATOM      6  C   UNL     1      37.572 -20.531 166.712  0.00  0.00    +0.000 C 
ATOM      7  C   UNL     1      41.292 -19.623 167.980  0.00  0.00    +0.000 C 
ATOM      8  C   UNL     1      38.624 -23.845 166.850  0.00  0.00    +0.000 C 
ATOM      9  C   UNL     1      38.734 -19.827 167.369  0.00  0.00    +0.000 C 
ATOM     10  C   UNL     1      37.133 -23.991 166.983  0.00  0.00    +0.000 C 
ATOM     11  C   UNL     1      41.324 -22.420 167.138  0.00  0.00    +0.000 C 
ATOM     12  C   UNL     1      37.445 -21.707 164.466  0.00  0.00    +0.000 C 
ATOM     13  C   UNL     1      42.571 -20.605 168.329  0.00  0.00    +0.000 C 
ATOM     14  C   UNL     1      40.994 -18.955 169.282  0.00  0.00    +0.000 C 
ATOM     15  C   UNL     1      42.501 -21.801 167.829  0.00  0.00    +0.000 C 
ATOM     16  C   UNL     1      41.769 -18.611 166.897  0.00  0.00    +0.000 C 
ATOM     17  C   UNL     1      43.112 -20.467 169.663  0.00  0.00    +0.000 C 
ATOM     18  C   UNL     1      41.667 -18.967 170.665  0.00  0.00    +0.000 C 
ATOM     19  C   UNL     1      42.832 -19.776 170.894  0.00  0.00    +0.000 C 
ENDROOT
BRANCH   5  20
ATOM     20  C   UNL     1      35.075 -22.644 166.391  0.00  0.00    +0.000 C 
ATOM     21  C   UNL     1      34.142 -23.823 166.314  0.00  0.00    +0.000 C 
BRANCH  20  22
ATOM     22  C   UNL     1      34.508 -21.385 166.048  0.00  0.00    +0.000 C 
ATOM     23  C   UNL     1      33.893 -20.027 165.678  0.00  0.00    +0.000 C 
BRANCH  23  24
ATOM     24  C   UNL     1      33.312 -18.772 165.321  0.00  0.00    +0.000 C 
ATOM     25  C   UNL     1      32.189 -18.230 166.055  0.00  0.00    +0.000 C 
ATOM     26  C   UNL     1      31.510 -16.927 165.694  0.00  0.00    +0.000 C 
ATOM     27  C   UNL     1      31.589 -18.922 167.262  0.00  0.00    +0.000 C 
BRANCH  24  28
ATOM     28  C   UNL     1      33.846 -18.042 164.225  0.00  0.00    +0.000 C 
ATOM     29  C   UNL     1      34.393 -17.196 163.070  0.00  0.00    +0.000 C 
ENDBRANCH  24  28
ENDBRANCH  23  24
ENDBRANCH  20  22
ENDBRANCH   5  20
BRANCH  19  30
ATOM     30  O   UNL     1      43.903 -19.286 171.635  0.00  0.00    +0.000 OA
BRANCH  30  32
ATOM     31  O   UNL     1      45.573 -20.477 172.730  0.00  0.00    +0.000 OA
ATOM     32  C   UNL     1      44.402 -20.232 172.483  0.00  0.00    +0.000 C 
BRANCH  32  33
ATOM     33  C   UNL     1      43.347 -20.960 173.144  0.00  0.00    +0.000 C 
ATOM     34  C   UNL     1      42.473 -21.560 173.711  0.00  0.00    +0.000 C 
BRANCH  34  35
ATOM     35  C   UNL     1      41.445 -22.266 174.401  0.00  0.00    +0.000 A 
ATOM     36  C   UNL     1      40.530 -21.564 175.185  0.00  0.00    +0.000 A 
ATOM     37  C   UNL     1      41.359 -23.652 174.297  0.00  0.00    +0.000 A 
ATOM     38  C   UNL     1      39.518 -22.239 175.874  0.00  0.00    +0.000 A 
ATOM     39  C   UNL     1      40.355 -24.337 174.978  0.00  0.00    +0.000 A 
ATOM     40  C   UNL     1      39.444 -23.629 175.761  0.00  0.00    +0.000 A 
BRANCH  38  41
ATOM     41  O   UNL     1      38.580 -21.625 176.667  0.00  0.00    +0.000 OA
ATOM     42  C   UNL     1      38.165 -20.353 176.240  0.00  0.00    +0.000 C 
ENDBRANCH  38  41
BRANCH  40  43
ATOM     43  O   UNL     1      38.462 -24.308 176.429  0.00  0.00    +0.000 OA
ATOM     44  H   UNL     1      37.827 -23.662 176.792  0.00  0.00    +0.000 HD
ENDBRANCH  40  43
ENDBRANCH  34  35
ENDBRANCH  32  33
ENDBRANCH  30  32
ENDBRANCH  19  30
TORSDOF 10
ENDMDL
MODEL 3
REMARK VINA RESULT:      -7.9     36.111     38.908
REMARK  Name = 91746246_sitosterol.pdbqt.pdb
REMARK  10 active torsions:
REMARK  status: ('A' for Active; 'I' for Inactive)
REMARK    1  A    between atoms: C_5  and  C_20
REMARK    2  A    between atoms: C_19  and  O_30
REMARK    3  A    between atoms: C_20  and  C_22
REMARK    4  A    between atoms: C_23  and  C_24
REMARK    5  A    between atoms: C_24  and  C_28
REMARK    6  A    between atoms: O_30  and  C_32
REMARK    7  A    between atoms: C_32  and  C_33
REMARK    8  A    between atoms: C_34  and  C_35
REMARK    9  A    between atoms: C_38  and  O_41
REMARK   10  A    between atoms: C_40  and  O_43
REMARK                            x       y       z     vdW  Elec       q    Type
REMARK                         _______ _______ _______ _____ _____    ______ ____
ROOT
ATOM      1  C   UNL     1      40.409 -21.579 170.925  0.00  0.00    +0.000 C 
ATOM      2  C   UNL     1      40.219 -20.757 169.541  0.00  0.00    +0.000 C 
ATOM      3  C   UNL     1      39.159 -21.085 168.568  0.00  0.00    +0.000 C 
ATOM      4  C   UNL     1      37.987 -22.003 168.810  0.00  0.00    +0.000 C 
ATOM      5  C   UNL     1      40.662 -20.478 171.947  0.00  0.00    +0.000 C 
ATOM      6  C   UNL     1      39.151 -22.305 171.097  0.00  0.00    +0.000 C 
ATOM      7  C   UNL     1      36.930 -22.354 167.730  0.00  0.00    +0.000 C 
ATOM      8  C   UNL     1      40.554 -19.392 169.809  0.00  0.00    +0.000 C 
ATOM      9  C   UNL     1      38.022 -22.541 170.124  0.00  0.00    +0.000 C 
ATOM     10  C   UNL     1      40.796 -19.223 171.284  0.00  0.00    +0.000 C 
ATOM     11  C   UNL     1      39.075 -20.411 167.324  0.00  0.00    +0.000 C 
ATOM     12  C   UNL     1      41.660 -22.481 170.748  0.00  0.00    +0.000 C 
ATOM     13  C   UNL     1      36.909 -21.313 166.449  0.00  0.00    +0.000 C 
ATOM     14  C   UNL     1      35.553 -22.246 168.295  0.00  0.00    +0.000 C 
ATOM     15  C   UNL     1      37.958 -20.558 166.334  0.00  0.00    +0.000 C 
ATOM     16  C   UNL     1      37.223 -23.775 167.165  0.00  0.00    +0.000 C 
ATOM     17  C   UNL     1      35.623 -20.723 166.152  0.00  0.00    +0.000 C 
ATOM     18  C   UNL     1      34.279 -21.501 167.864  0.00  0.00    +0.000 C 
ATOM     19  C   UNL     1      34.289 -20.673 166.690  0.00  0.00    +0.000 C 
ENDROOT
BRANCH   5  20
ATOM     20  C   UNL     1      40.976 -20.714 173.320  0.00  0.00    +0.000 C 
ATOM     21  C   UNL     1      41.574 -19.651 174.202  0.00  0.00    +0.000 C 
BRANCH  20  22
ATOM     22  C   UNL     1      40.976 -22.032 173.856  0.00  0.00    +0.000 C 
ATOM     23  C   UNL     1      40.976 -23.454 174.437  0.00  0.00    +0.000 C 
BRANCH  23  24
ATOM     24  C   UNL     1      40.991 -24.772 174.985  0.00  0.00    +0.000 C 
ATOM     25  C   UNL     1      39.871 -25.280 175.749  0.00  0.00    +0.000 C 
ATOM     26  C   UNL     1      39.852 -26.652 176.386  0.00  0.00    +0.000 C 
ATOM     27  C   UNL     1      38.606 -24.478 175.977  0.00  0.00    +0.000 C 
BRANCH  24  28
ATOM     28  C   UNL     1      42.126 -25.601 174.779  0.00  0.00    +0.000 C 
ATOM     29  C   UNL     1      43.389 -26.438 174.547  0.00  0.00    +0.000 C 
ENDBRANCH  24  28
ENDBRANCH  23  24
ENDBRANCH  20  22
ENDBRANCH   5  20
BRANCH  19  30
ATOM     30  O   UNL     1      33.217 -20.684 165.802  0.00  0.00    +0.000 OA
BRANCH  30  32
ATOM     31  O   UNL     1      32.571 -18.460 166.005  0.00  0.00    +0.000 OA
ATOM     32  C   UNL     1      32.349 -19.660 166.049  0.00  0.00    +0.000 C 
BRANCH  32  33
ATOM     33  C   UNL     1      31.029 -20.150 166.362  0.00  0.00    +0.000 C 
ATOM     34  C   UNL     1      29.928 -20.545 166.636  0.00  0.00    +0.000 C 
BRANCH  34  35
ATOM     35  C   UNL     1      28.619 -20.999 166.975  0.00  0.00    +0.000 A 
ATOM     36  C   UNL     1      28.454 -22.252 167.564  0.00  0.00    +0.000 A 
ATOM     37  C   UNL     1      27.512 -20.198 166.712  0.00  0.00    +0.000 A 
ATOM     38  C   UNL     1      27.179 -22.718 167.899  0.00  0.00    +0.000 A 
ATOM     39  C   UNL     1      26.236 -20.650 167.040  0.00  0.00    +0.000 A 
ATOM     40  C   UNL     1      26.076 -21.904 167.629  0.00  0.00    +0.000 A 
BRANCH  38  41
ATOM     41  O   UNL     1      26.929 -23.937 168.480  0.00  0.00    +0.000 OA
ATOM     42  C   UNL     1      28.029 -24.805 168.564  0.00  0.00    +0.000 C 
ENDBRANCH  38  41
BRANCH  40  43
ATOM     43  O   UNL     1      24.820 -22.343 167.947  0.00  0.00    +0.000 OA
ATOM     44  H   UNL     1      24.559 -21.951 168.802  0.00  0.00    +0.000 HD
ENDBRANCH  40  43
ENDBRANCH  34  35
ENDBRANCH  32  33
ENDBRANCH  30  32
ENDBRANCH  19  30
TORSDOF 10
ENDMDL
MODEL 4
REMARK VINA RESULT:      -7.8     29.463     33.617
REMARK  Name = 91746246_sitosterol.pdbqt.pdb
REMARK  10 active torsions:
REMARK  status: ('A' for Active; 'I' for Inactive)
REMARK    1  A    between atoms: C_5  and  C_20
REMARK    2  A    between atoms: C_19  and  O_30
REMARK    3  A    between atoms: C_20  and  C_22
REMARK    4  A    between atoms: C_23  and  C_24
REMARK    5  A    between atoms: C_24  and  C_28
REMARK    6  A    between atoms: O_30  and  C_32
REMARK    7  A    between atoms: C_32  and  C_33
REMARK    8  A    between atoms: C_34  and  C_35
REMARK    9  A    between atoms: C_38  and  O_41
REMARK   10  A    between atoms: C_40  and  O_43
REMARK                            x       y       z     vdW  Elec       q    Type
REMARK                         _______ _______ _______ _____ _____    ______ ____
ROOT
ATOM      1  C   UNL     1      42.086   4.515 174.748  0.00  0.00    +0.000 C 
ATOM      2  C   UNL     1      40.544   4.179 174.379  0.00  0.00    +0.000 C 
ATOM      3  C   UNL     1      39.861   4.785 173.219  0.00  0.00    +0.000 C 
ATOM      4  C   UNL     1      40.523   5.556 172.104  0.00  0.00    +0.000 C 
ATOM      5  C   UNL     1      42.661   3.147 175.095  0.00  0.00    +0.000 C 
ATOM      6  C   UNL     1      42.630   5.125 173.536  0.00  0.00    +0.000 C 
ATOM      7  C   UNL     1      39.747   6.218 170.936  0.00  0.00    +0.000 C 
ATOM      8  C   UNL     1      40.315   2.807 174.713  0.00  0.00    +0.000 C 
ATOM      9  C   UNL     1      41.926   5.643 172.305  0.00  0.00    +0.000 C 
ATOM     10  C   UNL     1      41.618   2.175 175.123  0.00  0.00    +0.000 C 
ATOM     11  C   UNL     1      38.485   4.547 172.974  0.00  0.00    +0.000 C 
ATOM     12  C   UNL     1      42.062   5.446 175.989  0.00  0.00    +0.000 C 
ATOM     13  C   UNL     1      38.211   5.646 170.741  0.00  0.00    +0.000 C 
ATOM     14  C   UNL     1      40.406   5.910 169.632  0.00  0.00    +0.000 C 
ATOM     15  C   UNL     1      37.735   4.986 171.752  0.00  0.00    +0.000 C 
ATOM     16  C   UNL     1      39.640   7.750 171.192  0.00  0.00    +0.000 C 
ATOM     17  C   UNL     1      37.895   5.162 169.416  0.00  0.00    +0.000 C 
ATOM     18  C   UNL     1      39.912   5.322 168.301  0.00  0.00    +0.000 C 
ATOM     19  C   UNL     1      38.542   4.918 168.154  0.00  0.00    +0.000 C 
ENDROOT
BRANCH   5  20
ATOM     20  C   UNL     1      43.989   2.933 175.575  0.00  0.00    +0.000 C 
ATOM     21  C   UNL     1      45.092   2.422 174.687  0.00  0.00    +0.000 C 
BRANCH  20  22
ATOM     22  C   UNL     1      44.276   2.951 176.968  0.00  0.00    +0.000 C 
ATOM     23  C   UNL     1      44.585   2.970 178.473  0.00  0.00    +0.000 C 
BRANCH  23  24
ATOM     24  C   UNL     1      44.855   2.992 179.875  0.00  0.00    +0.000 C 
ATOM     25  C   UNL     1      46.204   2.854 180.381  0.00  0.00    +0.000 C 
ATOM     26  C   UNL     1      46.541   2.829 181.855  0.00  0.00    +0.000 C 
ATOM     27  C   UNL     1      47.409   2.726 179.472  0.00  0.00    +0.000 C 
BRANCH  24  28
ATOM     28  C   UNL     1      43.781   3.150 180.791  0.00  0.00    +0.000 C 
ATOM     29  C   UNL     1      42.652   3.274 181.821  0.00  0.00    +0.000 C 
ENDBRANCH  24  28
ENDBRANCH  23  24
ENDBRANCH  20  22
ENDBRANCH   5  20
BRANCH  19  30
ATOM     30  O   UNL     1      37.839   5.196 166.985  0.00  0.00    +0.000 OA
BRANCH  30  32
ATOM     31  O   UNL     1      38.949   3.925 165.386  0.00  0.00    +0.000 OA
ATOM     32  C   UNL     1      37.972   4.195 166.068  0.00  0.00    +0.000 C 
BRANCH  32  33
ATOM     33  C   UNL     1      36.776   3.393 165.983  0.00  0.00    +0.000 C 
ATOM     34  C   UNL     1      35.778   2.730 165.894  0.00  0.00    +0.000 C 
BRANCH  34  35
ATOM     35  C   UNL     1      34.592   1.948 165.770  0.00  0.00    +0.000 A 
ATOM     36  C   UNL     1      33.387   2.435 166.274  0.00  0.00    +0.000 A 
ATOM     37  C   UNL     1      34.639   0.701 165.153  0.00  0.00    +0.000 A 
ATOM     38  C   UNL     1      32.214   1.682 166.168  0.00  0.00    +0.000 A 
ATOM     39  C   UNL     1      33.478  -0.061 165.040  0.00  0.00    +0.000 A 
ATOM     40  C   UNL     1      32.276   0.431 165.547  0.00  0.00    +0.000 A 
BRANCH  38  41
ATOM     41  O   UNL     1      30.989   2.086 166.639  0.00  0.00    +0.000 OA
ATOM     42  C   UNL     1      30.742   1.815 167.994  0.00  0.00    +0.000 C 
ENDBRANCH  38  41
BRANCH  40  43
ATOM     43  O   UNL     1      31.140  -0.322 165.435  0.00  0.00    +0.000 OA
ATOM     44  H   UNL     1      31.197  -0.854 164.619  0.00  0.00    +0.000 HD
ENDBRANCH  40  43
ENDBRANCH  34  35
ENDBRANCH  32  33
ENDBRANCH  30  32
ENDBRANCH  19  30
TORSDOF 10
ENDMDL
MODEL 5
REMARK VINA RESULT:      -7.8     41.090     45.988
REMARK  Name = 91746246_sitosterol.pdbqt.pdb
REMARK  10 active torsions:
REMARK  status: ('A' for Active; 'I' for Inactive)
REMARK    1  A    between atoms: C_5  and  C_20
REMARK    2  A    between atoms: C_19  and  O_30
REMARK    3  A    between atoms: C_20  and  C_22
REMARK    4  A    between atoms: C_23  and  C_24
REMARK    5  A    between atoms: C_24  and  C_28
REMARK    6  A    between atoms: O_30  and  C_32
REMARK    7  A    between atoms: C_32  and  C_33
REMARK    8  A    between atoms: C_34  and  C_35
REMARK    9  A    between atoms: C_38  and  O_41
REMARK   10  A    between atoms: C_40  and  O_43
REMARK                            x       y       z     vdW  Elec       q    Type
REMARK                         _______ _______ _______ _____ _____    ______ ____
ROOT
ATOM      1  C   UNL     1      45.965 -24.679 170.921  0.00  0.00    +0.000 C 
ATOM      2  C   UNL     1      47.347 -25.445 171.282  0.00  0.00    +0.000 C 
ATOM      3  C   UNL     1      48.651 -24.753 171.297  0.00  0.00    +0.000 C 
ATOM      4  C   UNL     1      48.863 -23.260 171.246  0.00  0.00    +0.000 C 
ATOM      5  C   UNL     1      44.992 -25.215 171.963  0.00  0.00    +0.000 C 
ATOM      6  C   UNL     1      46.287 -23.258 171.049  0.00  0.00    +0.000 C 
ATOM      7  C   UNL     1      50.261 -22.590 171.211  0.00  0.00    +0.000 C 
ATOM      8  C   UNL     1      47.041 -26.427 172.276  0.00  0.00    +0.000 C 
ATOM      9  C   UNL     1      47.624 -22.570 171.174  0.00  0.00    +0.000 C 
ATOM     10  C   UNL     1      45.609 -26.263 172.708  0.00  0.00    +0.000 C 
ATOM     11  C   UNL     1      49.854 -25.466 171.524  0.00  0.00    +0.000 C 
ATOM     12  C   UNL     1      45.560 -25.125 169.491  0.00  0.00    +0.000 C 
ATOM     13  C   UNL     1      51.493 -23.580 171.688  0.00  0.00    +0.000 C 
ATOM     14  C   UNL     1      50.321 -21.459 172.183  0.00  0.00    +0.000 C 
ATOM     15  C   UNL     1      51.206 -24.846 171.709  0.00  0.00    +0.000 C 
ATOM     16  C   UNL     1      50.575 -22.131 169.757  0.00  0.00    +0.000 C 
ATOM     17  C   UNL     1      52.326 -23.064 172.751  0.00  0.00    +0.000 C 
ATOM     18  C   UNL     1      51.280 -21.085 173.326  0.00  0.00    +0.000 C 
ATOM     19  C   UNL     1      52.389 -21.939 173.647  0.00  0.00    +0.000 C 
ENDROOT
BRANCH   5  20
ATOM     20  C   UNL     1      43.601 -24.896 172.003  0.00  0.00    +0.000 C 
ATOM     21  C   UNL     1      42.545 -25.833 171.481  0.00  0.00    +0.000 C 
BRANCH  20  22
ATOM     22  C   UNL     1      43.160 -23.578 172.307  0.00  0.00    +0.000 C 
ATOM     23  C   UNL     1      42.686 -22.154 172.637  0.00  0.00    +0.000 C 
BRANCH  23  24
ATOM     24  C   UNL     1      42.241 -20.837 172.960  0.00  0.00    +0.000 C 
ATOM     25  C   UNL     1      41.768 -20.510 174.289  0.00  0.00    +0.000 C 
ATOM     26  C   UNL     1      41.248 -19.143 174.673  0.00  0.00    +0.000 C 
ATOM     27  C   UNL     1      41.756 -21.515 175.423  0.00  0.00    +0.000 C 
BRANCH  24  28
ATOM     28  C   UNL     1      42.261 -19.828 171.960  0.00  0.00    +0.000 C 
ATOM     29  C   UNL     1      42.303 -18.693 170.930  0.00  0.00    +0.000 C 
ENDBRANCH  24  28
ENDBRANCH  23  24
ENDBRANCH  20  22
ENDBRANCH   5  20
BRANCH  19  30
ATOM     30  O   UNL     1      53.637 -21.401 173.946  0.00  0.00    +0.000 OA
BRANCH  30  32
ATOM     31  O   UNL     1      53.179 -19.721 175.487  0.00  0.00    +0.000 OA
ATOM     32  C   UNL     1      53.538 -20.113 174.387  0.00  0.00    +0.000 C 
BRANCH  32  33
ATOM     33  C   UNL     1      53.955 -19.175 173.375  0.00  0.00    +0.000 C 
ATOM     34  C   UNL     1      54.311 -18.407 172.522  0.00  0.00    +0.000 C 
BRANCH  34  35
ATOM     35  C   UNL     1      54.741 -17.510 171.500  0.00  0.00    +0.000 A 
ATOM     36  C   UNL     1      54.823 -16.144 171.767  0.00  0.00    +0.000 A 
ATOM     37  C   UNL     1      55.072 -17.996 170.238  0.00  0.00    +0.000 A 
ATOM     38  C   UNL     1      55.237 -15.249 170.778  0.00  0.00    +0.000 A 
ATOM     39  C   UNL     1      55.486 -17.115 169.242  0.00  0.00    +0.000 A 
ATOM     40  C   UNL     1      55.565 -15.750 169.516  0.00  0.00    +0.000 A 
BRANCH  38  41
ATOM     41  O   UNL     1      55.343 -13.891 170.958  0.00  0.00    +0.000 OA
ATOM     42  C   UNL     1      56.352 -13.474 171.840  0.00  0.00    +0.000 C 
ENDBRANCH  38  41
BRANCH  40  43
ATOM     43  O   UNL     1      55.971 -14.889 168.533  0.00  0.00    +0.000 OA
ATOM     44  H   UNL     1      55.222 -14.731 167.928  0.00  0.00    +0.000 HD
ENDBRANCH  40  43
ENDBRANCH  34  35
ENDBRANCH  32  33
ENDBRANCH  30  32
ENDBRANCH  19  30
TORSDOF 10
ENDMDL
MODEL 6
REMARK VINA RESULT:      -7.5     16.732     21.932
REMARK  Name = 91746246_sitosterol.pdbqt.pdb
REMARK  10 active torsions:
REMARK  status: ('A' for Active; 'I' for Inactive)
REMARK    1  A    between atoms: C_5  and  C_20
REMARK    2  A    between atoms: C_19  and  O_30
REMARK    3  A    between atoms: C_20  and  C_22
REMARK    4  A    between atoms: C_23  and  C_24
REMARK    5  A    between atoms: C_24  and  C_28
REMARK    6  A    between atoms: O_30  and  C_32
REMARK    7  A    between atoms: C_32  and  C_33
REMARK    8  A    between atoms: C_34  and  C_35
REMARK    9  A    between atoms: C_38  and  O_41
REMARK   10  A    between atoms: C_40  and  O_43
REMARK                            x       y       z     vdW  Elec       q    Type
REMARK                         _______ _______ _______ _____ _____    ______ ____
ROOT
ATOM      1  C   UNL     1      13.321 -18.775 190.024  0.00  0.00    +0.000 C 
ATOM      2  C   UNL     1      12.833 -19.610 188.724  0.00  0.00    +0.000 C 
ATOM      3  C   UNL     1      12.130 -18.970 187.593  0.00  0.00    +0.000 C 
ATOM      4  C   UNL     1      12.000 -17.486 187.358  0.00  0.00    +0.000 C 
ATOM      5  C   UNL     1      14.719 -19.326 190.281  0.00  0.00    +0.000 C 
ATOM      6  C   UNL     1      13.277 -17.376 189.601  0.00  0.00    +0.000 C 
ATOM      7  C   UNL     1      11.203 -16.868 186.179  0.00  0.00    +0.000 C 
ATOM      8  C   UNL     1      13.808 -20.629 188.481  0.00  0.00    +0.000 C 
ATOM      9  C   UNL     1      12.647 -16.746 188.383  0.00  0.00    +0.000 C 
ATOM     10  C   UNL     1      14.970 -20.433 189.417  0.00  0.00    +0.000 C 
ATOM     11  C   UNL     1      11.632 -19.739 186.513  0.00  0.00    +0.000 C 
ATOM     12  C   UNL     1      12.354 -19.134 191.183  0.00  0.00    +0.000 C 
ATOM     13  C   UNL     1      10.890 -17.927 184.953  0.00  0.00    +0.000 C 
ATOM     14  C   UNL     1      11.998 -15.790 185.521  0.00  0.00    +0.000 C 
ATOM     15  C   UNL     1      11.041 -19.181 185.253  0.00  0.00    +0.000 C 
ATOM     16  C   UNL     1       9.831 -16.350 186.702  0.00  0.00    +0.000 C 
ATOM     17  C   UNL     1      11.316 -17.497 183.640  0.00  0.00    +0.000 C 
ATOM     18  C   UNL     1      12.417 -15.511 184.068  0.00  0.00    +0.000 C 
ATOM     19  C   UNL     1      12.045 -16.421 183.021  0.00  0.00    +0.000 C 
ENDROOT
BRANCH   5  20
ATOM     20  C   UNL     1      15.536 -18.957 191.392  0.00  0.00    +0.000 C 
ATOM     21  C   UNL     1      16.330 -19.966 192.177  0.00  0.00    +0.000 C 
BRANCH  20  22
ATOM     22  C   UNL     1      15.446 -17.659 191.968  0.00  0.00    +0.000 C 
ATOM     23  C   UNL     1      15.352 -16.257 192.590  0.00  0.00    +0.000 C 
BRANCH  23  24
ATOM     24  C   UNL     1      15.273 -14.961 193.183  0.00  0.00    +0.000 C 
ATOM     25  C   UNL     1      14.965 -13.791 192.388  0.00  0.00    +0.000 C 
ATOM     26  C   UNL     1      14.910 -12.390 192.956  0.00  0.00    +0.000 C 
ATOM     27  C   UNL     1      14.665 -13.865 190.905  0.00  0.00    +0.000 C 
BRANCH  24  28
ATOM     28  C   UNL     1      15.502 -14.815 194.577  0.00  0.00    +0.000 C 
ATOM     29  C   UNL     1      15.732 -14.724 196.090  0.00  0.00    +0.000 C 
ENDBRANCH  24  28
ENDBRANCH  23  24
ENDBRANCH  20  22
ENDBRANCH   5  20
BRANCH  19  30
ATOM     30  O   UNL     1      11.606 -15.947 181.788  0.00  0.00    +0.000 OA
BRANCH  30  32
ATOM     31  O   UNL     1      13.027 -14.363 180.850  0.00  0.00    +0.000 OA
ATOM     32  C   UNL     1      12.646 -15.512 181.018  0.00  0.00    +0.000 C 
BRANCH  32  33
ATOM     33  C   UNL     1      13.336 -16.611 180.391  0.00  0.00    +0.000 C 
ATOM     34  C   UNL     1      13.924 -17.527 179.882  0.00  0.00    +0.000 C 
BRANCH  34  35
ATOM     35  C   UNL     1      14.634 -18.614 179.292  0.00  0.00    +0.000 A 
ATOM     36  C   UNL     1      13.976 -19.817 179.042  0.00  0.00    +0.000 A 
ATOM     37  C   UNL     1      15.982 -18.475 178.972  0.00  0.00    +0.000 A 
ATOM     38  C   UNL     1      14.656 -20.895 178.470  0.00  0.00    +0.000 A 
ATOM     39  C   UNL     1      16.673 -19.541 178.402  0.00  0.00    +0.000 A 
ATOM     40  C   UNL     1      16.009 -20.742 178.155  0.00  0.00    +0.000 A 
BRANCH  38  41
ATOM     41  O   UNL     1      14.085 -22.113 178.194  0.00  0.00    +0.000 OA
ATOM     42  C   UNL     1      13.349 -22.688 179.243  0.00  0.00    +0.000 C 
ENDBRANCH  38  41
BRANCH  40  43
ATOM     43  O   UNL     1      16.694 -21.787 177.596  0.00  0.00    +0.000 OA
ATOM     44  H   UNL     1      16.464 -22.604 178.078  0.00  0.00    +0.000 HD
ENDBRANCH  40  43
ENDBRANCH  34  35
ENDBRANCH  32  33
ENDBRANCH  30  32
ENDBRANCH  19  30
TORSDOF 10
ENDMDL
MODEL 7
REMARK VINA RESULT:      -7.5     35.378     40.059
REMARK  Name = 91746246_sitosterol.pdbqt.pdb
REMARK  10 active torsions:
REMARK  status: ('A' for Active; 'I' for Inactive)
REMARK    1  A    between atoms: C_5  and  C_20
REMARK    2  A    between atoms: C_19  and  O_30
REMARK    3  A    between atoms: C_20  and  C_22
REMARK    4  A    between atoms: C_23  and  C_24
REMARK    5  A    between atoms: C_24  and  C_28
REMARK    6  A    between atoms: O_30  and  C_32
REMARK    7  A    between atoms: C_32  and  C_33
REMARK    8  A    between atoms: C_34  and  C_35
REMARK    9  A    between atoms: C_38  and  O_41
REMARK   10  A    between atoms: C_40  and  O_43
REMARK                            x       y       z     vdW  Elec       q    Type
REMARK                         _______ _______ _______ _____ _____    ______ ____
ROOT
ATOM      1  C   UNL     1      55.947  -6.413 183.351  0.00  0.00    +0.000 C 
ATOM      2  C   UNL     1      56.310  -7.960 183.670  0.00  0.00    +0.000 C 
ATOM      3  C   UNL     1      55.933  -8.613 184.940  0.00  0.00    +0.000 C 
ATOM      4  C   UNL     1      54.977  -8.063 185.969  0.00  0.00    +0.000 C 
ATOM      5  C   UNL     1      55.471  -6.464 181.904  0.00  0.00    +0.000 C 
ATOM      6  C   UNL     1      54.917  -6.067 184.329  0.00  0.00    +0.000 C 
ATOM      7  C   UNL     1      54.659  -8.769 187.313  0.00  0.00    +0.000 C 
ATOM      8  C   UNL     1      56.224  -8.681 182.438  0.00  0.00    +0.000 C 
ATOM      9  C   UNL     1      54.465  -6.800 185.568  0.00  0.00    +0.000 C 
ATOM     10  C   UNL     1      55.684  -7.769 181.369  0.00  0.00    +0.000 C 
ATOM     11  C   UNL     1      56.345  -9.937 185.232  0.00  0.00    +0.000 C 
ATOM     12  C   UNL     1      57.264  -5.603 183.481  0.00  0.00    +0.000 C 
ATOM     13  C   UNL     1      55.077 -10.365 187.348  0.00  0.00    +0.000 C 
ATOM     14  C   UNL     1      53.186  -8.784 187.558  0.00  0.00    +0.000 C 
ATOM     15  C   UNL     1      55.896 -10.742 186.414  0.00  0.00    +0.000 C 
ATOM     16  C   UNL     1      55.437  -8.063 188.461  0.00  0.00    +0.000 C 
ATOM     17  C   UNL     1      54.015 -11.275 187.715  0.00  0.00    +0.000 C 
ATOM     18  C   UNL     1      52.173  -9.891 187.890  0.00  0.00    +0.000 C 
ATOM     19  C   UNL     1      52.603 -11.258 187.994  0.00  0.00    +0.000 C 
ENDROOT
BRANCH   5  20
ATOM     20  C   UNL     1      55.116  -5.315 181.135  0.00  0.00    +0.000 C 
ATOM     21  C   UNL     1      56.091  -4.630 180.215  0.00  0.00    +0.000 C 
BRANCH  20  22
ATOM     22  C   UNL     1      53.906  -4.610 181.386  0.00  0.00    +0.000 C 
ATOM     23  C   UNL     1      52.598  -3.852 181.658  0.00  0.00    +0.000 C 
BRANCH  23  24
ATOM     24  C   UNL     1      51.373  -3.159 181.900  0.00  0.00    +0.000 C 
ATOM     25  C   UNL     1      51.130  -2.486 183.158  0.00  0.00    +0.000 C 
ATOM     26  C   UNL     1      49.836  -1.773 183.483  0.00  0.00    +0.000 C 
ATOM     27  C   UNL     1      52.158  -2.432 184.270  0.00  0.00    +0.000 C 
BRANCH  24  28
ATOM     28  C   UNL     1      50.375  -3.129 180.890  0.00  0.00    +0.000 C 
ATOM     29  C   UNL     1      49.258  -3.139 179.840  0.00  0.00    +0.000 C 
ENDBRANCH  24  28
ENDBRANCH  23  24
ENDBRANCH  20  22
ENDBRANCH   5  20
BRANCH  19  30
ATOM     30  O   UNL     1      52.119 -12.081 189.006  0.00  0.00    +0.000 OA
BRANCH  30  32
ATOM     31  O   UNL     1      50.283 -13.393 188.441  0.00  0.00    +0.000 OA
ATOM     32  C   UNL     1      51.485 -13.179 188.500  0.00  0.00    +0.000 C 
BRANCH  32  33
ATOM     33  C   UNL     1      52.426 -14.134 187.968  0.00  0.00    +0.000 C 
ATOM     34  C   UNL     1      53.196 -14.937 187.515  0.00  0.00    +0.000 C 
BRANCH  34  35
ATOM     35  C   UNL     1      54.095 -15.899 186.967  0.00  0.00    +0.000 A 
ATOM     36  C   UNL     1      55.065 -15.496 186.051  0.00  0.00    +0.000 A 
ATOM     37  C   UNL     1      53.999 -17.237 187.340  0.00  0.00    +0.000 A 
ATOM     38  C   UNL     1      55.952 -16.424 185.499  0.00  0.00    +0.000 A 
ATOM     39  C   UNL     1      54.876 -18.173 186.797  0.00  0.00    +0.000 A 
ATOM     40  C   UNL     1      55.844 -17.763 185.882  0.00  0.00    +0.000 A 
BRANCH  38  41
ATOM     41  O   UNL     1      56.934 -16.111 184.590  0.00  0.00    +0.000 OA
ATOM     42  C   UNL     1      57.566 -14.872 184.785  0.00  0.00    +0.000 C 
ENDBRANCH  38  41
BRANCH  40  43
ATOM     43  O   UNL     1      56.701 -18.688 185.350  0.00  0.00    +0.000 OA
ATOM     44  H   UNL     1      56.337 -19.579 185.508  0.00  0.00    +0.000 HD
ENDBRANCH  40  43
ENDBRANCH  34  35
ENDBRANCH  32  33
ENDBRANCH  30  32
ENDBRANCH  19  30
TORSDOF 10
ENDMDL
MODEL 8
REMARK VINA RESULT:      -7.5     36.609     40.184
REMARK  Name = 91746246_sitosterol.pdbqt.pdb
REMARK  10 active torsions:
REMARK  status: ('A' for Active; 'I' for Inactive)
REMARK    1  A    between atoms: C_5  and  C_20
REMARK    2  A    between atoms: C_19  and  O_30
REMARK    3  A    between atoms: C_20  and  C_22
REMARK    4  A    between atoms: C_23  and  C_24
REMARK    5  A    between atoms: C_24  and  C_28
REMARK    6  A    between atoms: O_30  and  C_32
REMARK    7  A    between atoms: C_32  and  C_33
REMARK    8  A    between atoms: C_34  and  C_35
REMARK    9  A    between atoms: C_38  and  O_41
REMARK   10  A    between atoms: C_40  and  O_43
REMARK                            x       y       z     vdW  Elec       q    Type
REMARK                         _______ _______ _______ _____ _____    ______ ____
ROOT
ATOM      1  C   UNL     1      42.543 -21.143 167.773  0.00  0.00    +0.000 C 
ATOM      2  C   UNL     1      43.502 -21.407 169.052  0.00  0.00    +0.000 C 
ATOM      3  C   UNL     1      43.102 -21.043 170.426  0.00  0.00    +0.000 C 
ATOM      4  C   UNL     1      41.717 -20.638 170.868  0.00  0.00    +0.000 C 
ATOM      5  C   UNL     1      42.676 -22.432 166.971  0.00  0.00    +0.000 C 
ATOM      6  C   UNL     1      41.219 -20.907 168.347  0.00  0.00    +0.000 C 
ATOM      7  C   UNL     1      41.367 -20.213 172.318  0.00  0.00    +0.000 C 
ATOM      8  C   UNL     1      44.211 -22.626 168.808  0.00  0.00    +0.000 C 
ATOM      9  C   UNL     1      40.810 -20.643 169.775  0.00  0.00    +0.000 C 
ATOM     10  C   UNL     1      43.682 -23.261 167.551  0.00  0.00    +0.000 C 
ATOM     11  C   UNL     1      43.997 -21.198 171.513  0.00  0.00    +0.000 C 
ATOM     12  C   UNL     1      43.139 -19.937 167.000  0.00  0.00    +0.000 C 
ATOM     13  C   UNL     1      42.490 -20.662 173.440  0.00  0.00    +0.000 C 
ATOM     14  C   UNL     1      40.120 -20.895 172.773  0.00  0.00    +0.000 C 
ATOM     15  C   UNL     1      43.646 -21.003 172.958  0.00  0.00    +0.000 C 
ATOM     16  C   UNL     1      41.244 -18.662 172.383  0.00  0.00    +0.000 C 
ATOM     17  C   UNL     1      41.979 -21.425 174.556  0.00  0.00    +0.000 C 
ATOM     18  C   UNL     1      39.757 -21.743 174.004  0.00  0.00    +0.000 C 
ATOM     19  C   UNL     1      40.752 -22.035 174.998  0.00  0.00    +0.000 C 
ENDROOT
BRANCH   5  20
ATOM     20  C   UNL     1      42.076 -22.651 165.695  0.00  0.00    +0.000 C 
ATOM     21  C   UNL     1      42.884 -23.000 164.474  0.00  0.00    +0.000 C 
BRANCH  20  22
ATOM     22  C   UNL     1      40.716 -22.305 165.456  0.00  0.00    +0.000 C 
ATOM     23  C   UNL     1      39.248 -21.929 165.201  0.00  0.00    +0.000 C 
BRANCH  23  24
ATOM     24  C   UNL     1      37.882 -21.581 164.980  0.00  0.00    +0.000 C 
ATOM     25  C   UNL     1      37.178 -20.698 165.886  0.00  0.00    +0.000 C 
ATOM     26  C   UNL     1      35.719 -20.330 165.723  0.00  0.00    +0.000 C 
ATOM     27  C   UNL     1      37.844 -20.056 167.086  0.00  0.00    +0.000 C 
BRANCH  24  28
ATOM     28  C   UNL     1      37.198 -22.111 163.853  0.00  0.00    +0.000 C 
ATOM     29  C   UNL     1      36.509 -22.733 162.633  0.00  0.00    +0.000 C 
ENDBRANCH  24  28
ENDBRANCH  23  24
ENDBRANCH  20  22
ENDBRANCH   5  20
BRANCH  19  30
ATOM     30  O   UNL     1      40.440 -21.986 176.353  0.00  0.00    +0.000 OA
BRANCH  30  32
ATOM     31  O   UNL     1      38.310 -21.142 176.752  0.00  0.00    +0.000 OA
ATOM     32  C   UNL     1      39.093 -22.061 176.562  0.00  0.00    +0.000 C 
BRANCH  32  33
ATOM     33  C   UNL     1      38.623 -23.423 176.503  0.00  0.00    +0.000 C 
ATOM     34  C   UNL     1      38.247 -24.563 176.465  0.00  0.00    +0.000 C 
BRANCH  34  35
ATOM     35  C   UNL     1      37.816 -25.922 176.430  0.00  0.00    +0.000 A 
ATOM     36  C   UNL     1      36.603 -26.248 175.824  0.00  0.00    +0.000 A 
ATOM     37  C   UNL     1      38.600 -26.919 177.004  0.00  0.00    +0.000 A 
ATOM     38  C   UNL     1      36.161 -27.573 175.784  0.00  0.00    +0.000 A 
ATOM     39  C   UNL     1      38.171 -28.243 176.972  0.00  0.00    +0.000 A 
ATOM     40  C   UNL     1      36.957 -28.562 176.365  0.00  0.00    +0.000 A 
BRANCH  38  41
ATOM     41  O   UNL     1      34.981 -27.978 175.209  0.00  0.00    +0.000 OA
ATOM     42  C   UNL     1      34.121 -26.945 174.801  0.00  0.00    +0.000 C 
ENDBRANCH  38  41
BRANCH  40  43
ATOM     43  O   UNL     1      36.540 -29.865 176.338  0.00  0.00    +0.000 OA
ATOM     44  H   UNL     1      35.812 -29.974 176.979  0.00  0.00    +0.000 HD
ENDBRANCH  40  43
ENDBRANCH  34  35
ENDBRANCH  32  33
ENDBRANCH  30  32
ENDBRANCH  19  30
TORSDOF 10
ENDMDL
MODEL 9
REMARK VINA RESULT:      -7.5     27.371     31.904
REMARK  Name = 91746246_sitosterol.pdbqt.pdb
REMARK  10 active torsions:
REMARK  status: ('A' for Active; 'I' for Inactive)
REMARK    1  A    between atoms: C_5  and  C_20
REMARK    2  A    between atoms: C_19  and  O_30
REMARK    3  A    between atoms: C_20  and  C_22
REMARK    4  A    between atoms: C_23  and  C_24
REMARK    5  A    between atoms: C_24  and  C_28
REMARK    6  A    between atoms: O_30  and  C_32
REMARK    7  A    between atoms: C_32  and  C_33
REMARK    8  A    between atoms: C_34  and  C_35
REMARK    9  A    between atoms: C_38  and  O_41
REMARK   10  A    between atoms: C_40  and  O_43
REMARK                            x       y       z     vdW  Elec       q    Type
REMARK                         _______ _______ _______ _____ _____    ______ ____
ROOT
ATOM      1  C   UNL     1      46.218   5.075 182.471  0.00  0.00    +0.000 C 
ATOM      2  C   UNL     1      45.891   5.778 181.048  0.00  0.00    +0.000 C 
ATOM      3  C   UNL     1      45.890   5.025 179.777  0.00  0.00    +0.000 C 
ATOM      4  C   UNL     1      45.925   3.523 179.638  0.00  0.00    +0.000 C 
ATOM      5  C   UNL     1      45.165   5.670 183.398  0.00  0.00    +0.000 C 
ATOM      6  C   UNL     1      46.076   3.642 182.214  0.00  0.00    +0.000 C 
ATOM      7  C   UNL     1      45.976   2.786 178.274  0.00  0.00    +0.000 C 
ATOM      8  C   UNL     1      44.905   6.786 181.288  0.00  0.00    +0.000 C 
ATOM      9  C   UNL     1      45.966   2.892 180.910  0.00  0.00    +0.000 C 
ATOM     10  C   UNL     1      44.445   6.696 182.718  0.00  0.00    +0.000 C 
ATOM     11  C   UNL     1      45.694   5.683 178.538  0.00  0.00    +0.000 C 
ATOM     12  C   UNL     1      47.646   5.523 182.880  0.00  0.00    +0.000 C 
ATOM     13  C   UNL     1      45.534   3.722 176.989  0.00  0.00    +0.000 C 
ATOM     14  C   UNL     1      44.991   1.665 178.250  0.00  0.00    +0.000 C 
ATOM     15  C   UNL     1      45.525   5.000 177.214  0.00  0.00    +0.000 C 
ATOM     16  C   UNL     1      47.430   2.295 178.009  0.00  0.00    +0.000 C 
ATOM     17  C   UNL     1      44.480   3.179 176.162  0.00  0.00    +0.000 C 
ATOM     18  C   UNL     1      43.860   1.260 177.290  0.00  0.00    +0.000 C 
ATOM     19  C   UNL     1      43.570   2.064 176.135  0.00  0.00    +0.000 C 
ENDROOT
BRANCH   5  20
ATOM     20  C   UNL     1      45.096   5.418 184.801  0.00  0.00    +0.000 C 
ATOM     21  C   UNL     1      45.907   6.201 185.800  0.00  0.00    +0.000 C 
BRANCH  20  22
ATOM     22  C   UNL     1      44.452   4.255 185.306  0.00  0.00    +0.000 C 
ATOM     23  C   UNL     1      43.755   2.999 185.853  0.00  0.00    +0.000 C 
BRANCH  23  24
ATOM     24  C   UNL     1      43.110   1.839 186.378  0.00  0.00    +0.000 C 
ATOM     25  C   UNL     1      43.205   1.499 187.781  0.00  0.00    +0.000 C 
ATOM     26  C   UNL     1      42.577   0.260 188.382  0.00  0.00    +0.000 C 
ATOM     27  C   UNL     1      43.945   2.361 188.784  0.00  0.00    +0.000 C 
BRANCH  24  28
ATOM     28  C   UNL     1      42.363   1.001 185.507  0.00  0.00    +0.000 C 
ATOM     29  C   UNL     1      41.616   0.081 184.534  0.00  0.00    +0.000 C 
ENDBRANCH  24  28
ENDBRANCH  23  24
ENDBRANCH  20  22
ENDBRANCH   5  20
BRANCH  19  30
ATOM     30  O   UNL     1      43.286   1.471 174.909  0.00  0.00    +0.000 OA
BRANCH  30  32
ATOM     31  O   UNL     1      41.400   0.122 174.731  0.00  0.00    +0.000 OA
ATOM     32  C   UNL     1      41.953   1.211 174.773  0.00  0.00    +0.000 C 
BRANCH  32  33
ATOM     33  C   UNL     1      41.181   2.428 174.708  0.00  0.00    +0.000 C 
ATOM     34  C   UNL     1      40.526   3.433 174.643  0.00  0.00    +0.000 C 
BRANCH  34  35
ATOM     35  C   UNL     1      39.736   4.616 174.553  0.00  0.00    +0.000 A 
ATOM     36  C   UNL     1      38.636   4.650 173.697  0.00  0.00    +0.000 A 
ATOM     37  C   UNL     1      40.066   5.736 175.312  0.00  0.00    +0.000 A 
ATOM     38  C   UNL     1      37.852   5.803 173.591  0.00  0.00    +0.000 A 
ATOM     39  C   UNL     1      39.294   6.891 175.216  0.00  0.00    +0.000 A 
ATOM     40  C   UNL     1      38.196   6.919 174.358  0.00  0.00    +0.000 A 
BRANCH  38  41
ATOM     41  O   UNL     1      36.755   5.920 172.773  0.00  0.00    +0.000 OA
ATOM     42  C   UNL     1      36.976   5.619 171.419  0.00  0.00    +0.000 C 
ENDBRANCH  38  41
BRANCH  40  43
ATOM     43  O   UNL     1      37.443   8.057 174.266  0.00  0.00    +0.000 OA
ATOM     44  H   UNL     1      36.500   7.813 174.318  0.00  0.00    +0.000 HD
ENDBRANCH  40  43
ENDBRANCH  34  35
ENDBRANCH  32  33
ENDBRANCH  30  32
ENDBRANCH  19  30
TORSDOF 10
ENDMDL
