MODEL 1
REMARK VINA RESULT:      -4.8      0.000      0.000
REMARK  Name = 92041_2Ethoxy5fluorouracil.pdbqt.pdb
REMARK  2 active torsions:
REMARK  status: ('A' for Active; 'I' for Inactive)
REMARK    1  A    between atoms: C_5  and  O_10
REMARK    2  A    between atoms: O_10  and  C_11
REMARK                            x       y       z     vdW  Elec       q    Type
REMARK                         _______ _______ _______ _____ _____    ______ ____
ROOT
ATOM      1  F   UNL     1      18.427   2.035 191.821  0.00  0.00    +0.000 F 
ATOM      2  O   UNL     1      17.112   0.591 189.742  0.00  0.00    +0.000 OA
ATOM      3  N   UNL     1      18.121   1.988 188.221  0.00  0.00    +0.000 N 
ATOM      4  N   UNL     1      19.709   3.632 188.826  0.00  0.00    +0.000 NA
ATOM      5  C   UNL     1      18.973   3.048 187.924  0.00  0.00    +0.000 C 
ATOM      6  C   UNL     1      17.937   1.464 189.502  0.00  0.00    +0.000 C 
ATOM      7  C   UNL     1      18.822   2.085 190.538  0.00  0.00    +0.000 C 
ATOM      8  C   UNL     1      19.503   3.050 190.015  0.00  0.00    +0.000 C 
ATOM      9  H   UNL     1      17.544   1.597 187.491  0.00  0.00    +0.000 HD
ENDROOT
BRANCH   5  10
ATOM     10  O   UNL     1      18.943   3.387 186.614  0.00  0.00    +0.000 OA
BRANCH  10  11
ATOM     11  C   UNL     1      20.119   3.437 185.995  0.00  0.00    +0.000 C 
ATOM     12  C   UNL     1      21.464   3.556 185.272  0.00  0.00    +0.000 C 
ENDBRANCH  10  11
ENDBRANCH   5  10
TORSDOF 2
ENDMDL
MODEL 2
REMARK VINA RESULT:      -4.6      3.808      5.384
REMARK  Name = 92041_2Ethoxy5fluorouracil.pdbqt.pdb
REMARK  2 active torsions:
REMARK  status: ('A' for Active; 'I' for Inactive)
REMARK    1  A    between atoms: C_5  and  O_10
REMARK    2  A    between atoms: O_10  and  C_11
REMARK                            x       y       z     vdW  Elec       q    Type
REMARK                         _______ _______ _______ _____ _____    ______ ____
ROOT
ATOM      1  F   UNL     1      24.639   5.925 187.072  0.00  0.00    +0.000 F 
ATOM      2  O   UNL     1      22.278   6.167 188.652  0.00  0.00    +0.000 OA
ATOM      3  N   UNL     1      21.202   4.812 187.139  0.00  0.00    +0.000 N 
ATOM      4  N   UNL     1      22.301   3.775 185.320  0.00  0.00    +0.000 NA
ATOM      5  C   UNL     1      21.210   4.035 185.984  0.00  0.00    +0.000 C 
ATOM      6  C   UNL     1      22.336   5.417 187.687  0.00  0.00    +0.000 C 
ATOM      7  C   UNL     1      23.605   5.074 186.969  0.00  0.00    +0.000 C 
ATOM      8  C   UNL     1      23.343   4.356 185.928  0.00  0.00    +0.000 C 
ATOM      9  H   UNL     1      20.324   5.016 187.592  0.00  0.00    +0.000 HD
ENDROOT
BRANCH   5  10
ATOM     10  O   UNL     1      19.976   3.596 185.645  0.00  0.00    +0.000 OA
BRANCH  10  11
ATOM     11  C   UNL     1      19.238   3.102 186.634  0.00  0.00    +0.000 C 
ATOM     12  C   UNL     1      18.342   2.572 187.757  0.00  0.00    +0.000 C 
ENDBRANCH  10  11
ENDBRANCH   5  10
TORSDOF 2
ENDMDL
MODEL 3
REMARK VINA RESULT:      -4.1     34.777     36.018
REMARK  Name = 92041_2Ethoxy5fluorouracil.pdbqt.pdb
REMARK  2 active torsions:
REMARK  status: ('A' for Active; 'I' for Inactive)
REMARK    1  A    between atoms: C_5  and  O_10
REMARK    2  A    between atoms: O_10  and  C_11
REMARK                            x       y       z     vdW  Elec       q    Type
REMARK                         _______ _______ _______ _____ _____    ______ ____
ROOT
ATOM      1  F   UNL     1      43.249 -19.975 169.767  0.00  0.00    +0.000 F 
ATOM      2  O   UNL     1      41.418 -18.080 170.857  0.00  0.00    +0.000 OA
ATOM      3  N   UNL     1      41.645 -19.125 172.891  0.00  0.00    +0.000 N 
ATOM      4  N   UNL     1      43.167 -20.894 173.275  0.00  0.00    +0.000 NA
ATOM      5  C   UNL     1      42.215 -20.109 173.694  0.00  0.00    +0.000 C 
ATOM      6  C   UNL     1      42.001 -18.894 171.560  0.00  0.00    +0.000 C 
ATOM      7  C   UNL     1      43.137 -19.747 171.086  0.00  0.00    +0.000 C 
ATOM      8  C   UNL     1      43.474 -20.586 172.009  0.00  0.00    +0.000 C 
ATOM      9  H   UNL     1      40.884 -18.570 173.253  0.00  0.00    +0.000 HD
ENDROOT
BRANCH   5  10
ATOM     10  O   UNL     1      41.670 -20.149 174.932  0.00  0.00    +0.000 OA
BRANCH  10  11
ATOM     11  C   UNL     1      40.342 -20.134 174.988  0.00  0.00    +0.000 C 
ATOM     12  C   UNL     1      38.813 -20.177 175.067  0.00  0.00    +0.000 C 
ENDBRANCH  10  11
ENDBRANCH   5  10
TORSDOF 2
ENDMDL
MODEL 4
REMARK VINA RESULT:      -4.0     33.652     34.285
REMARK  Name = 92041_2Ethoxy5fluorouracil.pdbqt.pdb
REMARK  2 active torsions:
REMARK  status: ('A' for Active; 'I' for Inactive)
REMARK    1  A    between atoms: C_5  and  O_10
REMARK    2  A    between atoms: O_10  and  C_11
REMARK                            x       y       z     vdW  Elec       q    Type
REMARK                         _______ _______ _______ _____ _____    ______ ____
ROOT
ATOM      1  F   UNL     1      42.713  -8.893 165.731  0.00  0.00    +0.000 F 
ATOM      2  O   UNL     1      44.925  -7.762 167.131  0.00  0.00    +0.000 OA
ATOM      3  N   UNL     1      43.981  -5.690 166.819  0.00  0.00    +0.000 N 
ATOM      4  N   UNL     1      41.856  -5.370 165.831  0.00  0.00    +0.000 NA
ATOM      5  C   UNL     1      42.954  -4.883 166.338  0.00  0.00    +0.000 C 
ATOM      6  C   UNL     1      43.966  -7.086 166.782  0.00  0.00    +0.000 C 
ATOM      7  C   UNL     1      42.685  -7.659 166.259  0.00  0.00    +0.000 C 
ATOM      8  C   UNL     1      41.904  -6.707 165.866  0.00  0.00    +0.000 C 
ATOM      9  H   UNL     1      44.827  -5.261 167.165  0.00  0.00    +0.000 HD
ENDROOT
BRANCH   5  10
ATOM     10  O   UNL     1      43.230  -3.563 166.459  0.00  0.00    +0.000 OA
BRANCH  10  11
ATOM     11  C   UNL     1      44.455  -3.187 166.106  0.00  0.00    +0.000 C 
ATOM     12  C   UNL     1      45.889  -2.804 165.729  0.00  0.00    +0.000 C 
ENDBRANCH  10  11
ENDBRANCH   5  10
TORSDOF 2
ENDMDL
MODEL 5
REMARK VINA RESULT:      -3.9     34.134     35.422
REMARK  Name = 92041_2Ethoxy5fluorouracil.pdbqt.pdb
REMARK  2 active torsions:
REMARK  status: ('A' for Active; 'I' for Inactive)
REMARK    1  A    between atoms: C_5  and  O_10
REMARK    2  A    between atoms: O_10  and  C_11
REMARK                            x       y       z     vdW  Elec       q    Type
REMARK                         _______ _______ _______ _____ _____    ______ ____
ROOT
ATOM      1  F   UNL     1      44.410  -3.093 165.724  0.00  0.00    +0.000 F 
ATOM      2  O   UNL     1      44.213  -0.926 167.567  0.00  0.00    +0.000 OA
ATOM      3  N   UNL     1      46.484  -1.074 167.887  0.00  0.00    +0.000 N 
ATOM      4  N   UNL     1      47.872  -2.541 166.656  0.00  0.00    +0.000 NA
ATOM      5  C   UNL     1      47.716  -1.657 167.601  0.00  0.00    +0.000 C 
ATOM      6  C   UNL     1      45.293  -1.392 167.229  0.00  0.00    +0.000 C 
ATOM      7  C   UNL     1      45.471  -2.360 166.101  0.00  0.00    +0.000 C 
ATOM      8  C   UNL     1      46.698  -2.762 166.052  0.00  0.00    +0.000 C 
ATOM      9  H   UNL     1      46.411  -0.424 168.655  0.00  0.00    +0.000 HD
ENDROOT
BRANCH   5  10
ATOM     10  O   UNL     1      48.705  -1.202 168.405  0.00  0.00    +0.000 OA
BRANCH  10  11
ATOM     11  C   UNL     1      48.929   0.108 168.372  0.00  0.00    +0.000 C 
ATOM     12  C   UNL     1      49.204   1.612 168.275  0.00  0.00    +0.000 C 
ENDBRANCH  10  11
ENDBRANCH   5  10
TORSDOF 2
ENDMDL
MODEL 6
REMARK VINA RESULT:      -3.9     33.261     34.986
REMARK  Name = 92041_2Ethoxy5fluorouracil.pdbqt.pdb
REMARK  2 active torsions:
REMARK  status: ('A' for Active; 'I' for Inactive)
REMARK    1  A    between atoms: C_5  and  O_10
REMARK    2  A    between atoms: O_10  and  C_11
REMARK                            x       y       z     vdW  Elec       q    Type
REMARK                         _______ _______ _______ _____ _____    ______ ____
ROOT
ATOM      1  F   UNL     1      40.962  -9.001 162.008  0.00  0.00    +0.000 F 
ATOM      2  O   UNL     1      42.348 -10.976 163.528  0.00  0.00    +0.000 OA
ATOM      3  N   UNL     1      42.729  -9.379 165.137  0.00  0.00    +0.000 N 
ATOM      4  N   UNL     1      41.828  -7.195 165.033  0.00  0.00    +0.000 NA
ATOM      5  C   UNL     1      42.580  -8.082 165.620  0.00  0.00    +0.000 C 
ATOM      6  C   UNL     1      42.125  -9.857 163.972  0.00  0.00    +0.000 C 
ATOM      7  C   UNL     1      41.208  -8.868 163.322  0.00  0.00    +0.000 C 
ATOM      8  C   UNL     1      41.258  -7.740 163.950  0.00  0.00    +0.000 C 
ATOM      9  H   UNL     1      43.355 -10.015 165.609  0.00  0.00    +0.000 HD
ENDROOT
BRANCH   5  10
ATOM     10  O   UNL     1      43.298  -7.862 166.747  0.00  0.00    +0.000 OA
BRANCH  10  11
ATOM     11  C   UNL     1      42.792  -6.976 167.599  0.00  0.00    +0.000 C 
ATOM     12  C   UNL     1      42.162  -5.994 168.591  0.00  0.00    +0.000 C 
ENDBRANCH  10  11
ENDBRANCH   5  10
TORSDOF 2
ENDMDL
MODEL 7
REMARK VINA RESULT:      -3.8      3.331      4.412
REMARK  Name = 92041_2Ethoxy5fluorouracil.pdbqt.pdb
REMARK  2 active torsions:
REMARK  status: ('A' for Active; 'I' for Inactive)
REMARK    1  A    between atoms: C_5  and  O_10
REMARK    2  A    between atoms: O_10  and  C_11
REMARK                            x       y       z     vdW  Elec       q    Type
REMARK                         _______ _______ _______ _____ _____    ______ ____
ROOT
ATOM      1  F   UNL     1      24.417   2.180 187.700  0.00  0.00    +0.000 F 
ATOM      2  O   UNL     1      22.510   0.878 189.374  0.00  0.00    +0.000 OA
ATOM      3  N   UNL     1      20.844   1.879 188.148  0.00  0.00    +0.000 N 
ATOM      4  N   UNL     1      21.261   3.184 186.220  0.00  0.00    +0.000 NA
ATOM      5  C   UNL     1      20.432   2.696 187.099  0.00  0.00    +0.000 C 
ATOM      6  C   UNL     1      22.173   1.525 188.391  0.00  0.00    +0.000 C 
ATOM      7  C   UNL     1      23.128   2.028 187.353  0.00  0.00    +0.000 C 
ATOM      8  C   UNL     1      22.503   2.770 186.501  0.00  0.00    +0.000 C 
ATOM      9  H   UNL     1      20.166   1.561 188.823  0.00  0.00    +0.000 HD
ENDROOT
BRANCH   5  10
ATOM     10  O   UNL     1      19.096   2.916 187.106  0.00  0.00    +0.000 OA
BRANCH  10  11
ATOM     11  C   UNL     1      18.406   2.298 188.060  0.00  0.00    +0.000 C 
ATOM     12  C   UNL     1      17.575   1.562 189.115  0.00  0.00    +0.000 C 
ENDBRANCH  10  11
ENDBRANCH   5  10
TORSDOF 2
ENDMDL
MODEL 8
REMARK VINA RESULT:      -3.7     32.176     33.350
REMARK  Name = 92041_2Ethoxy5fluorouracil.pdbqt.pdb
REMARK  2 active torsions:
REMARK  status: ('A' for Active; 'I' for Inactive)
REMARK    1  A    between atoms: C_5  and  O_10
REMARK    2  A    between atoms: O_10  and  C_11
REMARK                            x       y       z     vdW  Elec       q    Type
REMARK                         _______ _______ _______ _____ _____    ______ ____
ROOT
ATOM      1  F   UNL     1      40.725  -7.577 162.371  0.00  0.00    +0.000 F 
ATOM      2  O   UNL     1      41.490  -9.284 164.523  0.00  0.00    +0.000 OA
ATOM      3  N   UNL     1      40.822  -7.638 165.982  0.00  0.00    +0.000 N 
ATOM      4  N   UNL     1      39.771  -5.637 165.284  0.00  0.00    +0.000 NA
ATOM      5  C   UNL     1      40.274  -6.382 166.228  0.00  0.00    +0.000 C 
ATOM      6  C   UNL     1      40.922  -8.217 164.714  0.00  0.00    +0.000 C 
ATOM      7  C   UNL     1      40.293  -7.398 163.630  0.00  0.00    +0.000 C 
ATOM      8  C   UNL     1      39.873  -6.275 164.111  0.00  0.00    +0.000 C 
ATOM      9  H   UNL     1      41.233  -8.157 166.744  0.00  0.00    +0.000 HD
ENDROOT
BRANCH   5  10
ATOM     10  O   UNL     1      40.327  -6.040 167.536  0.00  0.00    +0.000 OA
BRANCH  10  11
ATOM     11  C   UNL     1      41.519  -6.134 168.118  0.00  0.00    +0.000 C 
ATOM     12  C   UNL     1      42.881  -6.304 168.799  0.00  0.00    +0.000 C 
ENDBRANCH  10  11
ENDBRANCH   5  10
TORSDOF 2
ENDMDL
MODEL 9
REMARK VINA RESULT:      -3.6      3.359      3.724
REMARK  Name = 92041_2Ethoxy5fluorouracil.pdbqt.pdb
REMARK  2 active torsions:
REMARK  status: ('A' for Active; 'I' for Inactive)
REMARK    1  A    between atoms: C_5  and  O_10
REMARK    2  A    between atoms: O_10  and  C_11
REMARK                            x       y       z     vdW  Elec       q    Type
REMARK                         _______ _______ _______ _____ _____    ______ ____
ROOT
ATOM      1  F   UNL     1      23.152   3.954 192.213  0.00  0.00    +0.000 F 
ATOM      2  O   UNL     1      20.473   3.036 191.876  0.00  0.00    +0.000 OA
ATOM      3  N   UNL     1      21.080   2.219 189.815  0.00  0.00    +0.000 N 
ATOM      4  N   UNL     1      23.303   2.260 189.008  0.00  0.00    +0.000 NA
ATOM      5  C   UNL     1      22.039   1.996 188.831  0.00  0.00    +0.000 C 
ATOM      6  C   UNL     1      21.354   2.771 191.068  0.00  0.00    +0.000 C 
ATOM      7  C   UNL     1      22.811   3.022 191.308  0.00  0.00    +0.000 C 
ATOM      8  C   UNL     1      23.487   2.750 190.241  0.00  0.00    +0.000 C 
ATOM      9  H   UNL     1      20.109   2.033 189.611  0.00  0.00    +0.000 HD
ENDROOT
BRANCH   5  10
ATOM     10  O   UNL     1      21.509   1.484 187.695  0.00  0.00    +0.000 OA
BRANCH  10  11
ATOM     11  C   UNL     1      20.731   2.301 186.993  0.00  0.00    +0.000 C 
ATOM     12  C   UNL     1      19.799   3.251 186.235  0.00  0.00    +0.000 C 
ENDBRANCH  10  11
ENDBRANCH   5  10
TORSDOF 2
ENDMDL
