MODEL 1
REMARK VINA RESULT:      -6.2      0.000      0.000
REMARK  Name = 95716_6Bromoisatin.pdbqt.pdb
REMARK  0 active torsions:
REMARK  status: ('A' for Active; 'I' for Inactive)
REMARK                            x       y       z     vdW  Elec       q    Type
REMARK                         _______ _______ _______ _____ _____    ______ ____
ROOT
ATOM      1 BR   UNL     1      19.478   2.923 190.388  0.00  0.00    +0.000 Br
ATOM      2  O   UNL     1      21.387   3.743 183.723  0.00  0.00    +0.000 OA
ATOM      3  O   UNL     1      23.655   5.500 184.640  0.00  0.00    +0.000 OA
ATOM      4  N   UNL     1      22.721   4.994 186.716  0.00  0.00    +0.000 N 
ATOM      5  C   UNL     1      21.639   4.233 187.150  0.00  0.00    +0.000 A 
ATOM      6  C   UNL     1      20.969   3.643 186.081  0.00  0.00    +0.000 A 
ATOM      7  C   UNL     1      21.663   4.047 184.859  0.00  0.00    +0.000 C 
ATOM      8  C   UNL     1      21.226   4.043 188.451  0.00  0.00    +0.000 A 
ATOM      9  C   UNL     1      19.861   2.838 186.245  0.00  0.00    +0.000 A 
ATOM     10  C   UNL     1      22.833   4.954 185.339  0.00  0.00    +0.000 C 
ATOM     11  C   UNL     1      20.105   3.231 188.637  0.00  0.00    +0.000 A 
ATOM     12  C   UNL     1      19.429   2.636 187.557  0.00  0.00    +0.000 A 
ATOM     13  H   UNL     1      23.357   5.516 187.303  0.00  0.00    +0.000 HD
ENDROOT
TORSDOF 0
ENDMDL
MODEL 2
REMARK VINA RESULT:      -6.0      1.813      2.207
REMARK  Name = 95716_6Bromoisatin.pdbqt.pdb
REMARK  0 active torsions:
REMARK  status: ('A' for Active; 'I' for Inactive)
REMARK                            x       y       z     vdW  Elec       q    Type
REMARK                         _______ _______ _______ _____ _____    ______ ____
ROOT
ATOM      1 BR   UNL     1      17.636   1.362 189.609  0.00  0.00    +0.000 Br
ATOM      2  O   UNL     1      21.864   5.334 185.724  0.00  0.00    +0.000 OA
ATOM      3  O   UNL     1      23.373   6.083 188.220  0.00  0.00    +0.000 OA
ATOM      4  N   UNL     1      21.776   4.672 189.167  0.00  0.00    +0.000 N 
ATOM      5  C   UNL     1      20.709   3.923 188.678  0.00  0.00    +0.000 A 
ATOM      6  C   UNL     1      20.580   4.060 187.298  0.00  0.00    +0.000 A 
ATOM      7  C   UNL     1      21.640   4.965 186.852  0.00  0.00    +0.000 C 
ATOM      8  C   UNL     1      19.851   3.127 189.405  0.00  0.00    +0.000 A 
ATOM      9  C   UNL     1      19.599   3.419 186.571  0.00  0.00    +0.000 A 
ATOM     10  C   UNL     1      22.416   5.348 188.146  0.00  0.00    +0.000 C 
ATOM     11  C   UNL     1      18.850   2.470 188.685  0.00  0.00    +0.000 A 
ATOM     12  C   UNL     1      18.721   2.609 187.293  0.00  0.00    +0.000 A 
ATOM     13  H   UNL     1      22.068   4.734 190.133  0.00  0.00    +0.000 HD
ENDROOT
TORSDOF 0
ENDMDL
MODEL 3
REMARK VINA RESULT:      -5.6      1.767      2.138
REMARK  Name = 95716_6Bromoisatin.pdbqt.pdb
REMARK  0 active torsions:
REMARK  status: ('A' for Active; 'I' for Inactive)
REMARK                            x       y       z     vdW  Elec       q    Type
REMARK                         _______ _______ _______ _____ _____    ______ ____
ROOT
ATOM      1 BR   UNL     1      17.979   1.367 191.159  0.00  0.00    +0.000 Br
ATOM      2  O   UNL     1      20.551   3.690 185.099  0.00  0.00    +0.000 OA
ATOM      3  O   UNL     1      23.328   3.451 186.242  0.00  0.00    +0.000 OA
ATOM      4  N   UNL     1      22.106   2.716 188.088  0.00  0.00    +0.000 N 
ATOM      5  C   UNL     1      20.754   2.535 188.366  0.00  0.00    +0.000 A 
ATOM      6  C   UNL     1      19.959   2.876 187.274  0.00  0.00    +0.000 A 
ATOM      7  C   UNL     1      20.857   3.313 186.205  0.00  0.00    +0.000 C 
ATOM      8  C   UNL     1      20.202   2.080 189.544  0.00  0.00    +0.000 A 
ATOM      9  C   UNL     1      18.583   2.785 187.294  0.00  0.00    +0.000 A 
ATOM     10  C   UNL     1      22.288   3.187 186.801  0.00  0.00    +0.000 C 
ATOM     11  C   UNL     1      18.810   1.981 189.582  0.00  0.00    +0.000 A 
ATOM     12  C   UNL     1      18.008   2.326 188.480  0.00  0.00    +0.000 A 
ATOM     13  H   UNL     1      22.874   2.538 188.720  0.00  0.00    +0.000 HD
ENDROOT
TORSDOF 0
ENDMDL
MODEL 4
REMARK VINA RESULT:      -5.5     30.829     32.195
REMARK  Name = 95716_6Bromoisatin.pdbqt.pdb
REMARK  0 active torsions:
REMARK  status: ('A' for Active; 'I' for Inactive)
REMARK                            x       y       z     vdW  Elec       q    Type
REMARK                         _______ _______ _______ _____ _____    ______ ____
ROOT
ATOM      1 BR   UNL     1      44.163  -1.889 163.578  0.00  0.00    +0.000 Br
ATOM      2  O   UNL     1      44.968  -7.778 167.241  0.00  0.00    +0.000 OA
ATOM      3  O   UNL     1      42.558  -7.026 168.885  0.00  0.00    +0.000 OA
ATOM      4  N   UNL     1      42.616  -5.184 167.456  0.00  0.00    +0.000 N 
ATOM      5  C   UNL     1      43.434  -4.779 166.404  0.00  0.00    +0.000 A 
ATOM      6  C   UNL     1      44.450  -5.700 166.163  0.00  0.00    +0.000 A 
ATOM      7  C   UNL     1      44.284  -6.788 167.127  0.00  0.00    +0.000 C 
ATOM      8  C   UNL     1      43.313  -3.628 165.655  0.00  0.00    +0.000 A 
ATOM      9  C   UNL     1      45.393  -5.530 165.172  0.00  0.00    +0.000 A 
ATOM     10  C   UNL     1      43.039  -6.394 167.973  0.00  0.00    +0.000 C 
ATOM     11  C   UNL     1      44.261  -3.439 164.647  0.00  0.00    +0.000 A 
ATOM     12  C   UNL     1      45.286  -4.370 164.404  0.00  0.00    +0.000 A 
ATOM     13  H   UNL     1      41.815  -4.685 167.816  0.00  0.00    +0.000 HD
ENDROOT
TORSDOF 0
ENDMDL
MODEL 5
REMARK VINA RESULT:      -5.2      5.441      6.800
REMARK  Name = 95716_6Bromoisatin.pdbqt.pdb
REMARK  0 active torsions:
REMARK  status: ('A' for Active; 'I' for Inactive)
REMARK                            x       y       z     vdW  Elec       q    Type
REMARK                         _______ _______ _______ _____ _____    ______ ____
ROOT
ATOM      1 BR   UNL     1      20.739   1.016 195.967  0.00  0.00    +0.000 Br
ATOM      2  O   UNL     1      19.544   2.713 189.301  0.00  0.00    +0.000 OA
ATOM      3  O   UNL     1      16.971   1.150 189.416  0.00  0.00    +0.000 OA
ATOM      4  N   UNL     1      17.711   0.800 191.600  0.00  0.00    +0.000 N 
ATOM      5  C   UNL     1      18.824   1.193 192.337  0.00  0.00    +0.000 A 
ATOM      6  C   UNL     1      19.689   1.978 191.577  0.00  0.00    +0.000 A 
ATOM      7  C   UNL     1      19.097   2.108 190.246  0.00  0.00    +0.000 C 
ATOM      8  C   UNL     1      19.101   0.883 193.651  0.00  0.00    +0.000 A 
ATOM      9  C   UNL     1      20.866   2.493 192.079  0.00  0.00    +0.000 A 
ATOM     10  C   UNL     1      17.769   1.299 190.312  0.00  0.00    +0.000 C 
ATOM     11  C   UNL     1      20.289   1.396 194.176  0.00  0.00    +0.000 A 
ATOM     12  C   UNL     1      21.161   2.188 193.408  0.00  0.00    +0.000 A 
ATOM     13  H   UNL     1      16.947   0.229 191.931  0.00  0.00    +0.000 HD
ENDROOT
TORSDOF 0
ENDMDL
MODEL 6
REMARK VINA RESULT:      -4.9      5.024      6.246
REMARK  Name = 95716_6Bromoisatin.pdbqt.pdb
REMARK  0 active torsions:
REMARK  status: ('A' for Active; 'I' for Inactive)
REMARK                            x       y       z     vdW  Elec       q    Type
REMARK                         _______ _______ _______ _____ _____    ______ ____
ROOT
ATOM      1 BR   UNL     1      23.903  -0.604 192.240  0.00  0.00    +0.000 Br
ATOM      2  O   UNL     1      18.764   2.442 188.626  0.00  0.00    +0.000 OA
ATOM      3  O   UNL     1      16.788   1.380 190.636  0.00  0.00    +0.000 OA
ATOM      4  N   UNL     1      18.749   0.517 191.558  0.00  0.00    +0.000 N 
ATOM      5  C   UNL     1      20.099   0.562 191.221  0.00  0.00    +0.000 A 
ATOM      6  C   UNL     1      20.310   1.299 190.058  0.00  0.00    +0.000 A 
ATOM      7  C   UNL     1      19.003   1.770 189.601  0.00  0.00    +0.000 C 
ATOM      8  C   UNL     1      21.145  -0.022 191.902  0.00  0.00    +0.000 A 
ATOM      9  C   UNL     1      21.562   1.494 189.513  0.00  0.00    +0.000 A 
ATOM     10  C   UNL     1      17.987   1.218 190.643  0.00  0.00    +0.000 C 
ATOM     11  C   UNL     1      22.420   0.164 191.365  0.00  0.00    +0.000 A 
ATOM     12  C   UNL     1      22.632   0.908 190.191  0.00  0.00    +0.000 A 
ATOM     13  H   UNL     1      18.349   0.045 192.357  0.00  0.00    +0.000 HD
ENDROOT
TORSDOF 0
ENDMDL
MODEL 7
REMARK VINA RESULT:      -4.7      5.631      6.559
REMARK  Name = 95716_6Bromoisatin.pdbqt.pdb
REMARK  0 active torsions:
REMARK  status: ('A' for Active; 'I' for Inactive)
REMARK                            x       y       z     vdW  Elec       q    Type
REMARK                         _______ _______ _______ _____ _____    ______ ____
ROOT
ATOM      1 BR   UNL     1      18.598  -0.190 195.451  0.00  0.00    +0.000 Br
ATOM      2  O   UNL     1      21.471   3.636 190.366  0.00  0.00    +0.000 OA
ATOM      3  O   UNL     1      23.926   3.978 192.078  0.00  0.00    +0.000 OA
ATOM      4  N   UNL     1      22.648   2.670 193.526  0.00  0.00    +0.000 N 
ATOM      5  C   UNL     1      21.383   2.092 193.474  0.00  0.00    +0.000 A 
ATOM      6  C   UNL     1      20.744   2.371 192.268  0.00  0.00    +0.000 A 
ATOM      7  C   UNL     1      21.658   3.190 191.474  0.00  0.00    +0.000 C 
ATOM      8  C   UNL     1      20.777   1.331 194.451  0.00  0.00    +0.000 A 
ATOM      9  C   UNL     1      19.478   1.912 191.970  0.00  0.00    +0.000 A 
ATOM     10  C   UNL     1      22.924   3.363 192.363  0.00  0.00    +0.000 C 
ATOM     11  C   UNL     1      19.494   0.858 194.166  0.00  0.00    +0.000 A 
ATOM     12  C   UNL     1      18.850   1.140 192.948  0.00  0.00    +0.000 A 
ATOM     13  H   UNL     1      23.301   2.609 194.295  0.00  0.00    +0.000 HD
ENDROOT
TORSDOF 0
ENDMDL
MODEL 8
REMARK VINA RESULT:      -4.7     18.112     19.651
REMARK  Name = 95716_6Bromoisatin.pdbqt.pdb
REMARK  0 active torsions:
REMARK  status: ('A' for Active; 'I' for Inactive)
REMARK                            x       y       z     vdW  Elec       q    Type
REMARK                         _______ _______ _______ _____ _____    ______ ____
ROOT
ATOM      1 BR   UNL     1      24.102   8.886 164.398  0.00  0.00    +0.000 Br
ATOM      2  O   UNL     1      26.441   9.614 170.935  0.00  0.00    +0.000 OA
ATOM      3  O   UNL     1      23.723   8.800 171.946  0.00  0.00    +0.000 OA
ATOM      4  N   UNL     1      23.316   8.669 169.653  0.00  0.00    +0.000 N 
ATOM      5  C   UNL     1      24.071   8.892 168.505  0.00  0.00    +0.000 A 
ATOM      6  C   UNL     1      25.371   9.284 168.816  0.00  0.00    +0.000 A 
ATOM      7  C   UNL     1      25.473   9.320 170.275  0.00  0.00    +0.000 C 
ATOM      8  C   UNL     1      23.653   8.761 167.198  0.00  0.00    +0.000 A 
ATOM      9  C   UNL     1      26.317   9.565 167.854  0.00  0.00    +0.000 A 
ATOM     10  C   UNL     1      24.067   8.899 170.791  0.00  0.00    +0.000 C 
ATOM     11  C   UNL     1      24.598   9.042 166.210  0.00  0.00    +0.000 A 
ATOM     12  C   UNL     1      25.910   9.438 166.525  0.00  0.00    +0.000 A 
ATOM     13  H   UNL     1      22.349   8.378 169.685  0.00  0.00    +0.000 HD
ENDROOT
TORSDOF 0
ENDMDL
MODEL 9
REMARK VINA RESULT:      -4.7      4.703      5.992
REMARK  Name = 95716_6Bromoisatin.pdbqt.pdb
REMARK  0 active torsions:
REMARK  status: ('A' for Active; 'I' for Inactive)
REMARK                            x       y       z     vdW  Elec       q    Type
REMARK                         _______ _______ _______ _____ _____    ______ ____
ROOT
ATOM      1 BR   UNL     1      23.045   1.562 193.479  0.00  0.00    +0.000 Br
ATOM      2  O   UNL     1      16.720   1.344 190.533  0.00  0.00    +0.000 OA
ATOM      3  O   UNL     1      17.952   2.252 187.938  0.00  0.00    +0.000 OA
ATOM      4  N   UNL     1      19.873   2.202 189.258  0.00  0.00    +0.000 N 
ATOM      5  C   UNL     1      20.148   1.884 190.585  0.00  0.00    +0.000 A 
ATOM      6  C   UNL     1      18.994   1.510 191.270  0.00  0.00    +0.000 A 
ATOM      7  C   UNL     1      17.884   1.590 190.322  0.00  0.00    +0.000 C 
ATOM      8  C   UNL     1      21.377   1.913 191.209  0.00  0.00    +0.000 A 
ATOM      9  C   UNL     1      18.999   1.148 192.601  0.00  0.00    +0.000 A 
ATOM     10  C   UNL     1      18.526   2.059 188.984  0.00  0.00    +0.000 C 
ATOM     11  C   UNL     1      21.401   1.548 192.557  0.00  0.00    +0.000 A 
ATOM     12  C   UNL     1      20.236   1.171 193.247  0.00  0.00    +0.000 A 
ATOM     13  H   UNL     1      20.545   2.500 188.565  0.00  0.00    +0.000 HD
ENDROOT
TORSDOF 0
ENDMDL
