MODEL 1
REMARK VINA RESULT:      -7.6      0.000      0.000
REMARK  Name = 969516_Curcumin.pdbqt.pdb
REMARK  8 active torsions:
REMARK  status: ('A' for Active; 'I' for Inactive)
REMARK    1  A    between atoms: C_3  and  C_5
REMARK    2  A    between atoms: C_4  and  C_6
REMARK    3  A    between atoms: C_8  and  O_12
REMARK    4  A    between atoms: C_10  and  O_14
REMARK    5  A    between atoms: C_17  and  C_19
REMARK    6  A    between atoms: C_18  and  C_20
REMARK    7  A    between atoms: C_22  and  O_26
REMARK    8  A    between atoms: C_24  and  O_28
REMARK                            x       y       z     vdW  Elec       q    Type
REMARK                         _______ _______ _______ _____ _____    ______ ____
ROOT
ATOM      1  C   UNL     1      19.006   1.216 192.225  0.00  0.00    +0.000 C 
ATOM      2  O   UNL     1      20.983   0.771 193.296  0.00  0.00    +0.000 OA
ATOM      3  C   UNL     1      19.768   0.865 193.378  0.00  0.00    +0.000 C 
ATOM      4  O   UNL     1      17.040   1.369 191.057  0.00  0.00    +0.000 OA
ATOM      5  C   UNL     1      18.247   1.562 191.070  0.00  0.00    +0.000 C 
ENDROOT
BRANCH   3   7
ATOM      6  C   UNL     1      18.543   0.430 195.679  0.00  0.00    +0.000 C 
ATOM      7  C   UNL     1      19.099   0.628 194.633  0.00  0.00    +0.000 C 
BRANCH   6   8
ATOM      8  C   UNL     1      17.884   0.195 196.922  0.00  0.00    +0.000 A 
ATOM      9  C   UNL     1      18.098  -1.000 197.607  0.00  0.00    +0.000 A 
ATOM     10  C   UNL     1      17.460  -1.247 198.826  0.00  0.00    +0.000 A 
ATOM     11  C   UNL     1      17.028   1.158 197.448  0.00  0.00    +0.000 A 
ATOM     12  C   UNL     1      16.603  -0.272 199.346  0.00  0.00    +0.000 A 
ATOM     13  C   UNL     1      16.387   0.924 198.662  0.00  0.00    +0.000 A 
BRANCH  10  14
ATOM     14  O   UNL     1      17.622  -2.397 199.557  0.00  0.00    +0.000 OA
ATOM     15  C   UNL     1      17.027  -3.550 199.031  0.00  0.00    +0.000 C 
ENDBRANCH  10  14
BRANCH  12  16
ATOM     16  O   UNL     1      15.935  -0.423 200.530  0.00  0.00    +0.000 OA
ATOM     17  H   UNL     1      15.109   0.089 200.525  0.00  0.00    +0.000 HD
ENDBRANCH  12  16
ENDBRANCH   6   8
ENDBRANCH   3   7
BRANCH   5  19
ATOM     18  C   UNL     1      19.459   2.622 188.976  0.00  0.00    +0.000 C 
ATOM     19  C   UNL     1      18.906   2.139 189.927  0.00  0.00    +0.000 C 
BRANCH  18  20
ATOM     20  C   UNL     1      20.115   3.200 187.849  0.00  0.00    +0.000 A 
ATOM     21  C   UNL     1      21.159   4.103 188.041  0.00  0.00    +0.000 A 
ATOM     22  C   UNL     1      21.812   4.677 186.947  0.00  0.00    +0.000 A 
ATOM     23  C   UNL     1      19.711   2.861 186.559  0.00  0.00    +0.000 A 
ATOM     24  C   UNL     1      21.398   4.328 185.659  0.00  0.00    +0.000 A 
ATOM     25  C   UNL     1      20.353   3.427 185.461  0.00  0.00    +0.000 A 
BRANCH  22  26
ATOM     26  O   UNL     1      22.849   5.574 187.047  0.00  0.00    +0.000 OA
ATOM     27  C   UNL     1      23.365   5.759 188.339  0.00  0.00    +0.000 C 
ENDBRANCH  22  26
BRANCH  24  28
ATOM     28  O   UNL     1      22.024   4.880 184.575  0.00  0.00    +0.000 OA
ATOM     29  H   UNL     1      21.346   5.175 183.939  0.00  0.00    +0.000 HD
ENDBRANCH  24  28
ENDBRANCH  18  20
ENDBRANCH   5  19
TORSDOF 8
ENDMDL
MODEL 2
REMARK VINA RESULT:      -7.5      0.155     11.839
REMARK  Name = 969516_Curcumin.pdbqt.pdb
REMARK  8 active torsions:
REMARK  status: ('A' for Active; 'I' for Inactive)
REMARK    1  A    between atoms: C_3  and  C_5
REMARK    2  A    between atoms: C_4  and  C_6
REMARK    3  A    between atoms: C_8  and  O_12
REMARK    4  A    between atoms: C_10  and  O_14
REMARK    5  A    between atoms: C_17  and  C_19
REMARK    6  A    between atoms: C_18  and  C_20
REMARK    7  A    between atoms: C_22  and  O_26
REMARK    8  A    between atoms: C_24  and  O_28
REMARK                            x       y       z     vdW  Elec       q    Type
REMARK                         _______ _______ _______ _____ _____    ______ ____
ROOT
ATOM      1  C   UNL     1      19.035   1.252 192.303  0.00  0.00    +0.000 C 
ATOM      2  O   UNL     1      17.084   1.348 191.104  0.00  0.00    +0.000 OA
ATOM      3  C   UNL     1      18.283   1.578 191.136  0.00  0.00    +0.000 C 
ATOM      4  O   UNL     1      21.004   0.863 193.409  0.00  0.00    +0.000 OA
ATOM      5  C   UNL     1      19.785   0.921 193.468  0.00  0.00    +0.000 C 
ENDROOT
BRANCH   3   7
ATOM      6  C   UNL     1      19.494   2.680 189.061  0.00  0.00    +0.000 C 
ATOM      7  C   UNL     1      18.943   2.179 190.004  0.00  0.00    +0.000 C 
BRANCH   6   8
ATOM      8  C   UNL     1      20.148   3.272 187.940  0.00  0.00    +0.000 A 
ATOM      9  C   UNL     1      21.118   4.253 188.141  0.00  0.00    +0.000 A 
ATOM     10  C   UNL     1      21.769   4.845 187.054  0.00  0.00    +0.000 A 
ATOM     11  C   UNL     1      19.817   2.872 186.649  0.00  0.00    +0.000 A 
ATOM     12  C   UNL     1      21.429   4.434 185.762  0.00  0.00    +0.000 A 
ATOM     13  C   UNL     1      20.459   3.453 185.559  0.00  0.00    +0.000 A 
BRANCH  10  14
ATOM     14  O   UNL     1      22.734   5.814 187.174  0.00  0.00    +0.000 OA
ATOM     15  C   UNL     1      23.750   5.559 188.103  0.00  0.00    +0.000 C 
ENDBRANCH  10  14
BRANCH  12  16
ATOM     16  O   UNL     1      22.010   4.954 184.638  0.00  0.00    +0.000 OA
ATOM     17  H   UNL     1      22.805   4.448 184.398  0.00  0.00    +0.000 HD
ENDBRANCH  12  16
ENDBRANCH   6   8
ENDBRANCH   3   7
BRANCH   5  19
ATOM     18  C   UNL     1      18.527   0.444 195.742  0.00  0.00    +0.000 C 
ATOM     19  C   UNL     1      19.101   0.660 194.709  0.00  0.00    +0.000 C 
BRANCH  18  20
ATOM     20  C   UNL     1      17.844   0.191 196.968  0.00  0.00    +0.000 A 
ATOM     21  C   UNL     1      18.052  -1.010 197.644  0.00  0.00    +0.000 A 
ATOM     22  C   UNL     1      17.390  -1.271 198.847  0.00  0.00    +0.000 A 
ATOM     23  C   UNL     1      16.972   1.145 197.488  0.00  0.00    +0.000 A 
ATOM     24  C   UNL     1      16.518  -0.306 199.357  0.00  0.00    +0.000 A 
ATOM     25  C   UNL     1      16.307   0.897 198.685  0.00  0.00    +0.000 A 
BRANCH  22  26
ATOM     26  O   UNL     1      17.536  -2.427 199.576  0.00  0.00    +0.000 OA
ATOM     27  C   UNL     1      16.980  -3.580 199.000  0.00  0.00    +0.000 C 
ENDBRANCH  22  26
BRANCH  24  28
ATOM     28  O   UNL     1      15.861  -0.544 200.534  0.00  0.00    +0.000 OA
ATOM     29  H   UNL     1      15.573  -1.476 200.548  0.00  0.00    +0.000 HD
ENDBRANCH  24  28
ENDBRANCH  18  20
ENDBRANCH   5  19
TORSDOF 8
ENDMDL
MODEL 3
REMARK VINA RESULT:      -7.4      6.094     12.260
REMARK  Name = 969516_Curcumin.pdbqt.pdb
REMARK  8 active torsions:
REMARK  status: ('A' for Active; 'I' for Inactive)
REMARK    1  A    between atoms: C_3  and  C_5
REMARK    2  A    between atoms: C_4  and  C_6
REMARK    3  A    between atoms: C_8  and  O_12
REMARK    4  A    between atoms: C_10  and  O_14
REMARK    5  A    between atoms: C_17  and  C_19
REMARK    6  A    between atoms: C_18  and  C_20
REMARK    7  A    between atoms: C_22  and  O_26
REMARK    8  A    between atoms: C_24  and  O_28
REMARK                            x       y       z     vdW  Elec       q    Type
REMARK                         _______ _______ _______ _____ _____    ______ ____
ROOT
ATOM      1  C   UNL     1      25.743   2.741 190.458  0.00  0.00    +0.000 C 
ATOM      2  O   UNL     1      26.308   1.609 188.547  0.00  0.00    +0.000 OA
ATOM      3  C   UNL     1      26.646   2.410 189.405  0.00  0.00    +0.000 C 
ATOM      4  O   UNL     1      25.259   3.617 192.520  0.00  0.00    +0.000 OA
ATOM      5  C   UNL     1      24.841   3.067 191.512  0.00  0.00    +0.000 C 
ENDROOT
BRANCH   3   7
ATOM      6  C   UNL     1      29.035   3.537 189.323  0.00  0.00    +0.000 C 
ATOM      7  C   UNL     1      27.949   3.024 189.360  0.00  0.00    +0.000 C 
BRANCH   6   8
ATOM      8  C   UNL     1      30.325   4.144 189.280  0.00  0.00    +0.000 A 
ATOM      9  C   UNL     1      30.631   5.187 190.154  0.00  0.00    +0.000 A 
ATOM     10  C   UNL     1      31.890   5.793 190.125  0.00  0.00    +0.000 A 
ATOM     11  C   UNL     1      31.275   3.696 188.367  0.00  0.00    +0.000 A 
ATOM     12  C   UNL     1      32.837   5.334 189.205  0.00  0.00    +0.000 A 
ATOM     13  C   UNL     1      32.533   4.291 188.330  0.00  0.00    +0.000 A 
BRANCH  10  14
ATOM     14  O   UNL     1      32.264   6.822 190.953  0.00  0.00    +0.000 OA
ATOM     15  C   UNL     1      32.629   6.462 192.256  0.00  0.00    +0.000 C 
ENDBRANCH  10  14
BRANCH  12  16
ATOM     16  O   UNL     1      34.094   5.864 189.103  0.00  0.00    +0.000 OA
ATOM     17  H   UNL     1      34.533   5.875 189.970  0.00  0.00    +0.000 HD
ENDBRANCH  12  16
ENDBRANCH   6   8
ENDBRANCH   3   7
BRANCH   5  19
ATOM     18  C   UNL     1      22.276   2.482 191.267  0.00  0.00    +0.000 C 
ATOM     19  C   UNL     1      23.442   2.749 191.380  0.00  0.00    +0.000 C 
BRANCH  18  20
ATOM     20  C   UNL     1      20.892   2.168 191.128  0.00  0.00    +0.000 A 
ATOM     21  C   UNL     1      20.291   2.220 189.872  0.00  0.00    +0.000 A 
ATOM     22  C   UNL     1      18.936   1.914 189.720  0.00  0.00    +0.000 A 
ATOM     23  C   UNL     1      20.144   1.808 192.248  0.00  0.00    +0.000 A 
ATOM     24  C   UNL     1      18.198   1.555 190.850  0.00  0.00    +0.000 A 
ATOM     25  C   UNL     1      18.794   1.501 192.109  0.00  0.00    +0.000 A 
BRANCH  22  26
ATOM     26  O   UNL     1      18.266   1.942 188.520  0.00  0.00    +0.000 OA
ATOM     27  C   UNL     1      18.777   2.831 187.562  0.00  0.00    +0.000 C 
ENDBRANCH  22  26
BRANCH  24  28
ATOM     28  O   UNL     1      16.870   1.252 190.721  0.00  0.00    +0.000 OA
ATOM     29  H   UNL     1      16.753   0.686 189.936  0.00  0.00    +0.000 HD
ENDBRANCH  24  28
ENDBRANCH  18  20
ENDBRANCH   5  19
TORSDOF 8
ENDMDL
MODEL 4
REMARK VINA RESULT:      -7.3      6.089      9.527
REMARK  Name = 969516_Curcumin.pdbqt.pdb
REMARK  8 active torsions:
REMARK  status: ('A' for Active; 'I' for Inactive)
REMARK    1  A    between atoms: C_3  and  C_5
REMARK    2  A    between atoms: C_4  and  C_6
REMARK    3  A    between atoms: C_8  and  O_12
REMARK    4  A    between atoms: C_10  and  O_14
REMARK    5  A    between atoms: C_17  and  C_19
REMARK    6  A    between atoms: C_18  and  C_20
REMARK    7  A    between atoms: C_22  and  O_26
REMARK    8  A    between atoms: C_24  and  O_28
REMARK                            x       y       z     vdW  Elec       q    Type
REMARK                         _______ _______ _______ _____ _____    ______ ____
ROOT
ATOM      1  C   UNL     1      25.740   2.729 190.432  0.00  0.00    +0.000 C 
ATOM      2  O   UNL     1      25.245   3.645 192.474  0.00  0.00    +0.000 OA
ATOM      3  C   UNL     1      24.832   3.073 191.477  0.00  0.00    +0.000 C 
ATOM      4  O   UNL     1      26.322   1.564 188.547  0.00  0.00    +0.000 OA
ATOM      5  C   UNL     1      26.650   2.384 189.392  0.00  0.00    +0.000 C 
ENDROOT
BRANCH   3   7
ATOM      6  C   UNL     1      22.269   2.475 191.237  0.00  0.00    +0.000 C 
ATOM      7  C   UNL     1      23.434   2.746 191.347  0.00  0.00    +0.000 C 
BRANCH   6   8
ATOM      8  C   UNL     1      20.886   2.152 191.105  0.00  0.00    +0.000 A 
ATOM      9  C   UNL     1      20.268   2.239 189.859  0.00  0.00    +0.000 A 
ATOM     10  C   UNL     1      18.913   1.926 189.712  0.00  0.00    +0.000 A 
ATOM     11  C   UNL     1      20.155   1.752 192.221  0.00  0.00    +0.000 A 
ATOM     12  C   UNL     1      18.190   1.525 190.839  0.00  0.00    +0.000 A 
ATOM     13  C   UNL     1      18.806   1.438 192.087  0.00  0.00    +0.000 A 
BRANCH  10  14
ATOM     14  O   UNL     1      18.238   1.987 188.518  0.00  0.00    +0.000 OA
ATOM     15  C   UNL     1      18.868   2.700 187.490  0.00  0.00    +0.000 C 
ENDBRANCH  10  14
BRANCH  12  16
ATOM     16  O   UNL     1      16.862   1.199 190.793  0.00  0.00    +0.000 OA
ATOM     17  H   UNL     1      16.700   0.355 191.248  0.00  0.00    +0.000 HD
ENDBRANCH  12  16
ENDBRANCH   6   8
ENDBRANCH   3   7
BRANCH   5  19
ATOM     18  C   UNL     1      29.034   3.518 189.303  0.00  0.00    +0.000 C 
ATOM     19  C   UNL     1      27.949   3.004 189.342  0.00  0.00    +0.000 C 
BRANCH  18  20
ATOM     20  C   UNL     1      30.322   4.130 189.262  0.00  0.00    +0.000 A 
ATOM     21  C   UNL     1      30.620   5.178 190.131  0.00  0.00    +0.000 A 
ATOM     22  C   UNL     1      31.878   5.787 190.103  0.00  0.00    +0.000 A 
ATOM     23  C   UNL     1      31.278   3.678 188.355  0.00  0.00    +0.000 A 
ATOM     24  C   UNL     1      32.828   5.324 189.189  0.00  0.00    +0.000 A 
ATOM     25  C   UNL     1      32.534   4.276 188.318  0.00  0.00    +0.000 A 
BRANCH  22  26
ATOM     26  O   UNL     1      32.254   6.824 190.922  0.00  0.00    +0.000 OA
ATOM     27  C   UNL     1      32.646   6.459 192.220  0.00  0.00    +0.000 C 
ENDBRANCH  22  26
BRANCH  24  28
ATOM     28  O   UNL     1      34.065   5.907 189.147  0.00  0.00    +0.000 OA
ATOM     29  H   UNL     1      34.468   5.723 188.277  0.00  0.00    +0.000 HD
ENDBRANCH  24  28
ENDBRANCH  18  20
ENDBRANCH   5  19
TORSDOF 8
ENDMDL
MODEL 5
REMARK VINA RESULT:      -7.3      1.696      1.984
REMARK  Name = 969516_Curcumin.pdbqt.pdb
REMARK  8 active torsions:
REMARK  status: ('A' for Active; 'I' for Inactive)
REMARK    1  A    between atoms: C_3  and  C_5
REMARK    2  A    between atoms: C_4  and  C_6
REMARK    3  A    between atoms: C_8  and  O_12
REMARK    4  A    between atoms: C_10  and  O_14
REMARK    5  A    between atoms: C_17  and  C_19
REMARK    6  A    between atoms: C_18  and  C_20
REMARK    7  A    between atoms: C_22  and  O_26
REMARK    8  A    between atoms: C_24  and  O_28
REMARK                            x       y       z     vdW  Elec       q    Type
REMARK                         _______ _______ _______ _____ _____    ______ ____
ROOT
ATOM      1  C   UNL     1      19.497   1.253 192.391  0.00  0.00    +0.000 C 
ATOM      2  O   UNL     1      21.491   0.472 193.211  0.00  0.00    +0.000 OA
ATOM      3  C   UNL     1      20.337   0.796 193.449  0.00  0.00    +0.000 C 
ATOM      4  O   UNL     1      17.448   1.743 191.490  0.00  0.00    +0.000 OA
ATOM      5  C   UNL     1      18.660   1.705 191.331  0.00  0.00    +0.000 C 
ENDROOT
BRANCH   3   7
ATOM      6  C   UNL     1      19.389   0.664 195.912  0.00  0.00    +0.000 C 
ATOM      7  C   UNL     1      19.820   0.723 194.792  0.00  0.00    +0.000 C 
BRANCH   6   8
ATOM      8  C   UNL     1      18.875   0.594 197.241  0.00  0.00    +0.000 A 
ATOM      9  C   UNL     1      19.707   0.876 198.323  0.00  0.00    +0.000 A 
ATOM     10  C   UNL     1      19.220   0.811 199.632  0.00  0.00    +0.000 A 
ATOM     11  C   UNL     1      17.545   0.243 197.455  0.00  0.00    +0.000 A 
ATOM     12  C   UNL     1      17.882   0.459 199.836  0.00  0.00    +0.000 A 
ATOM     13  C   UNL     1      17.048   0.177 198.754  0.00  0.00    +0.000 A 
BRANCH  10  14
ATOM     14  O   UNL     1      19.978   1.076 200.746  0.00  0.00    +0.000 OA
ATOM     15  C   UNL     1      20.562   2.347 200.805  0.00  0.00    +0.000 C 
ENDBRANCH  10  14
BRANCH  12  16
ATOM     16  O   UNL     1      17.317   0.370 201.078  0.00  0.00    +0.000 OA
ATOM     17  H   UNL     1      17.842  -0.211 201.653  0.00  0.00    +0.000 HD
ENDBRANCH  12  16
ENDBRANCH   6   8
ENDBRANCH   3   7
BRANCH   5  19
ATOM     18  C   UNL     1      19.738   2.459 189.040  0.00  0.00    +0.000 C 
ATOM     19  C   UNL     1      19.245   2.117 190.081  0.00  0.00    +0.000 C 
BRANCH  18  20
ATOM     20  C   UNL     1      20.325   2.870 187.807  0.00  0.00    +0.000 A 
ATOM     21  C   UNL     1      21.681   3.188 187.756  0.00  0.00    +0.000 A 
ATOM     22  C   UNL     1      22.271   3.591 186.555  0.00  0.00    +0.000 A 
ATOM     23  C   UNL     1      19.543   2.952 186.657  0.00  0.00    +0.000 A 
ATOM     24  C   UNL     1      21.475   3.668 185.409  0.00  0.00    +0.000 A 
ATOM     25  C   UNL     1      20.119   3.352 185.455  0.00  0.00    +0.000 A 
BRANCH  22  26
ATOM     26  O   UNL     1      23.597   3.922 186.416  0.00  0.00    +0.000 OA
ATOM     27  C   UNL     1      24.035   5.005 187.195  0.00  0.00    +0.000 C 
ENDBRANCH  22  26
BRANCH  24  28
ATOM     28  O   UNL     1      22.035   4.061 184.224  0.00  0.00    +0.000 OA
ATOM     29  H   UNL     1      21.576   4.864 183.912  0.00  0.00    +0.000 HD
ENDBRANCH  24  28
ENDBRANCH  18  20
ENDBRANCH   5  19
TORSDOF 8
ENDMDL
MODEL 6
REMARK VINA RESULT:      -7.1      6.176     12.076
REMARK  Name = 969516_Curcumin.pdbqt.pdb
REMARK  8 active torsions:
REMARK  status: ('A' for Active; 'I' for Inactive)
REMARK    1  A    between atoms: C_3  and  C_5
REMARK    2  A    between atoms: C_4  and  C_6
REMARK    3  A    between atoms: C_8  and  O_12
REMARK    4  A    between atoms: C_10  and  O_14
REMARK    5  A    between atoms: C_17  and  C_19
REMARK    6  A    between atoms: C_18  and  C_20
REMARK    7  A    between atoms: C_22  and  O_26
REMARK    8  A    between atoms: C_24  and  O_28
REMARK                            x       y       z     vdW  Elec       q    Type
REMARK                         _______ _______ _______ _____ _____    ______ ____
ROOT
ATOM      1  C   UNL     1      25.555   3.452 189.680  0.00  0.00    +0.000 C 
ATOM      2  O   UNL     1      26.029   2.613 191.760  0.00  0.00    +0.000 OA
ATOM      3  C   UNL     1      26.462   3.052 190.705  0.00  0.00    +0.000 C 
ATOM      4  O   UNL     1      25.038   4.562 187.743  0.00  0.00    +0.000 OA
ATOM      5  C   UNL     1      24.646   3.855 188.660  0.00  0.00    +0.000 C 
ENDROOT
BRANCH   3   7
ATOM      6  C   UNL     1      29.066   3.260 190.308  0.00  0.00    +0.000 C 
ATOM      7  C   UNL     1      27.882   3.166 190.488  0.00  0.00    +0.000 C 
BRANCH   6   8
ATOM      8  C   UNL     1      30.472   3.369 190.094  0.00  0.00    +0.000 A 
ATOM      9  C   UNL     1      31.057   2.753 188.989  0.00  0.00    +0.000 A 
ATOM     10  C   UNL     1      32.433   2.850 188.764  0.00  0.00    +0.000 A 
ATOM     11  C   UNL     1      31.258   4.091 190.988  0.00  0.00    +0.000 A 
ATOM     12  C   UNL     1      33.213   3.578 189.668  0.00  0.00    +0.000 A 
ATOM     13  C   UNL     1      32.630   4.195 190.774  0.00  0.00    +0.000 A 
BRANCH  10  14
ATOM     14  O   UNL     1      33.079   2.272 187.699  0.00  0.00    +0.000 OA
ATOM     15  C   UNL     1      32.937   2.922 186.467  0.00  0.00    +0.000 C 
ENDBRANCH  10  14
BRANCH  12  16
ATOM     16  O   UNL     1      34.566   3.729 189.532  0.00  0.00    +0.000 OA
ATOM     17  H   UNL     1      35.035   2.963 189.904  0.00  0.00    +0.000 HD
ENDBRANCH  12  16
ENDBRANCH   6   8
ENDBRANCH   3   7
BRANCH   5  19
ATOM     18  C   UNL     1      22.127   3.065 188.758  0.00  0.00    +0.000 C 
ATOM     19  C   UNL     1      23.272   3.426 188.715  0.00  0.00    +0.000 C 
BRANCH  18  20
ATOM     20  C   UNL     1      20.768   2.634 188.805  0.00  0.00    +0.000 A 
ATOM     21  C   UNL     1      20.315   1.882 189.888  0.00  0.00    +0.000 A 
ATOM     22  C   UNL     1      18.986   1.454 189.948  0.00  0.00    +0.000 A 
ATOM     23  C   UNL     1      19.896   2.967 187.770  0.00  0.00    +0.000 A 
ATOM     24  C   UNL     1      18.123   1.795 188.904  0.00  0.00    +0.000 A 
ATOM     25  C   UNL     1      18.571   2.546 187.819  0.00  0.00    +0.000 A 
BRANCH  22  26
ATOM     26  O   UNL     1      18.458   0.711 190.977  0.00  0.00    +0.000 OA
ATOM     27  C   UNL     1      18.310   1.387 192.198  0.00  0.00    +0.000 C 
ENDBRANCH  22  26
BRANCH  24  28
ATOM     28  O   UNL     1      16.818   1.385 188.945  0.00  0.00    +0.000 OA
ATOM     29  H   UNL     1      16.756   0.597 189.518  0.00  0.00    +0.000 HD
ENDBRANCH  24  28
ENDBRANCH  18  20
ENDBRANCH   5  19
TORSDOF 8
ENDMDL
MODEL 7
REMARK VINA RESULT:      -6.9      1.978      2.460
REMARK  Name = 969516_Curcumin.pdbqt.pdb
REMARK  8 active torsions:
REMARK  status: ('A' for Active; 'I' for Inactive)
REMARK    1  A    between atoms: C_3  and  C_5
REMARK    2  A    between atoms: C_4  and  C_6
REMARK    3  A    between atoms: C_8  and  O_12
REMARK    4  A    between atoms: C_10  and  O_14
REMARK    5  A    between atoms: C_17  and  C_19
REMARK    6  A    between atoms: C_18  and  C_20
REMARK    7  A    between atoms: C_22  and  O_26
REMARK    8  A    between atoms: C_24  and  O_28
REMARK                            x       y       z     vdW  Elec       q    Type
REMARK                         _______ _______ _______ _____ _____    ______ ____
ROOT
ATOM      1  C   UNL     1      20.240   1.797 193.088  0.00  0.00    +0.000 C 
ATOM      2  O   UNL     1      21.830   1.069 194.570  0.00  0.00    +0.000 OA
ATOM      3  C   UNL     1      20.645   1.265 194.347  0.00  0.00    +0.000 C 
ATOM      4  O   UNL     1      18.669   2.245 191.481  0.00  0.00    +0.000 OA
ATOM      5  C   UNL     1      19.838   2.325 191.827  0.00  0.00    +0.000 C 
ENDROOT
BRANCH   3   7
ATOM      6  C   UNL     1      18.827   0.715 196.184  0.00  0.00    +0.000 C 
ATOM      7  C   UNL     1      19.653   0.966 195.349  0.00  0.00    +0.000 C 
BRANCH   6   8
ATOM      8  C   UNL     1      17.846   0.415 197.176  0.00  0.00    +0.000 A 
ATOM      9  C   UNL     1      17.795  -0.858 197.740  0.00  0.00    +0.000 A 
ATOM     10  C   UNL     1      16.840  -1.169 198.713  0.00  0.00    +0.000 A 
ATOM     11  C   UNL     1      16.941   1.394 197.577  0.00  0.00    +0.000 A 
ATOM     12  C   UNL     1      15.937  -0.178 199.109  0.00  0.00    +0.000 A 
ATOM     13  C   UNL     1      15.986   1.097 198.545  0.00  0.00    +0.000 A 
BRANCH  10  14
ATOM     14  O   UNL     1      16.730  -2.398 199.314  0.00  0.00    +0.000 OA
ATOM     15  C   UNL     1      17.451  -3.441 198.719  0.00  0.00    +0.000 C 
ENDBRANCH  10  14
BRANCH  12  16
ATOM     16  O   UNL     1      14.969  -0.387 200.053  0.00  0.00    +0.000 OA
ATOM     17  H   UNL     1      14.581  -1.273 199.955  0.00  0.00    +0.000 HD
ENDBRANCH  12  16
ENDBRANCH   6   8
ENDBRANCH   3   7
BRANCH   5  19
ATOM     18  C   UNL     1      21.621   3.476 190.253  0.00  0.00    +0.000 C 
ATOM     19  C   UNL     1      20.812   2.952 190.970  0.00  0.00    +0.000 C 
BRANCH  18  20
ATOM     20  C   UNL     1      22.579   4.095 189.397  0.00  0.00    +0.000 A 
ATOM     21  C   UNL     1      23.914   3.694 189.444  0.00  0.00    +0.000 A 
ATOM     22  C   UNL     1      24.864   4.292 188.611  0.00  0.00    +0.000 A 
ATOM     23  C   UNL     1      22.181   5.098 188.516  0.00  0.00    +0.000 A 
ATOM     24  C   UNL     1      24.451   5.296 187.733  0.00  0.00    +0.000 A 
ATOM     25  C   UNL     1      23.118   5.700 187.682  0.00  0.00    +0.000 A 
BRANCH  22  26
ATOM     26  O   UNL     1      26.197   3.958 188.594  0.00  0.00    +0.000 OA
ATOM     27  C   UNL     1      26.616   3.087 189.613  0.00  0.00    +0.000 C 
ENDBRANCH  22  26
BRANCH  24  28
ATOM     28  O   UNL     1      25.366   5.892 186.910  0.00  0.00    +0.000 OA
ATOM     29  H   UNL     1      25.031   5.862 185.994  0.00  0.00    +0.000 HD
ENDBRANCH  24  28
ENDBRANCH  18  20
ENDBRANCH   5  19
TORSDOF 8
ENDMDL
MODEL 8
REMARK VINA RESULT:      -6.6      6.419     12.464
REMARK  Name = 969516_Curcumin.pdbqt.pdb
REMARK  8 active torsions:
REMARK  status: ('A' for Active; 'I' for Inactive)
REMARK    1  A    between atoms: C_3  and  C_5
REMARK    2  A    between atoms: C_4  and  C_6
REMARK    3  A    between atoms: C_8  and  O_12
REMARK    4  A    between atoms: C_10  and  O_14
REMARK    5  A    between atoms: C_17  and  C_19
REMARK    6  A    between atoms: C_18  and  C_20
REMARK    7  A    between atoms: C_22  and  O_26
REMARK    8  A    between atoms: C_24  and  O_28
REMARK                            x       y       z     vdW  Elec       q    Type
REMARK                         _______ _______ _______ _____ _____    ______ ____
ROOT
ATOM      1  C   UNL     1      25.888   2.586 190.644  0.00  0.00    +0.000 C 
ATOM      2  O   UNL     1      26.491   1.293 188.849  0.00  0.00    +0.000 OA
ATOM      3  C   UNL     1      26.810   2.170 189.639  0.00  0.00    +0.000 C 
ATOM      4  O   UNL     1      25.364   3.637 192.612  0.00  0.00    +0.000 OA
ATOM      5  C   UNL     1      24.966   2.996 191.649  0.00  0.00    +0.000 C 
ENDROOT
BRANCH   3   7
ATOM      6  C   UNL     1      29.192   3.303 189.492  0.00  0.00    +0.000 C 
ATOM      7  C   UNL     1      28.109   2.789 189.559  0.00  0.00    +0.000 C 
BRANCH   6   8
ATOM      8  C   UNL     1      30.479   3.914 189.411  0.00  0.00    +0.000 A 
ATOM      9  C   UNL     1      31.627   3.132 189.529  0.00  0.00    +0.000 A 
ATOM     10  C   UNL     1      32.896   3.714 189.453  0.00  0.00    +0.000 A 
ATOM     11  C   UNL     1      30.586   5.288 189.216  0.00  0.00    +0.000 A 
ATOM     12  C   UNL     1      32.992   5.096 189.255  0.00  0.00    +0.000 A 
ATOM     13  C   UNL     1      31.844   5.879 189.137  0.00  0.00    +0.000 A 
BRANCH  10  14
ATOM     14  O   UNL     1      34.070   3.010 189.558  0.00  0.00    +0.000 OA
ATOM     15  C   UNL     1      34.258   2.304 190.753  0.00  0.00    +0.000 C 
ENDBRANCH  10  14
BRANCH  12  16
ATOM     16  O   UNL     1      34.188   5.754 189.167  0.00  0.00    +0.000 OA
ATOM     17  H   UNL     1      34.091   6.573 188.654  0.00  0.00    +0.000 HD
ENDBRANCH  12  16
ENDBRANCH   6   8
ENDBRANCH   3   7
BRANCH   5  19
ATOM     18  C   UNL     1      22.410   2.370 191.418  0.00  0.00    +0.000 C 
ATOM     19  C   UNL     1      23.572   2.656 191.525  0.00  0.00    +0.000 C 
BRANCH  18  20
ATOM     20  C   UNL     1      21.031   2.033 191.286  0.00  0.00    +0.000 A 
ATOM     21  C   UNL     1      20.303   1.633 192.406  0.00  0.00    +0.000 A 
ATOM     22  C   UNL     1      18.951   1.300 192.293  0.00  0.00    +0.000 A 
ATOM     23  C   UNL     1      20.412   2.105 190.039  0.00  0.00    +0.000 A 
ATOM     24  C   UNL     1      18.344   1.376 191.037  0.00  0.00    +0.000 A 
ATOM     25  C   UNL     1      19.066   1.776 189.914  0.00  0.00    +0.000 A 
BRANCH  22  26
ATOM     26  O   UNL     1      18.162   0.896 193.343  0.00  0.00    +0.000 OA
ATOM     27  C   UNL     1      18.765   0.004 194.244  0.00  0.00    +0.000 C 
ENDBRANCH  22  26
BRANCH  24  28
ATOM     28  O   UNL     1      17.020   1.055 190.906  0.00  0.00    +0.000 OA
ATOM     29  H   UNL     1      16.856   0.778 189.984  0.00  0.00    +0.000 HD
ENDBRANCH  24  28
ENDBRANCH  18  20
ENDBRANCH   5  19
TORSDOF 8
ENDMDL
MODEL 9
REMARK VINA RESULT:      -6.5      2.428      2.726
REMARK  Name = 969516_Curcumin.pdbqt.pdb
REMARK  8 active torsions:
REMARK  status: ('A' for Active; 'I' for Inactive)
REMARK    1  A    between atoms: C_3  and  C_5
REMARK    2  A    between atoms: C_4  and  C_6
REMARK    3  A    between atoms: C_8  and  O_12
REMARK    4  A    between atoms: C_10  and  O_14
REMARK    5  A    between atoms: C_17  and  C_19
REMARK    6  A    between atoms: C_18  and  C_20
REMARK    7  A    between atoms: C_22  and  O_26
REMARK    8  A    between atoms: C_24  and  O_28
REMARK                            x       y       z     vdW  Elec       q    Type
REMARK                         _______ _______ _______ _____ _____    ______ ____
ROOT
ATOM      1  C   UNL     1      20.149   1.096 193.569  0.00  0.00    +0.000 C 
ATOM      2  O   UNL     1      22.322   0.778 194.226  0.00  0.00    +0.000 OA
ATOM      3  C   UNL     1      21.159   0.935 194.563  0.00  0.00    +0.000 C 
ATOM      4  O   UNL     1      17.966   1.109 192.873  0.00  0.00    +0.000 OA
ATOM      5  C   UNL     1      19.142   1.251 192.573  0.00  0.00    +0.000 C 
ENDROOT
BRANCH   3   7
ATOM      6  C   UNL     1      20.499   0.988 197.121  0.00  0.00    +0.000 C 
ATOM      7  C   UNL     1      20.799   0.964 195.959  0.00  0.00    +0.000 C 
BRANCH   6   8
ATOM      8  C   UNL     1      20.141   1.016 198.502  0.00  0.00    +0.000 A 
ATOM      9  C   UNL     1      19.008   0.330 198.940  0.00  0.00    +0.000 A 
ATOM     10  C   UNL     1      18.643   0.347 200.289  0.00  0.00    +0.000 A 
ATOM     11  C   UNL     1      20.921   1.727 199.409  0.00  0.00    +0.000 A 
ATOM     12  C   UNL     1      19.434   1.064 201.192  0.00  0.00    +0.000 A 
ATOM     13  C   UNL     1      20.567   1.750 200.755  0.00  0.00    +0.000 A 
BRANCH  10  14
ATOM     14  O   UNL     1      17.544  -0.304 200.793  0.00  0.00    +0.000 OA
ATOM     15  C   UNL     1      16.306   0.306 200.559  0.00  0.00    +0.000 C 
ENDBRANCH  10  14
BRANCH  12  16
ATOM     16  O   UNL     1      19.157   1.138 202.529  0.00  0.00    +0.000 OA
ATOM     17  H   UNL     1      18.461   0.503 202.770  0.00  0.00    +0.000 HD
ENDBRANCH  12  16
ENDBRANCH   6   8
ENDBRANCH   3   7
BRANCH   5  19
ATOM     18  C   UNL     1      19.833   1.848 190.094  0.00  0.00    +0.000 C 
ATOM     19  C   UNL     1      19.517   1.578 191.221  0.00  0.00    +0.000 C 
BRANCH  18  20
ATOM     20  C   UNL     1      20.212   2.172 188.758  0.00  0.00    +0.000 A 
ATOM     21  C   UNL     1      21.531   1.988 188.347  0.00  0.00    +0.000 A 
ATOM     22  C   UNL     1      21.918   2.300 187.040  0.00  0.00    +0.000 A 
ATOM     23  C   UNL     1      19.264   2.669 187.866  0.00  0.00    +0.000 A 
ATOM     24  C   UNL     1      20.957   2.798 186.157  0.00  0.00    +0.000 A 
ATOM     25  C   UNL     1      19.637   2.984 186.563  0.00  0.00    +0.000 A 
BRANCH  22  26
ATOM     26  O   UNL     1      23.195   2.150 186.554  0.00  0.00    +0.000 OA
ATOM     27  C   UNL     1      24.085   1.463 187.395  0.00  0.00    +0.000 C 
ENDBRANCH  22  26
BRANCH  24  28
ATOM     28  O   UNL     1      21.317   3.109 184.874  0.00  0.00    +0.000 OA
ATOM     29  H   UNL     1      21.512   2.282 184.395  0.00  0.00    +0.000 HD
ENDBRANCH  24  28
ENDBRANCH  18  20
ENDBRANCH   5  19
TORSDOF 8
ENDMDL
