MODEL 1
REMARK VINA RESULT:      -4.1      0.000      0.000
REMARK  Name = 971_OxalicAcid.pdbqt.pdb
REMARK  3 active torsions:
REMARK  status: ('A' for Active; 'I' for Inactive)
REMARK    1  A    between atoms: C_2  and  O_3
REMARK    2  A    between atoms: C_2  and  C_6
REMARK    3  A    between atoms: C_6  and  O_7
REMARK                            x       y       z     vdW  Elec       q    Type
REMARK                         _______ _______ _______ _____ _____    ______ ____
ROOT
ATOM      1  O   UNL     1      30.769  -0.691 167.565  0.00  0.00    +0.000 OA
ATOM      2  C   UNL     1      30.260   0.213 168.198  0.00  0.00    +0.000 C 
ENDROOT
BRANCH   2   3
ATOM      3  O   UNL     1      29.202   0.011 168.996  0.00  0.00    +0.000 OA
ATOM      4  H   UNL     1      29.587  -0.108 169.888  0.00  0.00    +0.000 HD
ENDBRANCH   2   3
BRANCH   2   6
ATOM      5  O   UNL     1      31.806   2.095 167.783  0.00  0.00    +0.000 OA
ATOM      6  C   UNL     1      30.732   1.700 168.190  0.00  0.00    +0.000 C 
BRANCH   6   7
ATOM      7  O   UNL     1      29.812   2.537 168.691  0.00  0.00    +0.000 OA
ATOM      8  H   UNL     1      30.296   3.059 169.361  0.00  0.00    +0.000 HD
ENDBRANCH   6   7
ENDBRANCH   2   6
TORSDOF 3
ENDMDL
MODEL 2
REMARK VINA RESULT:      -4.1      1.059      2.763
REMARK  Name = 971_OxalicAcid.pdbqt.pdb
REMARK  3 active torsions:
REMARK  status: ('A' for Active; 'I' for Inactive)
REMARK    1  A    between atoms: C_2  and  O_3
REMARK    2  A    between atoms: C_2  and  C_6
REMARK    3  A    between atoms: C_6  and  O_7
REMARK                            x       y       z     vdW  Elec       q    Type
REMARK                         _______ _______ _______ _____ _____    ______ ____
ROOT
ATOM      1  O   UNL     1      31.411   2.066 168.299  0.00  0.00    +0.000 OA
ATOM      2  C   UNL     1      30.717   1.105 168.568  0.00  0.00    +0.000 C 
ENDROOT
BRANCH   2   3
ATOM      3  O   UNL     1      29.707   1.183 169.445  0.00  0.00    +0.000 OA
ATOM      4  H   UNL     1      29.690   2.123 169.715  0.00  0.00    +0.000 HD
ENDBRANCH   2   3
BRANCH   2   6
ATOM      5  O   UNL     1      29.971  -1.105 167.751  0.00  0.00    +0.000 OA
ATOM      6  C   UNL     1      30.878  -0.324 167.962  0.00  0.00    +0.000 C 
BRANCH   6   7
ATOM      7  O   UNL     1      32.154  -0.626 167.683  0.00  0.00    +0.000 OA
ATOM      8  H   UNL     1      32.669   0.115 168.060  0.00  0.00    +0.000 HD
ENDBRANCH   6   7
ENDBRANCH   2   6
TORSDOF 3
ENDMDL
MODEL 3
REMARK VINA RESULT:      -3.7      1.754      2.086
REMARK  Name = 971_OxalicAcid.pdbqt.pdb
REMARK  3 active torsions:
REMARK  status: ('A' for Active; 'I' for Inactive)
REMARK    1  A    between atoms: C_2  and  O_3
REMARK    2  A    between atoms: C_2  and  C_6
REMARK    3  A    between atoms: C_6  and  O_7
REMARK                            x       y       z     vdW  Elec       q    Type
REMARK                         _______ _______ _______ _____ _____    ______ ____
ROOT
ATOM      1  O   UNL     1      30.711  -0.518 166.123  0.00  0.00    +0.000 OA
ATOM      2  C   UNL     1      31.360   0.033 166.990  0.00  0.00    +0.000 C 
ENDROOT
BRANCH   2   3
ATOM      3  O   UNL     1      32.170  -0.649 167.811  0.00  0.00    +0.000 OA
ATOM      4  H   UNL     1      32.139  -1.568 167.477  0.00  0.00    +0.000 HD
ENDBRANCH   2   3
BRANCH   2   6
ATOM      5  O   UNL     1      31.354   2.071 168.389  0.00  0.00    +0.000 OA
ATOM      6  C   UNL     1      31.359   1.566 167.283  0.00  0.00    +0.000 C 
BRANCH   6   7
ATOM      7  O   UNL     1      31.365   2.306 166.166  0.00  0.00    +0.000 OA
ATOM      8  H   UNL     1      31.726   3.170 166.446  0.00  0.00    +0.000 HD
ENDBRANCH   6   7
ENDBRANCH   2   6
TORSDOF 3
ENDMDL
MODEL 4
REMARK VINA RESULT:      -3.6      1.458      2.490
REMARK  Name = 971_OxalicAcid.pdbqt.pdb
REMARK  3 active torsions:
REMARK  status: ('A' for Active; 'I' for Inactive)
REMARK    1  A    between atoms: C_2  and  O_3
REMARK    2  A    between atoms: C_2  and  C_6
REMARK    3  A    between atoms: C_6  and  O_7
REMARK                            x       y       z     vdW  Elec       q    Type
REMARK                         _______ _______ _______ _____ _____    ______ ____
ROOT
ATOM      1  O   UNL     1      32.147  -0.606 167.606  0.00  0.00    +0.000 OA
ATOM      2  C   UNL     1      31.134   0.061 167.534  0.00  0.00    +0.000 C 
ENDROOT
BRANCH   2   3
ATOM      3  O   UNL     1      30.981   1.021 166.612  0.00  0.00    +0.000 OA
ATOM      4  H   UNL     1      31.642   1.701 166.855  0.00  0.00    +0.000 HD
ENDBRANCH   2   3
BRANCH   2   6
ATOM      5  O   UNL     1      29.132  -1.033 168.484  0.00  0.00    +0.000 OA
ATOM      6  C   UNL     1      29.890  -0.083 168.464  0.00  0.00    +0.000 C 
BRANCH   6   7
ATOM      7  O   UNL     1      29.723   0.974 169.272  0.00  0.00    +0.000 OA
ATOM      8  H   UNL     1      30.454   1.580 169.036  0.00  0.00    +0.000 HD
ENDBRANCH   6   7
ENDBRANCH   2   6
TORSDOF 3
ENDMDL
MODEL 5
REMARK VINA RESULT:      -3.6     16.935     17.651
REMARK  Name = 971_OxalicAcid.pdbqt.pdb
REMARK  3 active torsions:
REMARK  status: ('A' for Active; 'I' for Inactive)
REMARK    1  A    between atoms: C_2  and  O_3
REMARK    2  A    between atoms: C_2  and  C_6
REMARK    3  A    between atoms: C_6  and  O_7
REMARK                            x       y       z     vdW  Elec       q    Type
REMARK                         _______ _______ _______ _____ _____    ______ ____
ROOT
ATOM      1  O   UNL     1      21.317   3.881 182.508  0.00  0.00    +0.000 OA
ATOM      2  C   UNL     1      22.239   4.648 182.707  0.00  0.00    +0.000 C 
ENDROOT
BRANCH   2   3
ATOM      3  O   UNL     1      22.951   5.175 181.701  0.00  0.00    +0.000 OA
ATOM      4  H   UNL     1      23.162   6.082 182.001  0.00  0.00    +0.000 HD
ENDBRANCH   2   3
BRANCH   2   6
ATOM      5  O   UNL     1      22.062   5.129 185.124  0.00  0.00    +0.000 OA
ATOM      6  C   UNL     1      22.729   5.128 184.108  0.00  0.00    +0.000 C 
BRANCH   6   7
ATOM      7  O   UNL     1      23.999   5.556 184.092  0.00  0.00    +0.000 OA
ATOM      8  H   UNL     1      23.961   6.418 183.632  0.00  0.00    +0.000 HD
ENDBRANCH   6   7
ENDBRANCH   2   6
TORSDOF 3
ENDMDL
MODEL 6
REMARK VINA RESULT:      -3.5     31.199     32.274
REMARK  Name = 971_OxalicAcid.pdbqt.pdb
REMARK  3 active torsions:
REMARK  status: ('A' for Active; 'I' for Inactive)
REMARK    1  A    between atoms: C_2  and  O_3
REMARK    2  A    between atoms: C_2  and  C_6
REMARK    3  A    between atoms: C_6  and  O_7
REMARK                            x       y       z     vdW  Elec       q    Type
REMARK                         _______ _______ _______ _____ _____    ______ ____
ROOT
ATOM      1  O   UNL     1      20.159 -27.429 178.148  0.00  0.00    +0.000 OA
ATOM      2  C   UNL     1      20.784 -27.879 177.208  0.00  0.00    +0.000 C 
ENDROOT
BRANCH   2   3
ATOM      3  O   UNL     1      22.010 -27.438 176.896  0.00  0.00    +0.000 OA
ATOM      4  H   UNL     1      21.854 -26.679 176.300  0.00  0.00    +0.000 HD
ENDBRANCH   2   3
BRANCH   2   6
ATOM      5  O   UNL     1      20.994 -29.694 175.544  0.00  0.00    +0.000 OA
ATOM      6  C   UNL     1      20.284 -29.000 176.245  0.00  0.00    +0.000 C 
BRANCH   6   7
ATOM      7  O   UNL     1      18.951 -29.136 176.257  0.00  0.00    +0.000 OA
ATOM      8  H   UNL     1      18.803 -30.103 176.251  0.00  0.00    +0.000 HD
ENDBRANCH   6   7
ENDBRANCH   2   6
TORSDOF 3
ENDMDL
MODEL 7
REMARK VINA RESULT:      -3.5     31.142     32.411
REMARK  Name = 971_OxalicAcid.pdbqt.pdb
REMARK  3 active torsions:
REMARK  status: ('A' for Active; 'I' for Inactive)
REMARK    1  A    between atoms: C_2  and  O_3
REMARK    2  A    between atoms: C_2  and  C_6
REMARK    3  A    between atoms: C_6  and  O_7
REMARK                            x       y       z     vdW  Elec       q    Type
REMARK                         _______ _______ _______ _____ _____    ______ ____
ROOT
ATOM      1  O   UNL     1      22.251 -27.669 177.196  0.00  0.00    +0.000 OA
ATOM      2  C   UNL     1      21.175 -27.657 177.762  0.00  0.00    +0.000 C 
ENDROOT
BRANCH   2   3
ATOM      3  O   UNL     1      20.315 -26.638 177.629  0.00  0.00    +0.000 OA
ATOM      4  H   UNL     1      20.046 -26.666 176.689  0.00  0.00    +0.000 HD
ENDBRANCH   2   3
BRANCH   2   6
ATOM      5  O   UNL     1      19.786 -28.635 179.557  0.00  0.00    +0.000 OA
ATOM      6  C   UNL     1      20.635 -28.781 178.700  0.00  0.00    +0.000 C 
BRANCH   6   7
ATOM      7  O   UNL     1      21.212 -29.969 178.469  0.00  0.00    +0.000 OA
ATOM      8  H   UNL     1      20.739 -30.324 177.690  0.00  0.00    +0.000 HD
ENDBRANCH   6   7
ENDBRANCH   2   6
TORSDOF 3
ENDMDL
MODEL 8
REMARK VINA RESULT:      -3.2     13.311     14.162
REMARK  Name = 971_OxalicAcid.pdbqt.pdb
REMARK  3 active torsions:
REMARK  status: ('A' for Active; 'I' for Inactive)
REMARK    1  A    between atoms: C_2  and  O_3
REMARK    2  A    between atoms: C_2  and  C_6
REMARK    3  A    between atoms: C_6  and  O_7
REMARK                            x       y       z     vdW  Elec       q    Type
REMARK                         _______ _______ _______ _____ _____    ______ ____
ROOT
ATOM      1  O   UNL     1      44.201  -5.627 166.403  0.00  0.00    +0.000 OA
ATOM      2  C   UNL     1      43.193  -5.246 166.965  0.00  0.00    +0.000 C 
ENDROOT
BRANCH   2   3
ATOM      3  O   UNL     1      42.666  -4.036 166.732  0.00  0.00    +0.000 OA
ATOM      4  H   UNL     1      42.073  -3.876 167.493  0.00  0.00    +0.000 HD
ENDBRANCH   2   3
BRANCH   2   6
ATOM      5  O   UNL     1      42.506  -7.254 168.231  0.00  0.00    +0.000 OA
ATOM      6  C   UNL     1      42.375  -6.066 168.011  0.00  0.00    +0.000 C 
BRANCH   6   7
ATOM      7  O   UNL     1      41.481  -5.317 168.671  0.00  0.00    +0.000 OA
ATOM      8  H   UNL     1      41.757  -4.395 168.495  0.00  0.00    +0.000 HD
ENDBRANCH   6   7
ENDBRANCH   2   6
TORSDOF 3
ENDMDL
MODEL 9
REMARK VINA RESULT:      -3.2     10.279     11.050
REMARK  Name = 971_OxalicAcid.pdbqt.pdb
REMARK  3 active torsions:
REMARK  status: ('A' for Active; 'I' for Inactive)
REMARK    1  A    between atoms: C_2  and  O_3
REMARK    2  A    between atoms: C_2  and  C_6
REMARK    3  A    between atoms: C_6  and  O_7
REMARK                            x       y       z     vdW  Elec       q    Type
REMARK                         _______ _______ _______ _____ _____    ______ ____
ROOT
ATOM      1  O   UNL     1      27.462  -8.494 166.896  0.00  0.00    +0.000 OA
ATOM      2  C   UNL     1      27.101  -8.925 167.973  0.00  0.00    +0.000 C 
ENDROOT
BRANCH   2   3
ATOM      3  O   UNL     1      27.976  -9.279 168.925  0.00  0.00    +0.000 OA
ATOM      4  H   UNL     1      27.454  -9.272 169.752  0.00  0.00    +0.000 HD
ENDBRANCH   2   3
BRANCH   2   6
ATOM      5  O   UNL     1      24.691  -9.380 167.669  0.00  0.00    +0.000 OA
ATOM      6  C   UNL     1      25.618  -9.129 168.414  0.00  0.00    +0.000 C 
BRANCH   6   7
ATOM      7  O   UNL     1      25.449  -8.998 169.737  0.00  0.00    +0.000 OA
ATOM      8  H   UNL     1      24.674  -9.558 169.941  0.00  0.00    +0.000 HD
ENDBRANCH   6   7
ENDBRANCH   2   6
TORSDOF 3
ENDMDL
