MODEL 1
REMARK VINA RESULT:      -6.8      0.000      0.000
REMARK  Name = 9852185_GambogicAcid.pdbqt.pdb
REMARK  10 active torsions:
REMARK  status: ('A' for Active; 'I' for Inactive)
REMARK    1  A    between atoms: C_8  and  C_30
REMARK    2  A    between atoms: C_20  and  C_38
REMARK    3  A    between atoms: C_21  and  O_28
REMARK    4  A    between atoms: C_25  and  C_43
REMARK    5  A    between atoms: C_31  and  C_32
REMARK    6  A    between atoms: C_32  and  C_35
REMARK    7  A    between atoms: C_35  and  O_36
REMARK    8  A    between atoms: C_39  and  C_40
REMARK    9  A    between atoms: C_43  and  C_44
REMARK   10  A    between atoms: C_45  and  C_46
REMARK                            x       y       z     vdW  Elec       q    Type
REMARK                         _______ _______ _______ _____ _____    ______ ____
ROOT
ATOM      1  O   UNL     1      39.101 -28.000 173.797  0.00  0.00    +0.000 OA
ATOM      2  O   UNL     1      39.781 -25.202 173.850  0.00  0.00    +0.000 OA
ATOM      3  O   UNL     1      36.402 -28.471 175.398  0.00  0.00    +0.000 OA
ATOM      4  O   UNL     1      38.255 -22.833 176.852  0.00  0.00    +0.000 OA
ATOM      5  O   UNL     1      42.667 -21.744 172.335  0.00  0.00    +0.000 OA
ATOM      6  C   UNL     1      39.066 -25.868 174.882  0.00  0.00    +0.000 C 
ATOM      7  C   UNL     1      39.964 -26.870 175.692  0.00  0.00    +0.000 C 
ATOM      8  C   UNL     1      38.168 -27.034 174.303  0.00  0.00    +0.000 C 
ATOM      9  C   UNL     1      40.256 -27.957 174.652  0.00  0.00    +0.000 C 
ATOM     10  C   UNL     1      39.203 -27.257 176.881  0.00  0.00    +0.000 C 
ATOM     11  C   UNL     1      37.761 -27.082 176.877  0.00  0.00    +0.000 C 
ATOM     12  C   UNL     1      38.244 -24.931 175.783  0.00  0.00    +0.000 C 
ATOM     13  C   UNL     1      37.294 -27.646 175.504  0.00  0.00    +0.000 C 
ATOM     14  C   UNL     1      37.536 -25.662 176.785  0.00  0.00    +0.000 C 
ATOM     15  C   UNL     1      40.428 -29.341 175.295  0.00  0.00    +0.000 C 
ATOM     16  C   UNL     1      41.502 -27.584 173.833  0.00  0.00    +0.000 C 
ATOM     17  C   UNL     1      38.698 -23.554 175.968  0.00  0.00    +0.000 C 
ATOM     18  C   UNL     1      40.226 -23.923 174.049  0.00  0.00    +0.000 A 
ATOM     19  C   UNL     1      39.743 -23.074 175.054  0.00  0.00    +0.000 A 
ATOM     20  C   UNL     1      41.199 -23.456 173.139  0.00  0.00    +0.000 A 
ATOM     21  C   UNL     1      40.241 -21.767 175.183  0.00  0.00    +0.000 A 
ATOM     22  C   UNL     1      41.698 -22.154 173.255  0.00  0.00    +0.000 A 
ATOM     23  C   UNL     1      41.210 -21.318 174.290  0.00  0.00    +0.000 A 
ATOM     24  C   UNL     1      41.788 -20.024 174.299  0.00  0.00    +0.000 C 
ATOM     25  C   UNL     1      43.182 -20.354 172.357  0.00  0.00    +0.000 C 
ATOM     26  C   UNL     1      42.587 -19.653 173.496  0.00  0.00    +0.000 C 
ATOM     27  C   UNL     1      42.784 -19.710 171.005  0.00  0.00    +0.000 C 
ENDROOT
BRANCH  21  28
ATOM     28  O   UNL     1      39.813 -20.903 176.155  0.00  0.00    +0.000 OA
ATOM     29  H   UNL     1      39.268 -20.189 175.752  0.00  0.00    +0.000 HD
ENDBRANCH  21  28
BRANCH   8  30
ATOM     30  C   UNL     1      37.295 -26.580 173.211  0.00  0.00    +0.000 C 
ATOM     31  C   UNL     1      36.413 -26.133 172.035  0.00  0.00    +0.000 C 
BRANCH  31  32
ATOM     32  C   UNL     1      35.710 -25.763 171.002  0.00  0.00    +0.000 C 
ATOM     33  C   UNL     1      35.295 -26.891 170.076  0.00  0.00    +0.000 C 
BRANCH  32  35
ATOM     34  O   UNL     1      36.081 -23.477 170.317  0.00  0.00    +0.000 OA
ATOM     35  C   UNL     1      35.357 -24.330 170.809  0.00  0.00    +0.000 C 
BRANCH  35  36
ATOM     36  O   UNL     1      34.117 -24.002 171.231  0.00  0.00    +0.000 OA
ATOM     37  H   UNL     1      34.167 -24.018 172.210  0.00  0.00    +0.000 HD
ENDBRANCH  35  36
ENDBRANCH  32  35
ENDBRANCH  31  32
ENDBRANCH   8  30
BRANCH  20  38
ATOM     38  C   UNL     1      41.679 -24.318 172.097  0.00  0.00    +0.000 C 
ATOM     39  C   UNL     1      42.209 -25.217 170.971  0.00  0.00    +0.000 C 
BRANCH  39  40
ATOM     40  C   UNL     1      42.670 -25.962 170.015  0.00  0.00    +0.000 C 
ATOM     41  C   UNL     1      44.153 -26.081 169.827  0.00  0.00    +0.000 C 
ATOM     42  C   UNL     1      41.746 -26.879 169.275  0.00  0.00    +0.000 C 
ENDBRANCH  39  40
ENDBRANCH  20  38
BRANCH  25  43
ATOM     43  C   UNL     1      44.650 -20.441 172.478  0.00  0.00    +0.000 C 
BRANCH  43  44
ATOM     44  C   UNL     1      46.176 -20.525 172.597  0.00  0.00    +0.000 C 
ATOM     45  C   UNL     1      47.705 -20.611 172.715  0.00  0.00    +0.000 C 
BRANCH  45  46
ATOM     46  C   UNL     1      48.995 -20.692 172.817  0.00  0.00    +0.000 C 
ATOM     47  C   UNL     1      49.802 -21.147 171.641  0.00  0.00    +0.000 C 
ATOM     48  C   UNL     1      49.655 -20.504 174.147  0.00  0.00    +0.000 C 
ENDBRANCH  45  46
ENDBRANCH  43  44
ENDBRANCH  25  43
TORSDOF 10
ENDMDL
MODEL 2
REMARK VINA RESULT:      -6.5     35.341     38.777
REMARK  Name = 9852185_GambogicAcid.pdbqt.pdb
REMARK  10 active torsions:
REMARK  status: ('A' for Active; 'I' for Inactive)
REMARK    1  A    between atoms: C_8  and  C_30
REMARK    2  A    between atoms: C_20  and  C_38
REMARK    3  A    between atoms: C_21  and  O_28
REMARK    4  A    between atoms: C_25  and  C_43
REMARK    5  A    between atoms: C_31  and  C_32
REMARK    6  A    between atoms: C_32  and  C_35
REMARK    7  A    between atoms: C_35  and  O_36
REMARK    8  A    between atoms: C_39  and  C_40
REMARK    9  A    between atoms: C_43  and  C_44
REMARK   10  A    between atoms: C_45  and  C_46
REMARK                            x       y       z     vdW  Elec       q    Type
REMARK                         _______ _______ _______ _____ _____    ______ ____
ROOT
ATOM      1  O   UNL     1      23.205   9.785 169.736  0.00  0.00    +0.000 OA
ATOM      2  O   UNL     1      24.651  10.194 167.279  0.00  0.00    +0.000 OA
ATOM      3  O   UNL     1      24.003  12.036 171.827  0.00  0.00    +0.000 OA
ATOM      4  O   UNL     1      28.160  12.346 167.360  0.00  0.00    +0.000 OA
ATOM      5  O   UNL     1      25.346   8.877 162.766  0.00  0.00    +0.000 OA
ATOM      6  C   UNL     1      25.141  10.559 168.561  0.00  0.00    +0.000 C 
ATOM      7  C   UNL     1      25.510   9.316 169.447  0.00  0.00    +0.000 C 
ATOM      8  C   UNL     1      23.965  10.986 169.529  0.00  0.00    +0.000 C 
ATOM      9  C   UNL     1      24.136   8.689 169.714  0.00  0.00    +0.000 C 
ATOM     10  C   UNL     1      26.260   9.820 170.597  0.00  0.00    +0.000 C 
ATOM     11  C   UNL     1      26.134  11.222 170.955  0.00  0.00    +0.000 C 
ATOM     12  C   UNL     1      26.248  11.627 168.531  0.00  0.00    +0.000 C 
ATOM     13  C   UNL     1      24.606  11.510 170.906  0.00  0.00    +0.000 C 
ATOM     14  C   UNL     1      26.683  11.963 169.849  0.00  0.00    +0.000 C 
ATOM     15  C   UNL     1      24.079   7.985 171.077  0.00  0.00    +0.000 C 
ATOM     16  C   UNL     1      23.771   7.713 168.585  0.00  0.00    +0.000 C 
ATOM     17  C   UNL     1      27.115  11.710 167.356  0.00  0.00    +0.000 C 
ATOM     18  C   UNL     1      25.483  10.247 166.193  0.00  0.00    +0.000 A 
ATOM     19  C   UNL     1      26.688  10.963 166.166  0.00  0.00    +0.000 A 
ATOM     20  C   UNL     1      25.043   9.563 165.039  0.00  0.00    +0.000 A 
ATOM     21  C   UNL     1      27.479  10.982 165.005  0.00  0.00    +0.000 A 
ATOM     22  C   UNL     1      25.821   9.579 163.877  0.00  0.00    +0.000 A 
ATOM     23  C   UNL     1      27.046  10.293 163.876  0.00  0.00    +0.000 A 
ATOM     24  C   UNL     1      27.737  10.239 162.641  0.00  0.00    +0.000 C 
ATOM     25  C   UNL     1      26.085   8.917 161.481  0.00  0.00    +0.000 C 
ATOM     26  C   UNL     1      27.322   9.674 161.676  0.00  0.00    +0.000 C 
ATOM     27  C   UNL     1      25.147   9.590 160.448  0.00  0.00    +0.000 C 
ENDROOT
BRANCH  21  28
ATOM     28  O   UNL     1      28.670  11.654 164.931  0.00  0.00    +0.000 OA
ATOM     29  H   UNL     1      29.144  11.590 165.791  0.00  0.00    +0.000 HD
ENDBRANCH  21  28
BRANCH   8  30
ATOM     30  C   UNL     1      23.099  12.016 168.939  0.00  0.00    +0.000 C 
ATOM     31  C   UNL     1      22.180  13.109 168.373  0.00  0.00    +0.000 C 
BRANCH  31  32
ATOM     32  C   UNL     1      21.371  14.035 167.940  0.00  0.00    +0.000 C 
ATOM     33  C   UNL     1      21.372  14.230 166.436  0.00  0.00    +0.000 C 
BRANCH  32  35
ATOM     34  O   UNL     1      20.184  15.965 168.776  0.00  0.00    +0.000 OA
ATOM     35  C   UNL     1      20.522  14.796 168.896  0.00  0.00    +0.000 C 
BRANCH  35  36
ATOM     36  O   UNL     1      20.119  14.085 169.970  0.00  0.00    +0.000 OA
ATOM     37  H   UNL     1      19.439  13.467 169.628  0.00  0.00    +0.000 HD
ENDBRANCH  35  36
ENDBRANCH  32  35
ENDBRANCH  31  32
ENDBRANCH   8  30
BRANCH  20  38
ATOM     38  C   UNL     1      23.800   8.847 165.061  0.00  0.00    +0.000 C 
ATOM     39  C   UNL     1      22.480   8.062 165.063  0.00  0.00    +0.000 C 
BRANCH  39  40
ATOM     40  C   UNL     1      21.376   7.383 165.053  0.00  0.00    +0.000 C 
ATOM     41  C   UNL     1      20.876   6.810 163.761  0.00  0.00    +0.000 C 
ATOM     42  C   UNL     1      20.745   6.971 166.348  0.00  0.00    +0.000 C 
ENDBRANCH  39  40
ENDBRANCH  20  38
BRANCH  25  43
ATOM     43  C   UNL     1      26.358   7.518 161.099  0.00  0.00    +0.000 C 
BRANCH  43  44
ATOM     44  C   UNL     1      26.650   6.065 160.704  0.00  0.00    +0.000 C 
ATOM     45  C   UNL     1      26.942   4.610 160.311  0.00  0.00    +0.000 C 
BRANCH  45  46
ATOM     46  C   UNL     1      27.195   3.381 159.983  0.00  0.00    +0.000 C 
ATOM     47  C   UNL     1      26.542   2.265 160.739  0.00  0.00    +0.000 C 
ATOM     48  C   UNL     1      28.264   3.079 158.980  0.00  0.00    +0.000 C 
ENDBRANCH  45  46
ENDBRANCH  43  44
ENDBRANCH  25  43
TORSDOF 10
ENDMDL
MODEL 3
REMARK VINA RESULT:      -6.3     17.783     22.302
REMARK  Name = 9852185_GambogicAcid.pdbqt.pdb
REMARK  10 active torsions:
REMARK  status: ('A' for Active; 'I' for Inactive)
REMARK    1  A    between atoms: C_8  and  C_30
REMARK    2  A    between atoms: C_20  and  C_38
REMARK    3  A    between atoms: C_21  and  O_28
REMARK    4  A    between atoms: C_25  and  C_43
REMARK    5  A    between atoms: C_31  and  C_32
REMARK    6  A    between atoms: C_32  and  C_35
REMARK    7  A    between atoms: C_35  and  O_36
REMARK    8  A    between atoms: C_39  and  C_40
REMARK    9  A    between atoms: C_43  and  C_44
REMARK   10  A    between atoms: C_45  and  C_46
REMARK                            x       y       z     vdW  Elec       q    Type
REMARK                         _______ _______ _______ _____ _____    ______ ____
ROOT
ATOM      1  O   UNL     1      40.385  -7.611 162.561  0.00  0.00    +0.000 OA
ATOM      2  O   UNL     1      42.424  -5.935 163.714  0.00  0.00    +0.000 OA
ATOM      3  O   UNL     1      40.051 -10.237 164.311  0.00  0.00    +0.000 OA
ATOM      4  O   UNL     1      45.263  -7.639 166.161  0.00  0.00    +0.000 OA
ATOM      5  O   UNL     1      44.732  -1.781 163.619  0.00  0.00    +0.000 OA
ATOM      6  C   UNL     1      42.410  -7.352 163.809  0.00  0.00    +0.000 C 
ATOM      7  C   UNL     1      42.709  -8.056 162.437  0.00  0.00    +0.000 C 
ATOM      8  C   UNL     1      40.933  -7.914 163.854  0.00  0.00    +0.000 C 
ATOM      9  C   UNL     1      41.464  -7.705 161.615  0.00  0.00    +0.000 C 
ATOM     10  C   UNL     1      42.953  -9.469 162.728  0.00  0.00    +0.000 C 
ATOM     11  C   UNL     1      42.460 -10.022 163.978  0.00  0.00    +0.000 C 
ATOM     12  C   UNL     1      43.251  -7.912 164.969  0.00  0.00    +0.000 C 
ATOM     13  C   UNL     1      41.000  -9.500 164.096  0.00  0.00    +0.000 C 
ATOM     14  C   UNL     1      43.179  -9.338 165.022  0.00  0.00    +0.000 C 
ATOM     15  C   UNL     1      41.115  -8.801 160.599  0.00  0.00    +0.000 C 
ATOM     16  C   UNL     1      41.660  -6.355 160.907  0.00  0.00    +0.000 C 
ATOM     17  C   UNL     1      44.410  -7.151 165.431  0.00  0.00    +0.000 C 
ATOM     18  C   UNL     1      43.529  -5.237 164.122  0.00  0.00    +0.000 A 
ATOM     19  C   UNL     1      44.525  -5.767 164.953  0.00  0.00    +0.000 A 
ATOM     20  C   UNL     1      43.609  -3.894 163.693  0.00  0.00    +0.000 A 
ATOM     21  C   UNL     1      45.623  -4.980 165.341  0.00  0.00    +0.000 A 
ATOM     22  C   UNL     1      44.694  -3.100 164.078  0.00  0.00    +0.000 A 
ATOM     23  C   UNL     1      45.701  -3.662 164.903  0.00  0.00    +0.000 A 
ATOM     24  C   UNL     1      46.743  -2.757 165.229  0.00  0.00    +0.000 C 
ATOM     25  C   UNL     1      45.815  -0.866 164.051  0.00  0.00    +0.000 C 
ATOM     26  C   UNL     1      46.764  -1.620 164.872  0.00  0.00    +0.000 C 
ATOM     27  C   UNL     1      45.140   0.280 164.845  0.00  0.00    +0.000 C 
ENDROOT
BRANCH  21  28
ATOM     28  O   UNL     1      46.629  -5.454 166.141  0.00  0.00    +0.000 OA
ATOM     29  H   UNL     1      47.341  -4.780 166.215  0.00  0.00    +0.000 HD
ENDBRANCH  21  28
BRANCH   8  30
ATOM     30  C   UNL     1      40.118  -7.268 164.893  0.00  0.00    +0.000 C 
ATOM     31  C   UNL     1      39.294  -6.622 166.016  0.00  0.00    +0.000 C 
BRANCH  31  32
ATOM     32  C   UNL     1      38.604  -6.120 167.001  0.00  0.00    +0.000 C 
ATOM     33  C   UNL     1      39.428  -5.688 168.201  0.00  0.00    +0.000 C 
BRANCH  32  35
ATOM     34  O   UNL     1      36.492  -5.889 165.853  0.00  0.00    +0.000 OA
ATOM     35  C   UNL     1      37.126  -5.988 166.893  0.00  0.00    +0.000 C 
BRANCH  35  36
ATOM     36  O   UNL     1      36.480  -5.986 168.079  0.00  0.00    +0.000 OA
ATOM     37  H   UNL     1      36.771  -5.164 168.527  0.00  0.00    +0.000 HD
ENDBRANCH  35  36
ENDBRANCH  32  35
ENDBRANCH  31  32
ENDBRANCH   8  30
BRANCH  20  38
ATOM     38  C   UNL     1      42.579  -3.346 162.859  0.00  0.00    +0.000 C 
ATOM     39  C   UNL     1      41.498  -2.748 161.947  0.00  0.00    +0.000 C 
BRANCH  39  40
ATOM     40  C   UNL     1      40.599  -2.240 161.162  0.00  0.00    +0.000 C 
ATOM     41  C   UNL     1      39.482  -3.107 160.666  0.00  0.00    +0.000 C 
ATOM     42  C   UNL     1      40.544  -0.757 160.958  0.00  0.00    +0.000 C 
ENDBRANCH  39  40
ENDBRANCH  20  38
BRANCH  25  43
ATOM     43  C   UNL     1      46.450  -0.343 162.827  0.00  0.00    +0.000 C 
BRANCH  43  44
ATOM     44  C   UNL     1      47.118   0.196 161.555  0.00  0.00    +0.000 C 
ATOM     45  C   UNL     1      47.788   0.735 160.283  0.00  0.00    +0.000 C 
BRANCH  45  46
ATOM     46  C   UNL     1      48.355   1.197 159.213  0.00  0.00    +0.000 C 
ATOM     47  C   UNL     1      49.673   0.638 158.774  0.00  0.00    +0.000 C 
ATOM     48  C   UNL     1      47.788   2.399 158.524  0.00  0.00    +0.000 C 
ENDBRANCH  45  46
ENDBRANCH  43  44
ENDBRANCH  25  43
TORSDOF 10
ENDMDL
MODEL 4
REMARK VINA RESULT:      -6.2     18.618     24.453
REMARK  Name = 9852185_GambogicAcid.pdbqt.pdb
REMARK  10 active torsions:
REMARK  status: ('A' for Active; 'I' for Inactive)
REMARK    1  A    between atoms: C_8  and  C_30
REMARK    2  A    between atoms: C_20  and  C_38
REMARK    3  A    between atoms: C_21  and  O_28
REMARK    4  A    between atoms: C_25  and  C_43
REMARK    5  A    between atoms: C_31  and  C_32
REMARK    6  A    between atoms: C_32  and  C_35
REMARK    7  A    between atoms: C_35  and  O_36
REMARK    8  A    between atoms: C_39  and  C_40
REMARK    9  A    between atoms: C_43  and  C_44
REMARK   10  A    between atoms: C_45  and  C_46
REMARK                            x       y       z     vdW  Elec       q    Type
REMARK                         _______ _______ _______ _____ _____    ______ ____
ROOT
ATOM      1  O   UNL     1      45.456  -0.667 162.133  0.00  0.00    +0.000 OA
ATOM      2  O   UNL     1      44.946  -3.337 163.083  0.00  0.00    +0.000 OA
ATOM      3  O   UNL     1      48.346   0.260 163.063  0.00  0.00    +0.000 OA
ATOM      4  O   UNL     1      47.053  -4.738 166.332  0.00  0.00    +0.000 OA
ATOM      5  O   UNL     1      42.048  -7.103 163.106  0.00  0.00    +0.000 OA
ATOM      6  C   UNL     1      45.778  -2.399 163.752  0.00  0.00    +0.000 C 
ATOM      7  C   UNL     1      44.967  -1.213 164.386  0.00  0.00    +0.000 C 
ATOM      8  C   UNL     1      46.509  -1.442 162.727  0.00  0.00    +0.000 C 
ATOM      9  C   UNL     1      44.455  -0.471 163.146  0.00  0.00    +0.000 C 
ATOM     10  C   UNL     1      45.884  -0.497 165.274  0.00  0.00    +0.000 C 
ATOM     11  C   UNL     1      47.315  -0.657 165.078  0.00  0.00    +0.000 C 
ATOM     12  C   UNL     1      46.782  -3.034 164.730  0.00  0.00    +0.000 C 
ATOM     13  C   UNL     1      47.527  -0.506 163.545  0.00  0.00    +0.000 C 
ATOM     14  C   UNL     1      47.599  -2.042 165.353  0.00  0.00    +0.000 C 
ATOM     15  C   UNL     1      44.313   1.037 163.394  0.00  0.00    +0.000 C 
ATOM     16  C   UNL     1      43.118  -1.071 162.685  0.00  0.00    +0.000 C 
ATOM     17  C   UNL     1      46.438  -4.304 165.367  0.00  0.00    +0.000 C 
ATOM     18  C   UNL     1      44.607  -4.509 163.705  0.00  0.00    +0.000 A 
ATOM     19  C   UNL     1      45.289  -5.032 164.813  0.00  0.00    +0.000 A 
ATOM     20  C   UNL     1      43.529  -5.223 163.139  0.00  0.00    +0.000 A 
ATOM     21  C   UNL     1      44.889  -6.251 165.385  0.00  0.00    +0.000 A 
ATOM     22  C   UNL     1      43.126  -6.441 163.698  0.00  0.00    +0.000 A 
ATOM     23  C   UNL     1      43.816  -6.942 164.830  0.00  0.00    +0.000 A 
ATOM     24  C   UNL     1      43.318  -8.184 165.298  0.00  0.00    +0.000 C 
ATOM     25  C   UNL     1      41.619  -8.433 163.603  0.00  0.00    +0.000 C 
ATOM     26  C   UNL     1      42.423  -8.774 164.777  0.00  0.00    +0.000 C 
ATOM     27  C   UNL     1      41.832  -9.433 162.440  0.00  0.00    +0.000 C 
ENDROOT
BRANCH  21  28
ATOM     28  O   UNL     1      45.512  -6.798 166.475  0.00  0.00    +0.000 OA
ATOM     29  H   UNL     1      46.267  -7.356 166.183  0.00  0.00    +0.000 HD
ENDBRANCH  21  28
BRANCH   8  30
ATOM     30  C   UNL     1      47.221  -2.184 161.677  0.00  0.00    +0.000 C 
ATOM     31  C   UNL     1      48.012  -2.955 160.609  0.00  0.00    +0.000 C 
BRANCH  31  32
ATOM     32  C   UNL     1      48.729  -3.583 159.721  0.00  0.00    +0.000 C 
ATOM     33  C   UNL     1      50.182  -3.792 160.108  0.00  0.00    +0.000 C 
BRANCH  32  35
ATOM     34  O   UNL     1      48.526  -3.813 157.326  0.00  0.00    +0.000 OA
ATOM     35  C   UNL     1      48.112  -4.052 158.451  0.00  0.00    +0.000 C 
BRANCH  35  36
ATOM     36  O   UNL     1      47.002  -4.802 158.617  0.00  0.00    +0.000 OA
ATOM     37  H   UNL     1      47.267  -5.712 158.367  0.00  0.00    +0.000 HD
ENDBRANCH  35  36
ENDBRANCH  32  35
ENDBRANCH  31  32
ENDBRANCH   8  30
BRANCH  20  38
ATOM     38  C   UNL     1      42.845  -4.698 161.992  0.00  0.00    +0.000 C 
ATOM     39  C   UNL     1      42.100  -4.164 160.760  0.00  0.00    +0.000 C 
BRANCH  39  40
ATOM     40  C   UNL     1      41.459  -3.730 159.720  0.00  0.00    +0.000 C 
ATOM     41  C   UNL     1      40.579  -4.672 158.954  0.00  0.00    +0.000 C 
ATOM     42  C   UNL     1      41.407  -2.260 159.439  0.00  0.00    +0.000 C 
ENDBRANCH  39  40
ENDBRANCH  20  38
BRANCH  25  43
ATOM     43  C   UNL     1      40.186  -8.324 163.938  0.00  0.00    +0.000 C 
BRANCH  43  44
ATOM     44  C   UNL     1      38.695  -8.209 164.278  0.00  0.00    +0.000 C 
ATOM     45  C   UNL     1      37.203  -8.095 164.621  0.00  0.00    +0.000 C 
BRANCH  45  46
ATOM     46  C   UNL     1      35.942  -8.006 164.909  0.00  0.00    +0.000 C 
ATOM     47  C   UNL     1      34.988  -9.034 164.381  0.00  0.00    +0.000 C 
ATOM     48  C   UNL     1      35.417  -6.792 165.610  0.00  0.00    +0.000 C 
ENDBRANCH  45  46
ENDBRANCH  43  44
ENDBRANCH  25  43
TORSDOF 10
ENDMDL
MODEL 5
REMARK VINA RESULT:      -6.1     17.505     21.088
REMARK  Name = 9852185_GambogicAcid.pdbqt.pdb
REMARK  10 active torsions:
REMARK  status: ('A' for Active; 'I' for Inactive)
REMARK    1  A    between atoms: C_8  and  C_30
REMARK    2  A    between atoms: C_20  and  C_38
REMARK    3  A    between atoms: C_21  and  O_28
REMARK    4  A    between atoms: C_25  and  C_43
REMARK    5  A    between atoms: C_31  and  C_32
REMARK    6  A    between atoms: C_32  and  C_35
REMARK    7  A    between atoms: C_35  and  O_36
REMARK    8  A    between atoms: C_39  and  C_40
REMARK    9  A    between atoms: C_43  and  C_44
REMARK   10  A    between atoms: C_45  and  C_46
REMARK                            x       y       z     vdW  Elec       q    Type
REMARK                         _______ _______ _______ _____ _____    ______ ____
ROOT
ATOM      1  O   UNL     1      40.615  -8.794 159.520  0.00  0.00    +0.000 OA
ATOM      2  O   UNL     1      41.887  -7.729 161.875  0.00  0.00    +0.000 OA
ATOM      3  O   UNL     1      39.097 -11.483 160.253  0.00  0.00    +0.000 OA
ATOM      4  O   UNL     1      42.748 -10.268 165.001  0.00  0.00    +0.000 OA
ATOM      5  O   UNL     1      44.335  -4.167 163.851  0.00  0.00    +0.000 OA
ATOM      6  C   UNL     1      41.664  -9.114 161.647  0.00  0.00    +0.000 C 
ATOM      7  C   UNL     1      42.572  -9.696 160.505  0.00  0.00    +0.000 C 
ATOM      8  C   UNL     1      40.343  -9.357 160.813  0.00  0.00    +0.000 C 
ATOM      9  C   UNL     1      42.015  -8.997 159.260  0.00  0.00    +0.000 C 
ATOM     10  C   UNL     1      42.460 -11.153 160.573  0.00  0.00    +0.000 C 
ATOM     11  C   UNL     1      41.313 -11.736 161.248  0.00  0.00    +0.000 C 
ATOM     12  C   UNL     1      41.678  -9.972 162.924  0.00  0.00    +0.000 C 
ATOM     13  C   UNL     1      40.089 -10.940 160.713  0.00  0.00    +0.000 C 
ATOM     14  C   UNL     1      41.429 -11.347 162.630  0.00  0.00    +0.000 C 
ATOM     15  C   UNL     1      42.147  -9.868 158.002  0.00  0.00    +0.000 C 
ATOM     16  C   UNL     1      42.713  -7.643 159.055  0.00  0.00    +0.000 C 
ATOM     17  C   UNL     1      42.483  -9.529 164.061  0.00  0.00    +0.000 C 
ATOM     18  C   UNL     1      42.669  -7.331 162.925  0.00  0.00    +0.000 A 
ATOM     19  C   UNL     1      42.994  -8.153 164.014  0.00  0.00    +0.000 A 
ATOM     20  C   UNL     1      43.118  -5.993 162.893  0.00  0.00    +0.000 A 
ATOM     21  C   UNL     1      43.790  -7.664 165.063  0.00  0.00    +0.000 A 
ATOM     22  C   UNL     1      43.907  -5.495 163.936  0.00  0.00    +0.000 A 
ATOM     23  C   UNL     1      44.240  -6.348 165.018  0.00  0.00    +0.000 A 
ATOM     24  C   UNL     1      45.037  -5.726 166.011  0.00  0.00    +0.000 C 
ATOM     25  C   UNL     1      45.110  -3.556 164.957  0.00  0.00    +0.000 C 
ATOM     26  C   UNL     1      45.375  -4.584 165.965  0.00  0.00    +0.000 C 
ATOM     27  C   UNL     1      44.248  -2.398 165.518  0.00  0.00    +0.000 C 
ENDROOT
BRANCH  21  28
ATOM     28  O   UNL     1      44.146  -8.429 166.142  0.00  0.00    +0.000 OA
ATOM     29  H   UNL     1      43.382  -8.516 166.756  0.00  0.00    +0.000 HD
ENDBRANCH  21  28
BRANCH   8  30
ATOM     30  C   UNL     1      39.176  -8.684 161.402  0.00  0.00    +0.000 C 
ATOM     31  C   UNL     1      37.984  -7.978 162.065  0.00  0.00    +0.000 C 
BRANCH  31  32
ATOM     32  C   UNL     1      36.990  -7.399 162.677  0.00  0.00    +0.000 C 
ATOM     33  C   UNL     1      35.857  -6.952 161.772  0.00  0.00    +0.000 C 
BRANCH  32  35
ATOM     34  O   UNL     1      36.854  -6.180 164.757  0.00  0.00    +0.000 OA
ATOM     35  C   UNL     1      37.014  -7.231 164.155  0.00  0.00    +0.000 C 
BRANCH  35  36
ATOM     36  O   UNL     1      37.234  -8.374 164.840  0.00  0.00    +0.000 OA
ATOM     37  H   UNL     1      38.016  -8.190 165.401  0.00  0.00    +0.000 HD
ENDBRANCH  35  36
ENDBRANCH  32  35
ENDBRANCH  31  32
ENDBRANCH   8  30
BRANCH  20  38
ATOM     38  C   UNL     1      42.769  -5.147 161.789  0.00  0.00    +0.000 C 
ATOM     39  C   UNL     1      42.385  -4.219 160.628  0.00  0.00    +0.000 C 
BRANCH  39  40
ATOM     40  C   UNL     1      42.059  -3.419 159.660  0.00  0.00    +0.000 C 
ATOM     41  C   UNL     1      42.163  -3.899 158.244  0.00  0.00    +0.000 C 
ATOM     42  C   UNL     1      41.356  -2.132 159.965  0.00  0.00    +0.000 C 
ENDBRANCH  39  40
ENDBRANCH  20  38
BRANCH  25  43
ATOM     43  C   UNL     1      46.359  -3.035 164.370  0.00  0.00    +0.000 C 
BRANCH  43  44
ATOM     44  C   UNL     1      47.659  -2.489 163.766  0.00  0.00    +0.000 C 
ATOM     45  C   UNL     1      48.961  -1.942 163.163  0.00  0.00    +0.000 C 
BRANCH  45  46
ATOM     46  C   UNL     1      50.059  -1.474 162.658  0.00  0.00    +0.000 C 
ATOM     47  C   UNL     1      51.371  -1.818 163.294  0.00  0.00    +0.000 C 
ATOM     48  C   UNL     1      50.006  -0.457 161.561  0.00  0.00    +0.000 C 
ENDBRANCH  45  46
ENDBRANCH  43  44
ENDBRANCH  25  43
TORSDOF 10
ENDMDL
MODEL 6
REMARK VINA RESULT:      -5.9     17.627     20.604
REMARK  Name = 9852185_GambogicAcid.pdbqt.pdb
REMARK  10 active torsions:
REMARK  status: ('A' for Active; 'I' for Inactive)
REMARK    1  A    between atoms: C_8  and  C_30
REMARK    2  A    between atoms: C_20  and  C_38
REMARK    3  A    between atoms: C_21  and  O_28
REMARK    4  A    between atoms: C_25  and  C_43
REMARK    5  A    between atoms: C_31  and  C_32
REMARK    6  A    between atoms: C_32  and  C_35
REMARK    7  A    between atoms: C_35  and  O_36
REMARK    8  A    between atoms: C_39  and  C_40
REMARK    9  A    between atoms: C_43  and  C_44
REMARK   10  A    between atoms: C_45  and  C_46
REMARK                            x       y       z     vdW  Elec       q    Type
REMARK                         _______ _______ _______ _____ _____    ______ ____
ROOT
ATOM      1  O   UNL     1      39.398  -8.787 157.905  0.00  0.00    +0.000 OA
ATOM      2  O   UNL     1      40.089  -8.836 160.700  0.00  0.00    +0.000 OA
ATOM      3  O   UNL     1      38.964 -11.754 156.864  0.00  0.00    +0.000 OA
ATOM      4  O   UNL     1      41.712 -12.266 162.298  0.00  0.00    +0.000 OA
ATOM      5  O   UNL     1      40.955  -6.359 164.663  0.00  0.00    +0.000 OA
ATOM      6  C   UNL     1      40.407  -9.873 159.783  0.00  0.00    +0.000 C 
ATOM      7  C   UNL     1      41.510  -9.451 158.748  0.00  0.00    +0.000 C 
ATOM      8  C   UNL     1      39.305 -10.007 158.657  0.00  0.00    +0.000 C 
ATOM      9  C   UNL     1      40.782  -8.395 157.910  0.00  0.00    +0.000 C 
ATOM     10  C   UNL     1      41.947 -10.673 158.069  0.00  0.00    +0.000 C 
ATOM     11  C   UNL     1      41.074 -11.834 158.090  0.00  0.00    +0.000 C 
ATOM     12  C   UNL     1      40.690 -11.233 160.445  0.00  0.00    +0.000 C 
ATOM     13  C   UNL     1      39.663 -11.280 157.745  0.00  0.00    +0.000 C 
ATOM     14  C   UNL     1      40.983 -12.235 159.470  0.00  0.00    +0.000 C 
ATOM     15  C   UNL     1      41.277  -8.369 156.457  0.00  0.00    +0.000 C 
ATOM     16  C   UNL     1      40.932  -7.010 158.557  0.00  0.00    +0.000 C 
ATOM     17  C   UNL     1      41.228 -11.256 161.804  0.00  0.00    +0.000 C 
ATOM     18  C   UNL     1      40.625  -8.855 161.960  0.00  0.00    +0.000 A 
ATOM     19  C   UNL     1      41.190  -9.993 162.552  0.00  0.00    +0.000 A 
ATOM     20  C   UNL     1      40.544  -7.647 162.687  0.00  0.00    +0.000 A 
ATOM     21  C   UNL     1      41.706  -9.935 163.858  0.00  0.00    +0.000 A 
ATOM     22  C   UNL     1      41.050  -7.580 163.990  0.00  0.00    +0.000 A 
ATOM     23  C   UNL     1      41.635  -8.737 164.564  0.00  0.00    +0.000 A 
ATOM     24  C   UNL     1      42.103  -8.544 165.887  0.00  0.00    +0.000 C 
ATOM     25  C   UNL     1      41.403  -6.242 166.071  0.00  0.00    +0.000 C 
ATOM     26  C   UNL     1      41.993  -7.517 166.482  0.00  0.00    +0.000 C 
ATOM     27  C   UNL     1      40.150  -5.883 166.909  0.00  0.00    +0.000 C 
ENDROOT
BRANCH  21  28
ATOM     28  O   UNL     1      42.279 -11.013 164.477  0.00  0.00    +0.000 OA
ATOM     29  H   UNL     1      41.925 -11.101 165.390  0.00  0.00    +0.000 HD
ENDBRANCH  21  28
BRANCH   8  30
ATOM     30  C   UNL     1      37.950 -10.136 159.212  0.00  0.00    +0.000 C 
ATOM     31  C   UNL     1      36.518 -10.229 159.760  0.00  0.00    +0.000 C 
BRANCH  31  32
ATOM     32  C   UNL     1      35.296 -10.252 160.214  0.00  0.00    +0.000 C 
ATOM     33  C   UNL     1      34.220 -10.111 159.153  0.00  0.00    +0.000 C 
BRANCH  32  35
ATOM     34  O   UNL     1      35.334  -9.624 162.545  0.00  0.00    +0.000 OA
ATOM     35  C   UNL     1      35.039 -10.423 161.669  0.00  0.00    +0.000 C 
BRANCH  35  36
ATOM     36  O   UNL     1      34.422 -11.580 161.991  0.00  0.00    +0.000 OA
ATOM     37  H   UNL     1      34.872 -11.893 162.804  0.00  0.00    +0.000 HD
ENDBRANCH  35  36
ENDBRANCH  32  35
ENDBRANCH  31  32
ENDBRANCH   8  30
BRANCH  20  38
ATOM     38  C   UNL     1      39.948  -6.489 162.088  0.00  0.00    +0.000 C 
ATOM     39  C   UNL     1      39.307  -5.235 161.475  0.00  0.00    +0.000 C 
BRANCH  39  40
ATOM     40  C   UNL     1      38.770  -4.166 160.976  0.00  0.00    +0.000 C 
ATOM     41  C   UNL     1      39.576  -2.905 160.898  0.00  0.00    +0.000 C 
ATOM     42  C   UNL     1      37.454  -4.258 160.265  0.00  0.00    +0.000 C 
ENDBRANCH  39  40
ENDBRANCH  20  38
BRANCH  25  43
ATOM     43  C   UNL     1      42.390  -5.146 166.118  0.00  0.00    +0.000 C 
BRANCH  43  44
ATOM     44  C   UNL     1      43.418  -4.009 166.174  0.00  0.00    +0.000 C 
ATOM     45  C   UNL     1      44.448  -2.872 166.229  0.00  0.00    +0.000 C 
BRANCH  45  46
ATOM     46  C   UNL     1      45.323  -1.917 166.279  0.00  0.00    +0.000 C 
ATOM     47  C   UNL     1      46.774  -2.231 166.079  0.00  0.00    +0.000 C 
ATOM     48  C   UNL     1      44.909  -0.544 166.710  0.00  0.00    +0.000 C 
ENDBRANCH  45  46
ENDBRANCH  43  44
ENDBRANCH  25  43
TORSDOF 10
ENDMDL
MODEL 7
REMARK VINA RESULT:      -5.9     27.439     31.172
REMARK  Name = 9852185_GambogicAcid.pdbqt.pdb
REMARK  10 active torsions:
REMARK  status: ('A' for Active; 'I' for Inactive)
REMARK    1  A    between atoms: C_8  and  C_30
REMARK    2  A    between atoms: C_20  and  C_38
REMARK    3  A    between atoms: C_21  and  O_28
REMARK    4  A    between atoms: C_25  and  C_43
REMARK    5  A    between atoms: C_31  and  C_32
REMARK    6  A    between atoms: C_32  and  C_35
REMARK    7  A    between atoms: C_35  and  O_36
REMARK    8  A    between atoms: C_39  and  C_40
REMARK    9  A    between atoms: C_43  and  C_44
REMARK   10  A    between atoms: C_45  and  C_46
REMARK                            x       y       z     vdW  Elec       q    Type
REMARK                         _______ _______ _______ _____ _____    ______ ____
ROOT
ATOM      1  O   UNL     1      46.612   3.323 189.254  0.00  0.00    +0.000 OA
ATOM      2  O   UNL     1      45.243   2.986 186.743  0.00  0.00    +0.000 OA
ATOM      3  O   UNL     1      45.720   1.038 191.268  0.00  0.00    +0.000 OA
ATOM      4  O   UNL     1      41.707   0.878 186.662  0.00  0.00    +0.000 OA
ATOM      5  O   UNL     1      44.712   4.408 182.239  0.00  0.00    +0.000 OA
ATOM      6  C   UNL     1      44.707   2.599 188.001  0.00  0.00    +0.000 C 
ATOM      7  C   UNL     1      44.325   3.828 188.901  0.00  0.00    +0.000 C 
ATOM      8  C   UNL     1      45.845   2.137 188.996  0.00  0.00    +0.000 C 
ATOM      9  C   UNL     1      45.696   4.431 189.226  0.00  0.00    +0.000 C 
ATOM     10  C   UNL     1      43.530   3.309 190.015  0.00  0.00    +0.000 C 
ATOM     11  C   UNL     1      43.628   1.897 190.346  0.00  0.00    +0.000 C 
ATOM     12  C   UNL     1      43.588   1.547 187.910  0.00  0.00    +0.000 C 
ATOM     13  C   UNL     1      45.153   1.591 190.339  0.00  0.00    +0.000 C 
ATOM     14  C   UNL     1      43.107   1.188 189.206  0.00  0.00    +0.000 C 
ATOM     15  C   UNL     1      45.717   5.105 190.606  0.00  0.00    +0.000 C 
ATOM     16  C   UNL     1      46.109   5.427 188.132  0.00  0.00    +0.000 C 
ATOM     17  C   UNL     1      42.760   1.500 186.707  0.00  0.00    +0.000 C 
ATOM     18  C   UNL     1      44.447   2.967 185.630  0.00  0.00    +0.000 A 
ATOM     19  C   UNL     1      43.234   2.267 185.548  0.00  0.00    +0.000 A 
ATOM     20  C   UNL     1      44.932   3.670 184.506  0.00  0.00    +0.000 A 
ATOM     21  C   UNL     1      42.481   2.284 184.362  0.00  0.00    +0.000 A 
ATOM     22  C   UNL     1      44.193   3.689 183.319  0.00  0.00    +0.000 A 
ATOM     23  C   UNL     1      42.960   2.991 183.263  0.00  0.00    +0.000 A 
ATOM     24  C   UNL     1      42.310   3.081 182.007  0.00  0.00    +0.000 C 
ATOM     25  C   UNL     1      44.015   4.406 180.931  0.00  0.00    +0.000 C 
ATOM     26  C   UNL     1      42.763   3.661 181.070  0.00  0.00    +0.000 C 
ATOM     27  C   UNL     1      44.978   3.744 179.914  0.00  0.00    +0.000 C 
ENDROOT
BRANCH  21  28
ATOM     28  O   UNL     1      41.285   1.629 184.234  0.00  0.00    +0.000 OA
ATOM     29  H   UNL     1      41.255   1.155 183.373  0.00  0.00    +0.000 HD
ENDBRANCH  21  28
BRANCH   8  30
ATOM     30  C   UNL     1      46.717   1.109 188.412  0.00  0.00    +0.000 C 
ATOM     31  C   UNL     1      47.664   0.041 187.843  0.00  0.00    +0.000 C 
BRANCH  31  32
ATOM     32  C   UNL     1      48.511  -0.839 187.387  0.00  0.00    +0.000 C 
ATOM     33  C   UNL     1      49.639  -1.190 188.339  0.00  0.00    +0.000 C 
BRANCH  32  35
ATOM     34  O   UNL     1      48.671  -2.553 185.694  0.00  0.00    +0.000 OA
ATOM     35  C   UNL     1      48.323  -1.432 186.036  0.00  0.00    +0.000 C 
BRANCH  35  36
ATOM     36  O   UNL     1      47.707  -0.618 185.152  0.00  0.00    +0.000 OA
ATOM     37  H   UNL     1      48.158   0.248 185.244  0.00  0.00    +0.000 HD
ENDBRANCH  35  36
ENDBRANCH  32  35
ENDBRANCH  31  32
ENDBRANCH   8  30
BRANCH  20  38
ATOM     38  C   UNL     1      46.182   4.369 184.584  0.00  0.00    +0.000 C 
ATOM     39  C   UNL     1      47.528   5.107 184.639  0.00  0.00    +0.000 C 
BRANCH  39  40
ATOM     40  C   UNL     1      48.667   5.727 184.665  0.00  0.00    +0.000 C 
ATOM     41  C   UNL     1      49.428   5.812 185.953  0.00  0.00    +0.000 C 
ATOM     42  C   UNL     1      49.322   6.132 183.380  0.00  0.00    +0.000 C 
ENDBRANCH  39  40
ENDBRANCH  20  38
BRANCH  25  43
ATOM     43  C   UNL     1      43.772   5.816 180.572  0.00  0.00    +0.000 C 
BRANCH  43  44
ATOM     44  C   UNL     1      43.512   7.280 180.194  0.00  0.00    +0.000 C 
ATOM     45  C   UNL     1      43.251   8.746 179.817  0.00  0.00    +0.000 C 
BRANCH  45  46
ATOM     46  C   UNL     1      43.024   9.981 179.496  0.00  0.00    +0.000 C 
ATOM     47  C   UNL     1      44.144  10.974 179.538  0.00  0.00    +0.000 C 
ATOM     48  C   UNL     1      41.621  10.447 179.259  0.00  0.00    +0.000 C 
ENDBRANCH  45  46
ENDBRANCH  43  44
ENDBRANCH  25  43
TORSDOF 10
ENDMDL
MODEL 8
REMARK VINA RESULT:      -5.9     18.925     24.797
REMARK  Name = 9852185_GambogicAcid.pdbqt.pdb
REMARK  10 active torsions:
REMARK  status: ('A' for Active; 'I' for Inactive)
REMARK    1  A    between atoms: C_8  and  C_30
REMARK    2  A    between atoms: C_20  and  C_38
REMARK    3  A    between atoms: C_21  and  O_28
REMARK    4  A    between atoms: C_25  and  C_43
REMARK    5  A    between atoms: C_31  and  C_32
REMARK    6  A    between atoms: C_32  and  C_35
REMARK    7  A    between atoms: C_35  and  O_36
REMARK    8  A    between atoms: C_39  and  C_40
REMARK    9  A    between atoms: C_43  and  C_44
REMARK   10  A    between atoms: C_45  and  C_46
REMARK                            x       y       z     vdW  Elec       q    Type
REMARK                         _______ _______ _______ _____ _____    ______ ____
ROOT
ATOM      1  O   UNL     1      43.973  -0.543 160.921  0.00  0.00    +0.000 OA
ATOM      2  O   UNL     1      43.529  -2.709 162.767  0.00  0.00    +0.000 OA
ATOM      3  O   UNL     1      46.346   1.284 161.974  0.00  0.00    +0.000 OA
ATOM      4  O   UNL     1      44.765  -2.290 166.673  0.00  0.00    +0.000 OA
ATOM      5  O   UNL     1      41.207  -6.739 163.741  0.00  0.00    +0.000 OA
ATOM      6  C   UNL     1      44.018  -1.429 163.144  0.00  0.00    +0.000 C 
ATOM      7  C   UNL     1      42.926  -0.305 163.033  0.00  0.00    +0.000 C 
ATOM      8  C   UNL     1      44.895  -0.785 161.996  0.00  0.00    +0.000 C 
ATOM      9  C   UNL     1      42.708  -0.213 161.519  0.00  0.00    +0.000 C 
ATOM     10  C   UNL     1      43.460   0.875 163.714  0.00  0.00    +0.000 C 
ATOM     11  C   UNL     1      44.895   0.978 163.915  0.00  0.00    +0.000 C 
ATOM     12  C   UNL     1      44.766  -1.412 164.488  0.00  0.00    +0.000 C 
ATOM     13  C   UNL     1      45.519   0.590 162.544  0.00  0.00    +0.000 C 
ATOM     14  C   UNL     1      45.248  -0.104 164.798  0.00  0.00    +0.000 C 
ATOM     15  C   UNL     1      42.325   1.206 161.076  0.00  0.00    +0.000 C 
ATOM     16  C   UNL     1      41.638  -1.224 161.076  0.00  0.00    +0.000 C 
ATOM     17  C   UNL     1      44.405  -2.395 165.508  0.00  0.00    +0.000 C 
ATOM     18  C   UNL     1      43.165  -3.608 163.733  0.00  0.00    +0.000 A 
ATOM     19  C   UNL     1      43.557  -3.513 165.076  0.00  0.00    +0.000 A 
ATOM     20  C   UNL     1      42.386  -4.703 163.301  0.00  0.00    +0.000 A 
ATOM     21  C   UNL     1      43.155  -4.488 166.006  0.00  0.00    +0.000 A 
ATOM     22  C   UNL     1      41.985  -5.681 164.217  0.00  0.00    +0.000 A 
ATOM     23  C   UNL     1      42.376  -5.557 165.574  0.00  0.00    +0.000 A 
ATOM     24  C   UNL     1      41.913  -6.612 166.400  0.00  0.00    +0.000 C 
ATOM     25  C   UNL     1      40.812  -7.847 164.643  0.00  0.00    +0.000 C 
ATOM     26  C   UNL     1      41.281  -7.538 165.995  0.00  0.00    +0.000 C 
ATOM     27  C   UNL     1      41.465  -9.134 164.081  0.00  0.00    +0.000 C 
ENDROOT
BRANCH  21  28
ATOM     28  O   UNL     1      43.499  -4.435 167.330  0.00  0.00    +0.000 OA
ATOM     29  H   UNL     1      44.367  -4.878 167.468  0.00  0.00    +0.000 HD
ENDBRANCH  21  28
BRANCH   8  30
ATOM     30  C   UNL     1      45.960  -1.685 161.532  0.00  0.00    +0.000 C 
ATOM     31  C   UNL     1      47.103  -2.613 161.091  0.00  0.00    +0.000 C 
BRANCH  31  32
ATOM     32  C   UNL     1      48.108  -3.367 160.747  0.00  0.00    +0.000 C 
ATOM     33  C   UNL     1      48.030  -3.929 159.339  0.00  0.00    +0.000 C 
BRANCH  32  35
ATOM     34  O   UNL     1      49.505  -4.680 162.215  0.00  0.00    +0.000 OA
ATOM     35  C   UNL     1      49.227  -3.608 161.698  0.00  0.00    +0.000 C 
BRANCH  35  36
ATOM     36  O   UNL     1      49.965  -2.512 161.976  0.00  0.00    +0.000 OA
ATOM     37  H   UNL     1      50.168  -2.576 162.933  0.00  0.00    +0.000 HD
ENDBRANCH  35  36
ENDBRANCH  32  35
ENDBRANCH  31  32
ENDBRANCH   8  30
BRANCH  20  38
ATOM     38  C   UNL     1      42.003  -4.810 161.923  0.00  0.00    +0.000 C 
ATOM     39  C   UNL     1      41.585  -4.954 160.453  0.00  0.00    +0.000 C 
BRANCH  39  40
ATOM     40  C   UNL     1      41.222  -5.094 159.215  0.00  0.00    +0.000 C 
ATOM     41  C   UNL     1      40.676  -6.411 158.754  0.00  0.00    +0.000 C 
ATOM     42  C   UNL     1      41.120  -3.890 158.330  0.00  0.00    +0.000 C 
ENDBRANCH  39  40
ENDBRANCH  20  38
BRANCH  25  43
ATOM     43  C   UNL     1      39.341  -7.945 164.586  0.00  0.00    +0.000 C 
BRANCH  43  44
ATOM     44  C   UNL     1      37.812  -8.054 164.529  0.00  0.00    +0.000 C 
ATOM     45  C   UNL     1      36.282  -8.161 164.472  0.00  0.00    +0.000 C 
BRANCH  45  46
ATOM     46  C   UNL     1      34.989  -8.250 164.431  0.00  0.00    +0.000 C 
ATOM     47  C   UNL     1      34.154  -7.098 164.899  0.00  0.00    +0.000 C 
ATOM     48  C   UNL     1      34.338  -9.554 164.090  0.00  0.00    +0.000 C 
ENDBRANCH  45  46
ENDBRANCH  43  44
ENDBRANCH  25  43
TORSDOF 10
ENDMDL
MODEL 9
REMARK VINA RESULT:      -5.9     36.116     39.850
REMARK  Name = 9852185_GambogicAcid.pdbqt.pdb
REMARK  10 active torsions:
REMARK  status: ('A' for Active; 'I' for Inactive)
REMARK    1  A    between atoms: C_8  and  C_30
REMARK    2  A    between atoms: C_20  and  C_38
REMARK    3  A    between atoms: C_21  and  O_28
REMARK    4  A    between atoms: C_25  and  C_43
REMARK    5  A    between atoms: C_31  and  C_32
REMARK    6  A    between atoms: C_32  and  C_35
REMARK    7  A    between atoms: C_35  and  O_36
REMARK    8  A    between atoms: C_39  and  C_40
REMARK    9  A    between atoms: C_43  and  C_44
REMARK   10  A    between atoms: C_45  and  C_46
REMARK                            x       y       z     vdW  Elec       q    Type
REMARK                         _______ _______ _______ _____ _____    ______ ____
ROOT
ATOM      1  O   UNL     1      23.506  11.504 170.355  0.00  0.00    +0.000 OA
ATOM      2  O   UNL     1      23.386  10.454 167.676  0.00  0.00    +0.000 OA
ATOM      3  O   UNL     1      26.033  13.402 170.643  0.00  0.00    +0.000 OA
ATOM      4  O   UNL     1      26.832  10.322 165.426  0.00  0.00    +0.000 OA
ATOM      5  O   UNL     1      20.972   7.914 164.465  0.00  0.00    +0.000 OA
ATOM      6  C   UNL     1      24.592  10.799 168.343  0.00  0.00    +0.000 C 
ATOM      7  C   UNL     1      24.939   9.814 169.516  0.00  0.00    +0.000 C 
ATOM      8  C   UNL     1      24.378  12.012 169.334  0.00  0.00    +0.000 C 
ATOM      9  C   UNL     1      23.830  10.113 170.530  0.00  0.00    +0.000 C 
ATOM     10  C   UNL     1      26.318  10.099 169.916  0.00  0.00    +0.000 C 
ATOM     11  C   UNL     1      26.896  11.386 169.569  0.00  0.00    +0.000 C 
ATOM     12  C   UNL     1      25.780  11.057 167.400  0.00  0.00    +0.000 C 
ATOM     13  C   UNL     1      25.805  12.427 169.944  0.00  0.00    +0.000 C 
ATOM     14  C   UNL     1      26.954  11.417 168.130  0.00  0.00    +0.000 C 
ATOM     15  C   UNL     1      24.300   9.910 171.977  0.00  0.00    +0.000 C 
ATOM     16  C   UNL     1      22.596   9.246 170.236  0.00  0.00    +0.000 C 
ATOM     17  C   UNL     1      25.819  10.370 166.110  0.00  0.00    +0.000 C 
ATOM     18  C   UNL     1      23.437   9.784 166.483  0.00  0.00    +0.000 A 
ATOM     19  C   UNL     1      24.582   9.706 165.678  0.00  0.00    +0.000 A 
ATOM     20  C   UNL     1      22.232   9.186 166.055  0.00  0.00    +0.000 A 
ATOM     21  C   UNL     1      24.549   9.011 164.458  0.00  0.00    +0.000 A 
ATOM     22  C   UNL     1      22.186   8.496 164.838  0.00  0.00    +0.000 A 
ATOM     23  C   UNL     1      23.361   8.413 164.048  0.00  0.00    +0.000 A 
ATOM     24  C   UNL     1      23.185   7.695 162.840  0.00  0.00    +0.000 C 
ATOM     25  C   UNL     1      20.838   7.234 163.155  0.00  0.00    +0.000 C 
ATOM     26  C   UNL     1      22.144   7.227 162.495  0.00  0.00    +0.000 C 
ATOM     27  C   UNL     1      19.782   8.028 162.347  0.00  0.00    +0.000 C 
ENDROOT
BRANCH  21  28
ATOM     28  O   UNL     1      25.642   8.895 163.641  0.00  0.00    +0.000 OA
ATOM     29  H   UNL     1      25.917   7.952 163.583  0.00  0.00    +0.000 HD
ENDBRANCH  21  28
BRANCH   8  30
ATOM     30  C   UNL     1      23.742  13.165 168.680  0.00  0.00    +0.000 C 
ATOM     31  C   UNL     1      23.066  14.338 167.954  0.00  0.00    +0.000 C 
BRANCH  31  32
ATOM     32  C   UNL     1      22.503  15.307 167.288  0.00  0.00    +0.000 C 
ATOM     33  C   UNL     1      22.575  16.666 167.959  0.00  0.00    +0.000 C 
BRANCH  32  35
ATOM     34  O   UNL     1      22.323  14.325 165.090  0.00  0.00    +0.000 OA
ATOM     35  C   UNL     1      21.868  15.042 165.969  0.00  0.00    +0.000 C 
BRANCH  35  36
ATOM     36  O   UNL     1      20.689  15.673 165.783  0.00  0.00    +0.000 OA
ATOM     37  H   UNL     1      20.770  16.116 164.912  0.00  0.00    +0.000 HD
ENDBRANCH  35  36
ENDBRANCH  32  35
ENDBRANCH  31  32
ENDBRANCH   8  30
BRANCH  20  38
ATOM     38  C   UNL     1      21.055   9.283 166.869  0.00  0.00    +0.000 C 
ATOM     39  C   UNL     1      19.808   9.411 167.756  0.00  0.00    +0.000 C 
BRANCH  39  40
ATOM     40  C   UNL     1      18.762   9.538 168.512  0.00  0.00    +0.000 C 
ATOM     41  C   UNL     1      18.212  10.906 168.783  0.00  0.00    +0.000 C 
ATOM     42  C   UNL     1      17.976   8.324 168.902  0.00  0.00    +0.000 C 
ENDBRANCH  39  40
ENDBRANCH  20  38
BRANCH  25  43
ATOM     43  C   UNL     1      20.359   5.865 163.428  0.00  0.00    +0.000 C 
BRANCH  43  44
ATOM     44  C   UNL     1      19.870   4.440 163.713  0.00  0.00    +0.000 C 
ATOM     45  C   UNL     1      19.377   3.014 163.999  0.00  0.00    +0.000 C 
BRANCH  45  46
ATOM     46  C   UNL     1      18.961   1.812 164.247  0.00  0.00    +0.000 C 
ATOM     47  C   UNL     1      19.681   0.641 163.650  0.00  0.00    +0.000 C 
ATOM     48  C   UNL     1      17.670   1.601 164.975  0.00  0.00    +0.000 C 
ENDBRANCH  45  46
ENDBRANCH  43  44
ENDBRANCH  25  43
TORSDOF 10
ENDMDL
