MODEL 1
REMARK VINA RESULT:      -8.7      0.000      0.000
REMARK  Name = AFLATOXIN.pdbqt.pdb
REMARK  1 active torsions:
REMARK  status: ('A' for Active; 'I' for Inactive)
REMARK    1  A    between atoms: C_15  and  O_23
REMARK                            x       y       z     vdW  Elec       q    Type
REMARK                         _______ _______ _______ _____ _____    ______ ____
ROOT
ATOM      1  O   UNL     1      22.662   5.615 187.058  0.00  0.00    +0.000 OA
ATOM      2  O   UNL     1      25.118   5.341 187.041  0.00  0.00    +0.000 OA
ATOM      3  O   UNL     1      22.501   3.370 191.194  0.00  0.00    +0.000 OA
ATOM      4  O   UNL     1      18.587   0.867 193.006  0.00  0.00    +0.000 OA
ATOM      5  O   UNL     1      22.542   2.497 193.271  0.00  0.00    +0.000 OA
ATOM      6  O   UNL     1      20.536   0.969 194.125  0.00  0.00    +0.000 OA
ATOM      7  C   UNL     1      23.843   4.995 188.978  0.00  0.00    +0.000 C 
ATOM      8  C   UNL     1      22.483   4.511 189.102  0.00  0.00    +0.000 A 
ATOM      9  C   UNL     1      23.914   5.702 187.675  0.00  0.00    +0.000 C 
ATOM     10  C   UNL     1      21.833   4.944 187.942  0.00  0.00    +0.000 A 
ATOM     11  C   UNL     1      21.807   3.764 190.048  0.00  0.00    +0.000 A 
ATOM     12  C   UNL     1      20.464   3.435 189.865  0.00  0.00    +0.000 A 
ATOM     13  C   UNL     1      25.058   4.272 189.096  0.00  0.00    +0.000 C 
ATOM     14  C   UNL     1      19.847   2.592 190.904  0.00  0.00    +0.000 A 
ATOM     15  C   UNL     1      19.816   3.925 188.696  0.00  0.00    +0.000 A 
ATOM     16  C   UNL     1      20.507   4.657 187.711  0.00  0.00    +0.000 A 
ATOM     17  C   UNL     1      18.528   2.100 190.778  0.00  0.00    +0.000 A 
ATOM     18  C   UNL     1      20.507   2.216 192.038  0.00  0.00    +0.000 A 
ATOM     19  C   UNL     1      25.549   4.586 188.052  0.00  0.00    +0.000 C 
ATOM     20  C   UNL     1      18.026   1.268 191.890  0.00  0.00    +0.000 A 
ATOM     21  C   UNL     1      21.904   2.685 192.245  0.00  0.00    +0.000 A 
ATOM     22  C   UNL     1      19.895   1.315 193.139  0.00  0.00    +0.000 A 
ENDROOT
BRANCH  15  23
ATOM     23  O   UNL     1      18.497   3.622 188.439  0.00  0.00    +0.000 OA
ATOM     24  C   UNL     1      18.391   2.732 187.358  0.00  0.00    +0.000 C 
ENDBRANCH  15  23
TORSDOF 1
ENDMDL
MODEL 2
REMARK VINA RESULT:      -8.4      1.445      6.841
REMARK  Name = AFLATOXIN.pdbqt.pdb
REMARK  1 active torsions:
REMARK  status: ('A' for Active; 'I' for Inactive)
REMARK    1  A    between atoms: C_15  and  O_23
REMARK                            x       y       z     vdW  Elec       q    Type
REMARK                         _______ _______ _______ _____ _____    ______ ____
ROOT
ATOM      1  O   UNL     1      21.105   1.804 193.357  0.00  0.00    +0.000 OA
ATOM      2  O   UNL     1      19.089   0.454 192.890  0.00  0.00    +0.000 OA
ATOM      3  O   UNL     1      20.773   3.679 189.050  0.00  0.00    +0.000 OA
ATOM      4  O   UNL     1      24.538   5.605 186.407  0.00  0.00    +0.000 OA
ATOM      5  O   UNL     1      20.404   4.690 187.071  0.00  0.00    +0.000 OA
ATOM      6  O   UNL     1      22.451   5.499 185.573  0.00  0.00    +0.000 OA
ATOM      7  C   UNL     1      19.702   2.276 191.548  0.00  0.00    +0.000 C 
ATOM      8  C   UNL     1      21.026   2.782 191.243  0.00  0.00    +0.000 A 
ATOM      9  C   UNL     1      19.789   1.675 192.902  0.00  0.00    +0.000 C 
ATOM     10  C   UNL     1      21.796   2.496 192.375  0.00  0.00    +0.000 A 
ATOM     11  C   UNL     1      21.593   3.404 190.147  0.00  0.00    +0.000 A 
ATOM     12  C   UNL     1      22.940   3.763 190.153  0.00  0.00    +0.000 A 
ATOM     13  C   UNL     1      18.889   1.400 190.784  0.00  0.00    +0.000 C 
ATOM     14  C   UNL     1      23.463   4.374 188.919  0.00  0.00    +0.000 A 
ATOM     15  C   UNL     1      23.690   3.498 191.335  0.00  0.00    +0.000 A 
ATOM     16  C   UNL     1      23.129   2.834 192.442  0.00  0.00    +0.000 A 
ATOM     17  C   UNL     1      24.834   4.678 188.761  0.00  0.00    +0.000 A 
ATOM     18  C   UNL     1      22.670   4.665 187.846  0.00  0.00    +0.000 A 
ATOM     19  C   UNL     1      18.679   0.578 191.627  0.00  0.00    +0.000 C 
ATOM     20  C   UNL     1      25.229   5.289 187.476  0.00  0.00    +0.000 A 
ATOM     21  C   UNL     1      21.215   4.369 187.928  0.00  0.00    +0.000 A 
ATOM     22  C   UNL     1      23.191   5.288 186.528  0.00  0.00    +0.000 A 
ENDROOT
BRANCH  15  23
ATOM     23  O   UNL     1      25.031   3.806 191.405  0.00  0.00    +0.000 OA
ATOM     24  C   UNL     1      25.782   2.681 191.786  0.00  0.00    +0.000 C 
ENDBRANCH  15  23
TORSDOF 1
ENDMDL
MODEL 3
REMARK VINA RESULT:      -8.2      3.007      4.867
REMARK  Name = AFLATOXIN.pdbqt.pdb
REMARK  1 active torsions:
REMARK  status: ('A' for Active; 'I' for Inactive)
REMARK    1  A    between atoms: C_15  and  O_23
REMARK                            x       y       z     vdW  Elec       q    Type
REMARK                         _______ _______ _______ _____ _____    ______ ____
ROOT
ATOM      1  O   UNL     1      25.945   0.931 190.121  0.00  0.00    +0.000 OA
ATOM      2  O   UNL     1      26.315  -0.897 191.743  0.00  0.00    +0.000 OA
ATOM      3  O   UNL     1      21.341   0.782 191.098  0.00  0.00    +0.000 OA
ATOM      4  O   UNL     1      17.664   2.244 188.063  0.00  0.00    +0.000 OA
ATOM      5  O   UNL     1      19.198   0.799 191.795  0.00  0.00    +0.000 OA
ATOM      6  O   UNL     1      17.235   1.359 190.085  0.00  0.00    +0.000 OA
ATOM      7  C   UNL     1      24.308   0.313 191.671  0.00  0.00    +0.000 C 
ATOM      8  C   UNL     1      23.651   0.927 190.535  0.00  0.00    +0.000 A 
ATOM      9  C   UNL     1      25.763   0.346 191.378  0.00  0.00    +0.000 C 
ATOM     10  C   UNL     1      24.687   1.299 189.671  0.00  0.00    +0.000 A 
ATOM     11  C   UNL     1      22.333   1.161 190.191  0.00  0.00    +0.000 A 
ATOM     12  C   UNL     1      22.014   1.775 188.981  0.00  0.00    +0.000 A 
ATOM     13  C   UNL     1      24.059  -0.952 192.264  0.00  0.00    +0.000 C 
ATOM     14  C   UNL     1      20.580   1.932 188.683  0.00  0.00    +0.000 A 
ATOM     15  C   UNL     1      23.089   2.180 188.141  0.00  0.00    +0.000 A 
ATOM     16  C   UNL     1      24.433   1.916 188.467  0.00  0.00    +0.000 A 
ATOM     17  C   UNL     1      20.128   2.437 187.443  0.00  0.00    +0.000 A 
ATOM     18  C   UNL     1      19.599   1.585 189.567  0.00  0.00    +0.000 A 
ATOM     19  C   UNL     1      25.171  -1.386 192.222  0.00  0.00    +0.000 C 
ATOM     20  C   UNL     1      18.665   2.547 187.270  0.00  0.00    +0.000 A 
ATOM     21  C   UNL     1      19.990   1.037 190.894  0.00  0.00    +0.000 A 
ATOM     22  C   UNL     1      18.084   1.718 189.278  0.00  0.00    +0.000 A 
ENDROOT
BRANCH  15  23
ATOM     23  O   UNL     1      22.848   2.775 186.921  0.00  0.00    +0.000 OA
ATOM     24  C   UNL     1      23.509   4.012 186.830  0.00  0.00    +0.000 C 
ENDBRANCH  15  23
TORSDOF 1
ENDMDL
MODEL 4
REMARK VINA RESULT:      -8.1      2.966      5.246
REMARK  Name = AFLATOXIN.pdbqt.pdb
REMARK  1 active torsions:
REMARK  status: ('A' for Active; 'I' for Inactive)
REMARK    1  A    between atoms: C_15  and  O_23
REMARK                            x       y       z     vdW  Elec       q    Type
REMARK                         _______ _______ _______ _____ _____    ______ ____
ROOT
ATOM      1  O   UNL     1      25.458   0.145 191.516  0.00  0.00    +0.000 OA
ATOM      2  O   UNL     1      27.544   1.291 190.853  0.00  0.00    +0.000 OA
ATOM      3  O   UNL     1      23.302   2.044 187.785  0.00  0.00    +0.000 OA
ATOM      4  O   UNL     1      18.407   2.898 187.364  0.00  0.00    +0.000 OA
ATOM      5  O   UNL     1      22.418   2.804 185.857  0.00  0.00    +0.000 OA
ATOM      6  O   UNL     1      19.844   3.473 185.732  0.00  0.00    +0.000 OA
ATOM      7  C   UNL     1      25.721   1.087 189.393  0.00  0.00    +0.000 C 
ATOM      8  C   UNL     1      24.305   1.042 189.700  0.00  0.00    +0.000 A 
ATOM      9  C   UNL     1      26.418   0.497 190.563  0.00  0.00    +0.000 C 
ATOM     10  C   UNL     1      24.223   0.441 190.960  0.00  0.00    +0.000 A 
ATOM     11  C   UNL     1      23.162   1.463 189.047  0.00  0.00    +0.000 A 
ATOM     12  C   UNL     1      21.908   1.288 189.630  0.00  0.00    +0.000 A 
ATOM     13  C   UNL     1      26.508   2.197 188.990  0.00  0.00    +0.000 C 
ATOM     14  C   UNL     1      20.755   1.816 188.879  0.00  0.00    +0.000 A 
ATOM     15  C   UNL     1      21.851   0.635 190.894  0.00  0.00    +0.000 A 
ATOM     16  C   UNL     1      23.013   0.235 191.581  0.00  0.00    +0.000 A 
ATOM     17  C   UNL     1      19.447   1.801 189.414  0.00  0.00    +0.000 A 
ATOM     18  C   UNL     1      20.874   2.369 187.636  0.00  0.00    +0.000 A 
ATOM     19  C   UNL     1      27.361   2.117 189.823  0.00  0.00    +0.000 C 
ATOM     20  C   UNL     1      18.380   2.358 188.559  0.00  0.00    +0.000 A 
ATOM     21  C   UNL     1      22.220   2.431 187.004  0.00  0.00    +0.000 A 
ATOM     22  C   UNL     1      19.688   2.950 186.829  0.00  0.00    +0.000 A 
ENDROOT
BRANCH  15  23
ATOM     23  O   UNL     1      20.647   0.447 191.539  0.00  0.00    +0.000 OA
ATOM     24  C   UNL     1      20.760  -0.548 192.524  0.00  0.00    +0.000 C 
ENDBRANCH  15  23
TORSDOF 1
ENDMDL
MODEL 5
REMARK VINA RESULT:      -8.1      2.597      4.285
REMARK  Name = AFLATOXIN.pdbqt.pdb
REMARK  1 active torsions:
REMARK  status: ('A' for Active; 'I' for Inactive)
REMARK    1  A    between atoms: C_15  and  O_23
REMARK                            x       y       z     vdW  Elec       q    Type
REMARK                         _______ _______ _______ _____ _____    ______ ____
ROOT
ATOM      1  O   UNL     1      23.000   2.161 186.589  0.00  0.00    +0.000 OA
ATOM      2  O   UNL     1      21.589   3.891 185.530  0.00  0.00    +0.000 OA
ATOM      3  O   UNL     1      19.700   1.580 189.896  0.00  0.00    +0.000 OA
ATOM      4  O   UNL     1      20.464  -0.149 194.511  0.00  0.00    +0.000 OA
ATOM      5  O   UNL     1      17.974   1.205 191.296  0.00  0.00    +0.000 OA
ATOM      6  O   UNL     1      18.425   0.507 193.826  0.00  0.00    +0.000 OA
ATOM      7  C   UNL     1      20.746   2.419 187.147  0.00  0.00    +0.000 C 
ATOM      8  C   UNL     1      21.427   1.807 188.271  0.00  0.00    +0.000 A 
ATOM      9  C   UNL     1      21.773   2.615 186.095  0.00  0.00    +0.000 C 
ATOM     10  C   UNL     1      22.753   1.655 187.855  0.00  0.00    +0.000 A 
ATOM     11  C   UNL     1      21.040   1.417 189.539  0.00  0.00    +0.000 A 
ATOM     12  C   UNL     1      21.963   0.860 190.422  0.00  0.00    +0.000 A 
ATOM     13  C   UNL     1      19.938   3.585 187.126  0.00  0.00    +0.000 C 
ATOM     14  C   UNL     1      21.466   0.524 191.768  0.00  0.00    +0.000 A 
ATOM     15  C   UNL     1      23.297   0.677 189.957  0.00  0.00    +0.000 A 
ATOM     16  C   UNL     1      23.707   1.103 188.679  0.00  0.00    +0.000 A 
ATOM     17  C   UNL     1      22.328   0.058 192.786  0.00  0.00    +0.000 A 
ATOM     18  C   UNL     1      20.155   0.660 192.125  0.00  0.00    +0.000 A 
ATOM     19  C   UNL     1      20.508   4.175 186.256  0.00  0.00    +0.000 C 
ATOM     20  C   UNL     1      21.703  -0.244 194.090  0.00  0.00    +0.000 A 
ATOM     21  C   UNL     1      19.182   1.152 191.113  0.00  0.00    +0.000 A 
ATOM     22  C   UNL     1      19.603   0.335 193.535  0.00  0.00    +0.000 A 
ENDROOT
BRANCH  15  23
ATOM     23  O   UNL     1      24.267   0.151 190.782  0.00  0.00    +0.000 OA
ATOM     24  C   UNL     1      25.417   0.959 190.777  0.00  0.00    +0.000 C 
ENDBRANCH  15  23
TORSDOF 1
ENDMDL
MODEL 6
REMARK VINA RESULT:      -8.0      1.941      4.571
REMARK  Name = AFLATOXIN.pdbqt.pdb
REMARK  1 active torsions:
REMARK  status: ('A' for Active; 'I' for Inactive)
REMARK    1  A    between atoms: C_15  and  O_23
REMARK                            x       y       z     vdW  Elec       q    Type
REMARK                         _______ _______ _______ _____ _____    ______ ____
ROOT
ATOM      1  O   UNL     1      25.062   3.583 192.065  0.00  0.00    +0.000 OA
ATOM      2  O   UNL     1      25.534   1.963 193.870  0.00  0.00    +0.000 OA
ATOM      3  O   UNL     1      20.637   1.984 191.869  0.00  0.00    +0.000 OA
ATOM      4  O   UNL     1      17.623   2.216 187.903  0.00  0.00    +0.000 OA
ATOM      5  O   UNL     1      18.488   1.321 192.005  0.00  0.00    +0.000 OA
ATOM      6  O   UNL     1      16.969   1.235 189.819  0.00  0.00    +0.000 OA
ATOM      7  C   UNL     1      23.346   2.476 193.201  0.00  0.00    +0.000 C 
ATOM      8  C   UNL     1      22.856   2.854 191.891  0.00  0.00    +0.000 A 
ATOM      9  C   UNL     1      24.744   2.967 193.279  0.00  0.00    +0.000 C 
ATOM     10  C   UNL     1      23.917   3.535 191.286  0.00  0.00    +0.000 A 
ATOM     11  C   UNL     1      21.668   2.659 191.211  0.00  0.00    +0.000 A 
ATOM     12  C   UNL     1      21.506   3.143 189.914  0.00  0.00    +0.000 A 
ATOM     13  C   UNL     1      23.348   1.196 193.814  0.00  0.00    +0.000 C 
ATOM     14  C   UNL     1      20.223   2.840 189.256  0.00  0.00    +0.000 A 
ATOM     15  C   UNL     1      22.587   3.870 189.339  0.00  0.00    +0.000 A 
ATOM     16  C   UNL     1      23.812   4.043 190.011  0.00  0.00    +0.000 A 
ATOM     17  C   UNL     1      19.981   3.179 187.905  0.00  0.00    +0.000 A 
ATOM     18  C   UNL     1      19.200   2.198 189.892  0.00  0.00    +0.000 A 
ATOM     19  C   UNL     1      24.511   1.135 194.086  0.00  0.00    +0.000 C 
ATOM     20  C   UNL     1      18.655   2.821 187.364  0.00  0.00    +0.000 A 
ATOM     21  C   UNL     1      19.377   1.799 191.314  0.00  0.00    +0.000 A 
ATOM     22  C   UNL     1      17.849   1.847 189.224  0.00  0.00    +0.000 A 
ENDROOT
BRANCH  15  23
ATOM     23  O   UNL     1      22.505   4.360 188.054  0.00  0.00    +0.000 OA
ATOM     24  C   UNL     1      22.890   5.711 188.011  0.00  0.00    +0.000 C 
ENDBRANCH  15  23
TORSDOF 1
ENDMDL
MODEL 7
REMARK VINA RESULT:      -7.7      2.826      6.761
REMARK  Name = AFLATOXIN.pdbqt.pdb
REMARK  1 active torsions:
REMARK  status: ('A' for Active; 'I' for Inactive)
REMARK    1  A    between atoms: C_15  and  O_23
REMARK                            x       y       z     vdW  Elec       q    Type
REMARK                         _______ _______ _______ _____ _____    ______ ____
ROOT
ATOM      1  O   UNL     1      23.227  -0.636 193.227  0.00  0.00    +0.000 OA
ATOM      2  O   UNL     1      21.428  -1.929 194.323  0.00  0.00    +0.000 OA
ATOM      3  O   UNL     1      20.019   1.280 190.361  0.00  0.00    +0.000 OA
ATOM      4  O   UNL     1      20.901   3.126 185.813  0.00  0.00    +0.000 OA
ATOM      5  O   UNL     1      18.394   2.315 189.193  0.00  0.00    +0.000 OA
ATOM      6  O   UNL     1      18.826   3.082 186.680  0.00  0.00    +0.000 OA
ATOM      7  C   UNL     1      20.971  -0.114 192.912  0.00  0.00    +0.000 C 
ATOM      8  C   UNL     1      21.713   0.360 191.761  0.00  0.00    +0.000 A 
ATOM      9  C   UNL     1      21.966  -0.727 193.825  0.00  0.00    +0.000 C 
ATOM     10  C   UNL     1      23.049   0.045 192.033  0.00  0.00    +0.000 A 
ATOM     11  C   UNL     1      21.366   0.975 190.574  0.00  0.00    +0.000 A 
ATOM     12  C   UNL     1      22.340   1.298 189.630  0.00  0.00    +0.000 A 
ATOM     13  C   UNL     1      19.834  -0.963 192.948  0.00  0.00    +0.000 C 
ATOM     14  C   UNL     1      21.863   1.905 188.375  0.00  0.00    +0.000 A 
ATOM     15  C   UNL     1      23.696   1.004 189.952  0.00  0.00    +0.000 A 
ATOM     16  C   UNL     1      24.055   0.347 191.144  0.00  0.00    +0.000 A 
ATOM     17  C   UNL     1      22.739   2.174 187.298  0.00  0.00    +0.000 A 
ATOM     18  C   UNL     1      20.554   2.225 188.160  0.00  0.00    +0.000 A 
ATOM     19  C   UNL     1      20.255  -1.785 193.706  0.00  0.00    +0.000 C 
ATOM     20  C   UNL     1      22.136   2.785 186.097  0.00  0.00    +0.000 A 
ATOM     21  C   UNL     1      19.565   1.966 189.241  0.00  0.00    +0.000 A 
ATOM     22  C   UNL     1      20.017   2.844 186.847  0.00  0.00    +0.000 A 
ENDROOT
BRANCH  15  23
ATOM     23  O   UNL     1      24.709   1.277 189.059  0.00  0.00    +0.000 OA
ATOM     24  C   UNL     1      25.963   0.997 189.628  0.00  0.00    +0.000 C 
ENDBRANCH  15  23
TORSDOF 1
ENDMDL
MODEL 8
REMARK VINA RESULT:      -7.7     23.636     26.835
REMARK  Name = AFLATOXIN.pdbqt.pdb
REMARK  1 active torsions:
REMARK  status: ('A' for Active; 'I' for Inactive)
REMARK    1  A    between atoms: C_15  and  O_23
REMARK                            x       y       z     vdW  Elec       q    Type
REMARK                         _______ _______ _______ _____ _____    ______ ____
ROOT
ATOM      1  O   UNL     1      35.432   2.368 163.492  0.00  0.00    +0.000 OA
ATOM      2  O   UNL     1      37.023   3.602 164.924  0.00  0.00    +0.000 OA
ATOM      3  O   UNL     1      32.467   2.079 167.139  0.00  0.00    +0.000 OA
ATOM      4  O   UNL     1      28.966  -1.413 167.785  0.00  0.00    +0.000 OA
ATOM      5  O   UNL     1      31.021   2.191 168.863  0.00  0.00    +0.000 OA
ATOM      6  O   UNL     1      29.317   0.196 169.317  0.00  0.00    +0.000 OA
ATOM      7  C   UNL     1      34.785   3.279 165.545  0.00  0.00    +0.000 C 
ATOM      8  C   UNL     1      33.903   2.170 165.240  0.00  0.00    +0.000 A 
ATOM      9  C   UNL     1      35.732   3.382 164.407  0.00  0.00    +0.000 C 
ATOM     10  C   UNL     1      34.325   1.700 163.992  0.00  0.00    +0.000 A 
ATOM     11  C   UNL     1      32.856   1.558 165.903  0.00  0.00    +0.000 A 
ATOM     12  C   UNL     1      32.200   0.467 165.337  0.00  0.00    +0.000 A 
ATOM     13  C   UNL     1      35.556   3.505 166.715  0.00  0.00    +0.000 C 
ATOM     14  C   UNL     1      31.131  -0.148 166.144  0.00  0.00    +0.000 A 
ATOM     15  C   UNL     1      32.623   0.036 164.047  0.00  0.00    +0.000 A 
ATOM     16  C   UNL     1      33.710   0.632 163.380  0.00  0.00    +0.000 A 
ATOM     17  C   UNL     1      30.468  -1.325 165.729  0.00  0.00    +0.000 A 
ATOM     18  C   UNL     1      30.728   0.361 167.345  0.00  0.00    +0.000 A 
ATOM     19  C   UNL     1      36.621   3.657 166.195  0.00  0.00    +0.000 C 
ATOM     20  C   UNL     1      29.415  -1.839 166.628  0.00  0.00    +0.000 A 
ATOM     21  C   UNL     1      31.381   1.595 167.858  0.00  0.00    +0.000 A 
ATOM     22  C   UNL     1      29.623  -0.271 168.227  0.00  0.00    +0.000 A 
ENDROOT
BRANCH  15  23
ATOM     23  O   UNL     1      32.033  -1.049 163.435  0.00  0.00    +0.000 OA
ATOM     24  C   UNL     1      33.004  -1.974 163.018  0.00  0.00    +0.000 C 
ENDBRANCH  15  23
TORSDOF 1
ENDMDL
MODEL 9
REMARK VINA RESULT:      -7.5      2.211      6.849
REMARK  Name = AFLATOXIN.pdbqt.pdb
REMARK  1 active torsions:
REMARK  status: ('A' for Active; 'I' for Inactive)
REMARK    1  A    between atoms: C_15  and  O_23
REMARK                            x       y       z     vdW  Elec       q    Type
REMARK                         _______ _______ _______ _____ _____    ______ ____
ROOT
ATOM      1  O   UNL     1      23.036  -0.657 193.457  0.00  0.00    +0.000 OA
ATOM      2  O   UNL     1      21.005  -2.062 193.358  0.00  0.00    +0.000 OA
ATOM      3  O   UNL     1      20.889   2.530 190.735  0.00  0.00    +0.000 OA
ATOM      4  O   UNL     1      23.155   5.838 187.770  0.00  0.00    +0.000 OA
ATOM      5  O   UNL     1      19.708   4.098 189.629  0.00  0.00    +0.000 OA
ATOM      6  O   UNL     1      20.913   5.698 187.875  0.00  0.00    +0.000 OA
ATOM      7  C   UNL     1      20.993   0.188 192.700  0.00  0.00    +0.000 C 
ATOM      8  C   UNL     1      22.058   0.974 192.110  0.00  0.00    +0.000 A 
ATOM      9  C   UNL     1      21.651  -0.827 193.558  0.00  0.00    +0.000 C 
ATOM     10  C   UNL     1      23.239   0.437 192.630  0.00  0.00    +0.000 A 
ATOM     11  C   UNL     1      22.100   2.024 191.211  0.00  0.00    +0.000 A 
ATOM     12  C   UNL     1      23.320   2.568 190.814  0.00  0.00    +0.000 A 
ATOM     13  C   UNL     1      19.922  -0.483 192.054  0.00  0.00    +0.000 C 
ATOM     14  C   UNL     1      23.263   3.648 189.814  0.00  0.00    +0.000 A 
ATOM     15  C   UNL     1      24.505   2.029 191.391  0.00  0.00    +0.000 A 
ATOM     16  C   UNL     1      24.473   0.938 192.281  0.00  0.00    +0.000 A 
ATOM     17  C   UNL     1      24.433   4.204 189.249  0.00  0.00    +0.000 A 
ATOM     18  C   UNL     1      22.086   4.166 189.353  0.00  0.00    +0.000 A 
ATOM     19  C   UNL     1      20.091  -1.570 192.521  0.00  0.00    +0.000 C 
ATOM     20  C   UNL     1      24.239   5.282 188.259  0.00  0.00    +0.000 A 
ATOM     21  C   UNL     1      20.807   3.631 189.891  0.00  0.00    +0.000 A 
ATOM     22  C   UNL     1      21.990   5.287 188.290  0.00  0.00    +0.000 A 
ENDROOT
BRANCH  15  23
ATOM     23  O   UNL     1      25.747   2.504 191.030  0.00  0.00    +0.000 OA
ATOM     24  C   UNL     1      26.743   1.548 191.296  0.00  0.00    +0.000 C 
ENDBRANCH  15  23
TORSDOF 1
ENDMDL
