MODEL 1
REMARK VINA RESULT:      -7.9      0.000      0.000
REMARK  Name = AZD4547.pdbqt.pdb
REMARK  6 active torsions:
REMARK  status: ('A' for Active; 'I' for Inactive)
REMARK    1  A    between atoms: C_3  and  C_23
REMARK    2  A    between atoms: C_8  and  C_11
REMARK    3  A    between atoms: C_12  and  C_13
REMARK    4  A    between atoms: C_15  and  O_19
REMARK    5  A    between atoms: C_17  and  O_21
REMARK    6  A    between atoms: C_26  and  N_29
REMARK                            x       y       z     vdW  Elec       q    Type
REMARK                         _______ _______ _______ _____ _____    ______ ____
ROOT
ATOM      1  O   UNL     1      27.137   0.620 189.979  0.00  0.00    +0.000 OA
ATOM      2  N   UNL     1      28.505   2.265 189.091  0.00  0.00    +0.000 N 
ATOM      3  C   UNL     1      27.295   1.656 189.343  0.00  0.00    +0.000 C 
ATOM      4  H   UNL     1      28.586   3.117 188.559  0.00  0.00    +0.000 HD
ATOM      5  C   UNL     1      29.718   1.792 189.530  0.00  0.00    +0.000 A 
ATOM      6  N   UNL     1      30.826   2.473 189.219  0.00  0.00    +0.000 NA
ATOM      7  N   UNL     1      31.812   1.755 189.789  0.00  0.00    +0.000 N 
ATOM      8  C   UNL     1      31.372   0.648 190.450  0.00  0.00    +0.000 A 
ATOM      9  H   UNL     1      32.768   2.079 189.689  0.00  0.00    +0.000 HD
ATOM     10  C   UNL     1      30.007   0.639 190.301  0.00  0.00    +0.000 A 
ENDROOT
BRANCH   3  11
ATOM     11  C   UNL     1      26.100   2.333 188.781  0.00  0.00    +0.000 A 
ATOM     12  C   UNL     1      26.025   3.723 188.854  0.00  0.00    +0.000 A 
ATOM     13  C   UNL     1      24.918   4.392 188.338  0.00  0.00    +0.000 A 
ATOM     14  C   UNL     1      23.855   3.691 187.752  0.00  0.00    +0.000 A 
ATOM     15  C   UNL     1      23.956   2.295 187.670  0.00  0.00    +0.000 A 
ATOM     16  C   UNL     1      25.062   1.620 188.185  0.00  0.00    +0.000 A 
BRANCH  14  17
ATOM     17  N   UNL     1      22.753   4.375 187.188  0.00  0.00    +0.000 N 
ATOM     18  C   UNL     1      21.398   3.859 187.453  0.00  0.00    +0.000 C 
ATOM     19  C   UNL     1      20.268   3.513 186.656  0.00  0.00    +0.000 C 
ATOM     20  N   UNL     1      20.407   3.679 185.244  0.00  0.00    +0.000 N 
ATOM     21  C   UNL     1      19.010   2.972 187.235  0.00  0.00    +0.000 C 
ATOM     22  C   UNL     1      21.651   4.171 184.749  0.00  0.00    +0.000 C 
ATOM     23  H   UNL     1      19.657   3.433 184.616  0.00  0.00    +0.000 HD
ATOM     24  C   UNL     1      22.656   4.458 185.721  0.00  0.00    +0.000 C 
ATOM     25  C   UNL     1      21.881   4.326 183.289  0.00  0.00    +0.000 C 
ENDBRANCH  14  17
ENDBRANCH   3  11
BRANCH   8  26
ATOM     26  C   UNL     1      32.195  -0.276 191.138  0.00  0.00    +0.000 C 
ATOM     27  C   UNL     1      33.083  -1.276 191.885  0.00  0.00    +0.000 C 
BRANCH  27  28
ATOM     28  C   UNL     1      33.902  -2.208 192.586  0.00  0.00    +0.000 A 
ATOM     29  C   UNL     1      33.348  -3.004 193.584  0.00  0.00    +0.000 A 
ATOM     30  C   UNL     1      34.145  -3.923 194.271  0.00  0.00    +0.000 A 
ATOM     31  C   UNL     1      35.498  -4.036 193.943  0.00  0.00    +0.000 A 
ATOM     32  C   UNL     1      36.058  -3.236 192.946  0.00  0.00    +0.000 A 
ATOM     33  C   UNL     1      35.251  -2.322 192.266  0.00  0.00    +0.000 A 
BRANCH  30  34
ATOM     34  O   UNL     1      33.703  -4.761 195.265  0.00  0.00    +0.000 OA
ATOM     35  C   UNL     1      34.026  -6.113 195.099  0.00  0.00    +0.000 C 
ENDBRANCH  30  34
BRANCH  32  36
ATOM     36  O   UNL     1      37.396  -3.434 192.708  0.00  0.00    +0.000 OA
ATOM     37  C   UNL     1      37.717  -4.609 192.014  0.00  0.00    +0.000 C 
ENDBRANCH  32  36
ENDBRANCH  27  28
ENDBRANCH   8  26
TORSDOF 6
ENDMDL
MODEL 2
REMARK VINA RESULT:      -7.8      9.910     14.499
REMARK  Name = AZD4547.pdbqt.pdb
REMARK  6 active torsions:
REMARK  status: ('A' for Active; 'I' for Inactive)
REMARK    1  A    between atoms: C_3  and  C_23
REMARK    2  A    between atoms: C_8  and  C_11
REMARK    3  A    between atoms: C_12  and  C_13
REMARK    4  A    between atoms: C_15  and  O_19
REMARK    5  A    between atoms: C_17  and  O_21
REMARK    6  A    between atoms: C_26  and  N_29
REMARK                            x       y       z     vdW  Elec       q    Type
REMARK                         _______ _______ _______ _____ _____    ______ ____
ROOT
ATOM      1  O   UNL     1      18.655   1.028 192.401  0.00  0.00    +0.000 OA
ATOM      2  N   UNL     1      20.554   1.285 193.700  0.00  0.00    +0.000 N 
ATOM      3  C   UNL     1      19.850   1.278 192.517  0.00  0.00    +0.000 C 
ATOM      4  H   UNL     1      21.540   1.494 193.746  0.00  0.00    +0.000 HD
ATOM      5  C   UNL     1      20.007   1.016 194.932  0.00  0.00    +0.000 A 
ATOM      6  N   UNL     1      20.798   1.053 196.010  0.00  0.00    +0.000 NA
ATOM      7  N   UNL     1      19.966   0.751 197.024  0.00  0.00    +0.000 N 
ATOM      8  C   UNL     1      18.681   0.525 196.632  0.00  0.00    +0.000 A 
ATOM      9  H   UNL     1      20.342   0.715 197.966  0.00  0.00    +0.000 HD
ATOM     10  C   UNL     1      18.671   0.689 195.269  0.00  0.00    +0.000 A 
ENDROOT
BRANCH   3  11
ATOM     11  C   UNL     1      20.629   1.599 191.296  0.00  0.00    +0.000 A 
ATOM     12  C   UNL     1      21.792   0.874 191.037  0.00  0.00    +0.000 A 
ATOM     13  C   UNL     1      22.549   1.149 189.900  0.00  0.00    +0.000 A 
ATOM     14  C   UNL     1      22.174   2.160 189.006  0.00  0.00    +0.000 A 
ATOM     15  C   UNL     1      20.992   2.866 189.272  0.00  0.00    +0.000 A 
ATOM     16  C   UNL     1      20.230   2.596 190.408  0.00  0.00    +0.000 A 
BRANCH  14  17
ATOM     17  N   UNL     1      22.919   2.407 187.829  0.00  0.00    +0.000 N 
ATOM     18  C   UNL     1      23.863   3.538 187.823  0.00  0.00    +0.000 C 
ATOM     19  C   UNL     1      24.106   4.655 186.971  0.00  0.00    +0.000 C 
ATOM     20  N   UNL     1      23.266   4.777 185.822  0.00  0.00    +0.000 N 
ATOM     21  C   UNL     1      25.149   5.675 187.258  0.00  0.00    +0.000 C 
ATOM     22  C   UNL     1      22.263   3.782 185.621  0.00  0.00    +0.000 C 
ATOM     23  H   UNL     1      23.365   5.554 185.187  0.00  0.00    +0.000 HD
ATOM     24  C   UNL     1      22.188   2.744 186.596  0.00  0.00    +0.000 C 
ATOM     25  C   UNL     1      21.325   3.871 184.471  0.00  0.00    +0.000 C 
ENDBRANCH  14  17
ENDBRANCH   3  11
BRANCH   8  26
ATOM     26  C   UNL     1      17.608   0.193 197.493  0.00  0.00    +0.000 C 
ATOM     27  C   UNL     1      16.444  -0.167 198.422  0.00  0.00    +0.000 C 
BRANCH  27  28
ATOM     28  C   UNL     1      15.356  -0.503 199.279  0.00  0.00    +0.000 A 
ATOM     29  C   UNL     1      15.245   0.102 200.528  0.00  0.00    +0.000 A 
ATOM     30  C   UNL     1      14.177  -0.219 201.370  0.00  0.00    +0.000 A 
ATOM     31  C   UNL     1      13.224  -1.147 200.943  0.00  0.00    +0.000 A 
ATOM     32  C   UNL     1      13.335  -1.760 199.694  0.00  0.00    +0.000 A 
ATOM     33  C   UNL     1      14.407  -1.430 198.862  0.00  0.00    +0.000 A 
BRANCH  30  34
ATOM     34  O   UNL     1      13.966   0.321 202.614  0.00  0.00    +0.000 OA
ATOM     35  C   UNL     1      13.185   1.482 202.641  0.00  0.00    +0.000 C 
ENDBRANCH  30  34
BRANCH  32  36
ATOM     36  O   UNL     1      12.341  -2.654 199.381  0.00  0.00    +0.000 OA
ATOM     37  C   UNL     1      11.034  -2.209 199.620  0.00  0.00    +0.000 C 
ENDBRANCH  32  36
ENDBRANCH  27  28
ENDBRANCH   8  26
TORSDOF 6
ENDMDL
MODEL 3
REMARK VINA RESULT:      -7.8      5.212      6.597
REMARK  Name = AZD4547.pdbqt.pdb
REMARK  6 active torsions:
REMARK  status: ('A' for Active; 'I' for Inactive)
REMARK    1  A    between atoms: C_3  and  C_23
REMARK    2  A    between atoms: C_8  and  C_11
REMARK    3  A    between atoms: C_12  and  C_13
REMARK    4  A    between atoms: C_15  and  O_19
REMARK    5  A    between atoms: C_17  and  O_21
REMARK    6  A    between atoms: C_26  and  N_29
REMARK                            x       y       z     vdW  Elec       q    Type
REMARK                         _______ _______ _______ _____ _____    ______ ____
ROOT
ATOM      1  O   UNL     1      28.593   2.872 190.512  0.00  0.00    +0.000 OA
ATOM      2  N   UNL     1      28.583   3.954 188.464  0.00  0.00    +0.000 N 
ATOM      3  C   UNL     1      28.028   3.199 189.473  0.00  0.00    +0.000 C 
ATOM      4  H   UNL     1      28.080   4.195 187.624  0.00  0.00    +0.000 HD
ATOM      5  C   UNL     1      29.861   4.458 188.484  0.00  0.00    +0.000 A 
ATOM      6  N   UNL     1      30.286   5.178 187.440  0.00  0.00    +0.000 NA
ATOM      7  N   UNL     1      31.547   5.510 187.775  0.00  0.00    +0.000 N 
ATOM      8  C   UNL     1      31.936   5.031 188.990  0.00  0.00    +0.000 A 
ATOM      9  H   UNL     1      32.090   6.070 187.126  0.00  0.00    +0.000 HD
ATOM     10  C   UNL     1      30.859   4.337 189.483  0.00  0.00    +0.000 A 
ENDROOT
BRANCH   3  11
ATOM     11  C   UNL     1      26.629   2.754 189.257  0.00  0.00    +0.000 A 
ATOM     12  C   UNL     1      25.595   3.635 189.567  0.00  0.00    +0.000 A 
ATOM     13  C   UNL     1      24.269   3.252 189.377  0.00  0.00    +0.000 A 
ATOM     14  C   UNL     1      23.945   1.979 188.889  0.00  0.00    +0.000 A 
ATOM     15  C   UNL     1      24.998   1.113 188.566  0.00  0.00    +0.000 A 
ATOM     16  C   UNL     1      26.327   1.491 188.753  0.00  0.00    +0.000 A 
BRANCH  14  17
ATOM     17  N   UNL     1      22.600   1.608 188.655  0.00  0.00    +0.000 N 
ATOM     18  C   UNL     1      21.905   2.188 187.493  0.00  0.00    +0.000 C 
ATOM     19  C   UNL     1      20.669   2.866 187.281  0.00  0.00    +0.000 C 
ATOM     20  N   UNL     1      19.849   3.073 188.432  0.00  0.00    +0.000 N 
ATOM     21  C   UNL     1      20.247   3.373 185.949  0.00  0.00    +0.000 C 
ATOM     22  C   UNL     1      20.327   2.591 189.687  0.00  0.00    +0.000 C 
ATOM     23  H   UNL     1      18.972   3.566 188.362  0.00  0.00    +0.000 HD
ATOM     24  C   UNL     1      21.594   1.937 189.680  0.00  0.00    +0.000 C 
ATOM     25  C   UNL     1      19.546   2.812 190.933  0.00  0.00    +0.000 C 
ENDBRANCH  14  17
ENDBRANCH   3  11
BRANCH   8  26
ATOM     26  C   UNL     1      33.205   5.236 189.583  0.00  0.00    +0.000 C 
ATOM     27  C   UNL     1      34.580   5.461 190.221  0.00  0.00    +0.000 C 
BRANCH  27  28
ATOM     28  C   UNL     1      35.859   5.678 190.810  0.00  0.00    +0.000 A 
ATOM     29  C   UNL     1      36.806   6.453 190.147  0.00  0.00    +0.000 A 
ATOM     30  C   UNL     1      38.060   6.673 190.722  0.00  0.00    +0.000 A 
ATOM     31  C   UNL     1      38.349   6.113 191.968  0.00  0.00    +0.000 A 
ATOM     32  C   UNL     1      37.405   5.331 192.635  0.00  0.00    +0.000 A 
ATOM     33  C   UNL     1      36.155   5.118 192.049  0.00  0.00    +0.000 A 
BRANCH  30  34
ATOM     34  O   UNL     1      39.062   7.425 190.161  0.00  0.00    +0.000 OA
ATOM     35  C   UNL     1      40.327   7.268 190.740  0.00  0.00    +0.000 C 
ENDBRANCH  30  34
BRANCH  32  36
ATOM     36  O   UNL     1      37.799   4.833 193.852  0.00  0.00    +0.000 OA
ATOM     37  C   UNL     1      37.897   3.437 193.928  0.00  0.00    +0.000 C 
ENDBRANCH  32  36
ENDBRANCH  27  28
ENDBRANCH   8  26
TORSDOF 6
ENDMDL
MODEL 4
REMARK VINA RESULT:      -7.8      5.343      6.636
REMARK  Name = AZD4547.pdbqt.pdb
REMARK  6 active torsions:
REMARK  status: ('A' for Active; 'I' for Inactive)
REMARK    1  A    between atoms: C_3  and  C_23
REMARK    2  A    between atoms: C_8  and  C_11
REMARK    3  A    between atoms: C_12  and  C_13
REMARK    4  A    between atoms: C_15  and  O_19
REMARK    5  A    between atoms: C_17  and  O_21
REMARK    6  A    between atoms: C_26  and  N_29
REMARK                            x       y       z     vdW  Elec       q    Type
REMARK                         _______ _______ _______ _____ _____    ______ ____
ROOT
ATOM      1  O   UNL     1      28.596   2.987 190.591  0.00  0.00    +0.000 OA
ATOM      2  N   UNL     1      28.558   3.931 188.477  0.00  0.00    +0.000 N 
ATOM      3  C   UNL     1      28.022   3.234 189.536  0.00  0.00    +0.000 C 
ATOM      4  H   UNL     1      28.047   4.108 187.625  0.00  0.00    +0.000 HD
ATOM      5  C   UNL     1      29.827   4.459 188.456  0.00  0.00    +0.000 A 
ATOM      6  N   UNL     1      30.234   5.115 187.365  0.00  0.00    +0.000 NA
ATOM      7  N   UNL     1      31.490   5.492 187.670  0.00  0.00    +0.000 N 
ATOM      8  C   UNL     1      31.893   5.101 188.912  0.00  0.00    +0.000 A 
ATOM      9  H   UNL     1      32.020   6.017 186.983  0.00  0.00    +0.000 HD
ATOM     10  C   UNL     1      30.831   4.422 189.455  0.00  0.00    +0.000 A 
ENDROOT
BRANCH   3  11
ATOM     11  C   UNL     1      26.630   2.751 189.357  0.00  0.00    +0.000 A 
ATOM     12  C   UNL     1      25.582   3.566 189.782  0.00  0.00    +0.000 A 
ATOM     13  C   UNL     1      24.263   3.145 189.631  0.00  0.00    +0.000 A 
ATOM     14  C   UNL     1      23.959   1.899 189.067  0.00  0.00    +0.000 A 
ATOM     15  C   UNL     1      25.025   1.100 188.629  0.00  0.00    +0.000 A 
ATOM     16  C   UNL     1      26.348   1.516 188.777  0.00  0.00    +0.000 A 
BRANCH  14  17
ATOM     17  N   UNL     1      22.618   1.492 188.873  0.00  0.00    +0.000 N 
ATOM     18  C   UNL     1      21.894   2.003 187.696  0.00  0.00    +0.000 C 
ATOM     19  C   UNL     1      20.642   2.648 187.474  0.00  0.00    +0.000 C 
ATOM     20  N   UNL     1      19.836   2.895 188.627  0.00  0.00    +0.000 N 
ATOM     21  C   UNL     1      20.190   3.083 186.126  0.00  0.00    +0.000 C 
ATOM     22  C   UNL     1      20.343   2.482 189.896  0.00  0.00    +0.000 C 
ATOM     23  H   UNL     1      18.949   3.368 188.549  0.00  0.00    +0.000 HD
ATOM     24  C   UNL     1      21.623   1.851 189.898  0.00  0.00    +0.000 C 
ATOM     25  C   UNL     1      19.578   2.747 191.142  0.00  0.00    +0.000 C 
ENDBRANCH  14  17
ENDBRANCH   3  11
BRANCH   8  26
ATOM     26  C   UNL     1      33.161   5.367 189.482  0.00  0.00    +0.000 C 
ATOM     27  C   UNL     1      34.535   5.653 190.096  0.00  0.00    +0.000 C 
BRANCH  27  28
ATOM     28  C   UNL     1      35.817   5.917 190.659  0.00  0.00    +0.000 A 
ATOM     29  C   UNL     1      36.208   5.269 191.828  0.00  0.00    +0.000 A 
ATOM     30  C   UNL     1      37.466   5.520 192.382  0.00  0.00    +0.000 A 
ATOM     31  C   UNL     1      38.325   6.421 191.749  0.00  0.00    +0.000 A 
ATOM     32  C   UNL     1      37.935   7.077 190.580  0.00  0.00    +0.000 A 
ATOM     33  C   UNL     1      36.675   6.818 190.037  0.00  0.00    +0.000 A 
BRANCH  30  34
ATOM     34  O   UNL     1      37.955   4.932 193.522  0.00  0.00    +0.000 OA
ATOM     35  C   UNL     1      37.512   3.627 193.763  0.00  0.00    +0.000 C 
ENDBRANCH  30  34
BRANCH  32  36
ATOM     36  O   UNL     1      38.861   7.939 190.047  0.00  0.00    +0.000 OA
ATOM     37  C   UNL     1      38.484   9.289 190.027  0.00  0.00    +0.000 C 
ENDBRANCH  32  36
ENDBRANCH  27  28
ENDBRANCH   8  26
TORSDOF 6
ENDMDL
MODEL 5
REMARK VINA RESULT:      -7.8      9.819     14.382
REMARK  Name = AZD4547.pdbqt.pdb
REMARK  6 active torsions:
REMARK  status: ('A' for Active; 'I' for Inactive)
REMARK    1  A    between atoms: C_3  and  C_23
REMARK    2  A    between atoms: C_8  and  C_11
REMARK    3  A    between atoms: C_12  and  C_13
REMARK    4  A    between atoms: C_15  and  O_19
REMARK    5  A    between atoms: C_17  and  O_21
REMARK    6  A    between atoms: C_26  and  N_29
REMARK                            x       y       z     vdW  Elec       q    Type
REMARK                         _______ _______ _______ _____ _____    ______ ____
ROOT
ATOM      1  O   UNL     1      18.769   0.813 192.335  0.00  0.00    +0.000 OA
ATOM      2  N   UNL     1      20.636   1.164 193.658  0.00  0.00    +0.000 N 
ATOM      3  C   UNL     1      19.956   1.092 192.464  0.00  0.00    +0.000 C 
ATOM      4  H   UNL     1      21.617   1.395 193.714  0.00  0.00    +0.000 HD
ATOM      5  C   UNL     1      20.071   0.936 194.890  0.00  0.00    +0.000 A 
ATOM      6  N   UNL     1      20.838   1.035 195.980  0.00  0.00    +0.000 NA
ATOM      7  N   UNL     1      19.993   0.758 196.991  0.00  0.00    +0.000 N 
ATOM      8  C   UNL     1      18.721   0.489 196.583  0.00  0.00    +0.000 A 
ATOM      9  H   UNL     1      20.352   0.770 197.940  0.00  0.00    +0.000 HD
ATOM     10  C   UNL     1      18.735   0.595 195.215  0.00  0.00    +0.000 A 
ENDROOT
BRANCH   3  11
ATOM     11  C   UNL     1      20.753   1.378 191.245  0.00  0.00    +0.000 A 
ATOM     12  C   UNL     1      20.133   2.037 190.184  0.00  0.00    +0.000 A 
ATOM     13  C   UNL     1      20.849   2.322 189.023  0.00  0.00    +0.000 A 
ATOM     14  C   UNL     1      22.192   1.945 188.889  0.00  0.00    +0.000 A 
ATOM     15  C   UNL     1      22.804   1.300 189.973  0.00  0.00    +0.000 A 
ATOM     16  C   UNL     1      22.092   1.012 191.137  0.00  0.00    +0.000 A 
BRANCH  14  17
ATOM     17  N   UNL     1      22.930   2.275 187.728  0.00  0.00    +0.000 N 
ATOM     18  C   UNL     1      23.854   3.420 187.787  0.00  0.00    +0.000 C 
ATOM     19  C   UNL     1      24.075   4.590 187.003  0.00  0.00    +0.000 C 
ATOM     20  N   UNL     1      23.231   4.765 185.864  0.00  0.00    +0.000 N 
ATOM     21  C   UNL     1      25.101   5.610 187.349  0.00  0.00    +0.000 C 
ATOM     22  C   UNL     1      22.245   3.766 185.605  0.00  0.00    +0.000 C 
ATOM     23  H   UNL     1      23.315   5.580 185.276  0.00  0.00    +0.000 HD
ATOM     24  C   UNL     1      22.191   2.671 186.517  0.00  0.00    +0.000 C 
ATOM     25  C   UNL     1      21.303   3.906 184.464  0.00  0.00    +0.000 C 
ENDBRANCH  14  17
ENDBRANCH   3  11
BRANCH   8  26
ATOM     26  C   UNL     1      17.638   0.171 197.438  0.00  0.00    +0.000 C 
ATOM     27  C   UNL     1      16.467  -0.171 198.365  0.00  0.00    +0.000 C 
BRANCH  27  28
ATOM     28  C   UNL     1      15.380  -0.480 199.232  0.00  0.00    +0.000 A 
ATOM     29  C   UNL     1      14.453  -1.452 198.864  0.00  0.00    +0.000 A 
ATOM     30  C   UNL     1      13.388  -1.763 199.712  0.00  0.00    +0.000 A 
ATOM     31  C   UNL     1      13.267  -1.094 200.933  0.00  0.00    +0.000 A 
ATOM     32  C   UNL     1      14.191  -0.116 201.304  0.00  0.00    +0.000 A 
ATOM     33  C   UNL     1      15.251   0.186 200.447  0.00  0.00    +0.000 A 
BRANCH  30  34
ATOM     34  O   UNL     1      12.425  -2.706 199.453  0.00  0.00    +0.000 OA
ATOM     35  C   UNL     1      12.389  -3.183 198.138  0.00  0.00    +0.000 C 
ENDBRANCH  30  34
BRANCH  32  36
ATOM     36  O   UNL     1      13.972   0.475 202.524  0.00  0.00    +0.000 OA
ATOM     37  C   UNL     1      12.877   1.347 202.583  0.00  0.00    +0.000 C 
ENDBRANCH  32  36
ENDBRANCH  27  28
ENDBRANCH   8  26
TORSDOF 6
ENDMDL
MODEL 6
REMARK VINA RESULT:      -7.6      9.846     13.258
REMARK  Name = AZD4547.pdbqt.pdb
REMARK  6 active torsions:
REMARK  status: ('A' for Active; 'I' for Inactive)
REMARK    1  A    between atoms: C_3  and  C_23
REMARK    2  A    between atoms: C_8  and  C_11
REMARK    3  A    between atoms: C_12  and  C_13
REMARK    4  A    between atoms: C_15  and  O_19
REMARK    5  A    between atoms: C_17  and  O_21
REMARK    6  A    between atoms: C_26  and  N_29
REMARK                            x       y       z     vdW  Elec       q    Type
REMARK                         _______ _______ _______ _____ _____    ______ ____
ROOT
ATOM      1  O   UNL     1      18.637   1.364 192.618  0.00  0.00    +0.000 OA
ATOM      2  N   UNL     1      20.642   1.748 193.712  0.00  0.00    +0.000 N 
ATOM      3  C   UNL     1      19.754   1.868 192.666  0.00  0.00    +0.000 C 
ATOM      4  H   UNL     1      21.553   2.180 193.705  0.00  0.00    +0.000 HD
ATOM      5  C   UNL     1      20.394   1.043 194.865  0.00  0.00    +0.000 A 
ATOM      6  N   UNL     1      21.339   0.999 195.810  0.00  0.00    +0.000 NA
ATOM      7  N   UNL     1      20.786   0.245 196.778  0.00  0.00    +0.000 N 
ATOM      8  C   UNL     1      19.528  -0.188 196.485  0.00  0.00    +0.000 A 
ATOM      9  H   UNL     1      21.324   0.065 197.619  0.00  0.00    +0.000 HD
ATOM     10  C   UNL     1      19.239   0.313 195.240  0.00  0.00    +0.000 A 
ENDROOT
BRANCH   3  11
ATOM     11  C   UNL     1      20.216   2.679 191.512  0.00  0.00    +0.000 A 
ATOM     12  C   UNL     1      19.294   3.013 190.521  0.00  0.00    +0.000 A 
ATOM     13  C   UNL     1      19.692   3.773 189.424  0.00  0.00    +0.000 A 
ATOM     14  C   UNL     1      21.017   4.204 189.282  0.00  0.00    +0.000 A 
ATOM     15  C   UNL     1      21.926   3.875 190.297  0.00  0.00    +0.000 A 
ATOM     16  C   UNL     1      21.534   3.114 191.398  0.00  0.00    +0.000 A 
BRANCH  14  17
ATOM     17  N   UNL     1      21.409   5.013 188.189  0.00  0.00    +0.000 N 
ATOM     18  C   UNL     1      21.164   4.514 186.824  0.00  0.00    +0.000 C 
ATOM     19  C   UNL     1      21.949   4.347 185.646  0.00  0.00    +0.000 C 
ATOM     20  N   UNL     1      23.321   4.735 185.733  0.00  0.00    +0.000 N 
ATOM     21  C   UNL     1      21.403   3.770 184.390  0.00  0.00    +0.000 C 
ATOM     22  C   UNL     1      23.791   5.251 186.978  0.00  0.00    +0.000 C 
ATOM     23  H   UNL     1      23.942   4.624 184.947  0.00  0.00    +0.000 HD
ATOM     24  C   UNL     1      22.838   5.336 188.035  0.00  0.00    +0.000 C 
ATOM     25  C   UNL     1      25.217   5.632 187.152  0.00  0.00    +0.000 C 
ENDBRANCH  14  17
ENDBRANCH   3  11
BRANCH   8  26
ATOM     26  C   UNL     1      18.721  -0.991 197.327  0.00  0.00    +0.000 C 
ATOM     27  C   UNL     1      17.846  -1.856 198.240  0.00  0.00    +0.000 C 
BRANCH  27  28
ATOM     28  C   UNL     1      17.028  -2.653 199.091  0.00  0.00    +0.000 A 
ATOM     29  C   UNL     1      16.597  -2.145 200.314  0.00  0.00    +0.000 A 
ATOM     30  C   UNL     1      15.791  -2.920 201.151  0.00  0.00    +0.000 A 
ATOM     31  C   UNL     1      15.419  -4.204 200.746  0.00  0.00    +0.000 A 
ATOM     32  C   UNL     1      15.854  -4.720 199.524  0.00  0.00    +0.000 A 
ATOM     33  C   UNL     1      16.659  -3.935 198.696  0.00  0.00    +0.000 A 
BRANCH  30  34
ATOM     34  O   UNL     1      15.304  -2.517 202.370  0.00  0.00    +0.000 OA
ATOM     35  C   UNL     1      14.106  -3.121 202.767  0.00  0.00    +0.000 C 
ENDBRANCH  30  34
BRANCH  32  36
ATOM     36  O   UNL     1      15.427  -5.992 199.231  0.00  0.00    +0.000 OA
ATOM     37  C   UNL     1      15.261  -6.271 197.868  0.00  0.00    +0.000 C 
ENDBRANCH  32  36
ENDBRANCH  27  28
ENDBRANCH   8  26
TORSDOF 6
ENDMDL
MODEL 7
REMARK VINA RESULT:      -7.4     21.532     23.564
REMARK  Name = AZD4547.pdbqt.pdb
REMARK  6 active torsions:
REMARK  status: ('A' for Active; 'I' for Inactive)
REMARK    1  A    between atoms: C_3  and  C_23
REMARK    2  A    between atoms: C_8  and  C_11
REMARK    3  A    between atoms: C_12  and  C_13
REMARK    4  A    between atoms: C_15  and  O_19
REMARK    5  A    between atoms: C_17  and  O_21
REMARK    6  A    between atoms: C_26  and  N_29
REMARK                            x       y       z     vdW  Elec       q    Type
REMARK                         _______ _______ _______ _____ _____    ______ ____
ROOT
ATOM      1  O   UNL     1      10.890  -9.714 179.310  0.00  0.00    +0.000 OA
ATOM      2  N   UNL     1      10.968 -10.174 181.578  0.00  0.00    +0.000 N 
ATOM      3  C   UNL     1      10.681  -9.399 180.477  0.00  0.00    +0.000 C 
ATOM      4  H   UNL     1      10.781  -9.871 182.522  0.00  0.00    +0.000 HD
ATOM      5  C   UNL     1      11.531 -11.427 181.522  0.00  0.00    +0.000 A 
ATOM      6  N   UNL     1      11.764 -12.081 182.664  0.00  0.00    +0.000 NA
ATOM      7  N   UNL     1      12.304 -13.245 182.260  0.00  0.00    +0.000 N 
ATOM      8  C   UNL     1      12.421 -13.355 180.907  0.00  0.00    +0.000 A 
ATOM      9  H   UNL     1      12.572 -13.926 182.963  0.00  0.00    +0.000 HD
ATOM     10  C   UNL     1      11.926 -12.183 180.391  0.00  0.00    +0.000 A 
ENDROOT
BRANCH   3  11
ATOM     11  C   UNL     1      10.071  -8.075 180.756  0.00  0.00    +0.000 A 
ATOM     12  C   UNL     1      10.880  -7.066 181.276  0.00  0.00    +0.000 A 
ATOM     13  C   UNL     1      10.341  -5.810 181.550  0.00  0.00    +0.000 A 
ATOM     14  C   UNL     1       8.985  -5.539 181.328  0.00  0.00    +0.000 A 
ATOM     15  C   UNL     1       8.191  -6.560 180.789  0.00  0.00    +0.000 A 
ATOM     16  C   UNL     1       8.724  -7.819 180.511  0.00  0.00    +0.000 A 
BRANCH  14  17
ATOM     17  N   UNL     1       8.450  -4.251 181.566  0.00  0.00    +0.000 N 
ATOM     18  C   UNL     1       9.149  -3.085 180.996  0.00  0.00    +0.000 C 
ATOM     19  C   UNL     1       9.634  -1.844 181.502  0.00  0.00    +0.000 C 
ATOM     20  N   UNL     1       9.431  -1.597 182.894  0.00  0.00    +0.000 N 
ATOM     21  C   UNL     1      10.349  -0.853 180.653  0.00  0.00    +0.000 C 
ATOM     22  C   UNL     1       8.768  -2.603 183.659  0.00  0.00    +0.000 C 
ATOM     23  H   UNL     1       9.768  -0.751 183.326  0.00  0.00    +0.000 HD
ATOM     24  C   UNL     1       8.361  -3.775 182.957  0.00  0.00    +0.000 C 
ATOM     25  C   UNL     1       8.563  -2.432 185.122  0.00  0.00    +0.000 C 
ENDBRANCH  14  17
ENDBRANCH   3  11
BRANCH   8  26
ATOM     26  C   UNL     1      12.952 -14.472 180.219  0.00  0.00    +0.000 C 
ATOM     27  C   UNL     1      13.525 -15.681 179.471  0.00  0.00    +0.000 C 
BRANCH  27  28
ATOM     28  C   UNL     1      14.054 -16.801 178.767  0.00  0.00    +0.000 A 
ATOM     29  C   UNL     1      13.534 -17.148 177.524  0.00  0.00    +0.000 A 
ATOM     30  C   UNL     1      14.052 -18.242 176.827  0.00  0.00    +0.000 A 
ATOM     31  C   UNL     1      15.098 -18.978 177.388  0.00  0.00    +0.000 A 
ATOM     32  C   UNL     1      15.619 -18.637 178.637  0.00  0.00    +0.000 A 
ATOM     33  C   UNL     1      15.093 -17.541 179.324  0.00  0.00    +0.000 A 
BRANCH  30  34
ATOM     34  O   UNL     1      13.621 -18.667 175.594  0.00  0.00    +0.000 OA
ATOM     35  C   UNL     1      14.471 -19.564 174.937  0.00  0.00    +0.000 C 
ENDBRANCH  30  34
BRANCH  32  36
ATOM     36  O   UNL     1      16.644 -19.431 179.089  0.00  0.00    +0.000 OA
ATOM     37  C   UNL     1      16.272 -20.444 179.983  0.00  0.00    +0.000 C 
ENDBRANCH  32  36
ENDBRANCH  27  28
ENDBRANCH   8  26
TORSDOF 6
ENDMDL
MODEL 8
REMARK VINA RESULT:      -7.4     22.249     26.493
REMARK  Name = AZD4547.pdbqt.pdb
REMARK  6 active torsions:
REMARK  status: ('A' for Active; 'I' for Inactive)
REMARK    1  A    between atoms: C_3  and  C_23
REMARK    2  A    between atoms: C_8  and  C_11
REMARK    3  A    between atoms: C_12  and  C_13
REMARK    4  A    between atoms: C_15  and  O_19
REMARK    5  A    between atoms: C_17  and  O_21
REMARK    6  A    between atoms: C_26  and  N_29
REMARK                            x       y       z     vdW  Elec       q    Type
REMARK                         _______ _______ _______ _____ _____    ______ ____
ROOT
ATOM      1  O   UNL     1      12.907 -14.496 180.340  0.00  0.00    +0.000 OA
ATOM      2  N   UNL     1      13.497 -13.591 178.292  0.00  0.00    +0.000 N 
ATOM      3  C   UNL     1      13.389 -14.604 179.217  0.00  0.00    +0.000 C 
ATOM      4  H   UNL     1      13.905 -13.727 177.379  0.00  0.00    +0.000 HD
ATOM      5  C   UNL     1      13.069 -12.301 178.499  0.00  0.00    +0.000 A 
ATOM      6  N   UNL     1      13.232 -11.404 177.521  0.00  0.00    +0.000 NA
ATOM      7  N   UNL     1      12.719 -10.272 178.038  0.00  0.00    +0.000 N 
ATOM      8  C   UNL     1      12.236 -10.418 179.304  0.00  0.00    +0.000 A 
ATOM      9  H   UNL     1      12.728  -9.431 177.471  0.00  0.00    +0.000 HD
ATOM     10  C   UNL     1      12.449 -11.732 179.638  0.00  0.00    +0.000 A 
ENDROOT
BRANCH   3  11
ATOM     11  C   UNL     1      13.909 -15.928 178.794  0.00  0.00    +0.000 A 
ATOM     12  C   UNL     1      13.287 -16.579 177.729  0.00  0.00    +0.000 A 
ATOM     13  C   UNL     1      13.749 -17.823 177.304  0.00  0.00    +0.000 A 
ATOM     14  C   UNL     1      14.828 -18.452 177.939  0.00  0.00    +0.000 A 
ATOM     15  C   UNL     1      15.452 -17.775 178.996  0.00  0.00    +0.000 A 
ATOM     16  C   UNL     1      14.996 -16.529 179.426  0.00  0.00    +0.000 A 
BRANCH  14  17
ATOM     17  N   UNL     1      15.323 -19.694 177.478  0.00  0.00    +0.000 N 
ATOM     18  C   UNL     1      14.525 -20.445 176.493  0.00  0.00    +0.000 C 
ATOM     19  C   UNL     1      14.031 -21.778 176.389  0.00  0.00    +0.000 C 
ATOM     20  N   UNL     1      14.344 -22.662 177.467  0.00  0.00    +0.000 N 
ATOM     21  C   UNL     1      13.201 -22.242 175.246  0.00  0.00    +0.000 C 
ATOM     22  C   UNL     1      15.117 -22.145 178.549  0.00  0.00    +0.000 C 
ATOM     23  H   UNL     1      14.009 -23.613 177.472  0.00  0.00    +0.000 HD
ATOM     24  C   UNL     1      15.513 -20.778 178.457  0.00  0.00    +0.000 C 
ATOM     25  C   UNL     1      15.442 -22.996 179.724  0.00  0.00    +0.000 C 
ENDBRANCH  14  17
ENDBRANCH   3  11
BRANCH   8  26
ATOM     26  C   UNL     1      11.642  -9.392 180.077  0.00  0.00    +0.000 C 
ATOM     27  C   UNL     1      10.995  -8.282 180.912  0.00  0.00    +0.000 C 
BRANCH  27  28
ATOM     28  C   UNL     1      10.385  -7.252 181.686  0.00  0.00    +0.000 A 
ATOM     29  C   UNL     1      10.504  -5.924 181.288  0.00  0.00    +0.000 A 
ATOM     30  C   UNL     1       9.904  -4.910 182.040  0.00  0.00    +0.000 A 
ATOM     31  C   UNL     1       9.182  -5.245 183.188  0.00  0.00    +0.000 A 
ATOM     32  C   UNL     1       9.065  -6.576 183.593  0.00  0.00    +0.000 A 
ATOM     33  C   UNL     1       9.670  -7.579 182.833  0.00  0.00    +0.000 A 
BRANCH  30  34
ATOM     34  O   UNL     1       9.951  -3.572 181.737  0.00  0.00    +0.000 OA
ATOM     35  C   UNL     1      10.168  -3.269 180.388  0.00  0.00    +0.000 C 
ENDBRANCH  30  34
BRANCH  32  36
ATOM     36  O   UNL     1       8.333  -6.786 184.735  0.00  0.00    +0.000 OA
ATOM     37  C   UNL     1       8.308  -5.716 185.640  0.00  0.00    +0.000 C 
ENDBRANCH  32  36
ENDBRANCH  27  28
ENDBRANCH   8  26
TORSDOF 6
ENDMDL
MODEL 9
REMARK VINA RESULT:      -7.4     26.961     28.585
REMARK  Name = AZD4547.pdbqt.pdb
REMARK  6 active torsions:
REMARK  status: ('A' for Active; 'I' for Inactive)
REMARK    1  A    between atoms: C_3  and  C_23
REMARK    2  A    between atoms: C_8  and  C_11
REMARK    3  A    between atoms: C_12  and  C_13
REMARK    4  A    between atoms: C_15  and  O_19
REMARK    5  A    between atoms: C_17  and  O_21
REMARK    6  A    between atoms: C_26  and  N_29
REMARK                            x       y       z     vdW  Elec       q    Type
REMARK                         _______ _______ _______ _____ _____    ______ ____
ROOT
ATOM      1  O   UNL     1      39.266  -6.033 163.797  0.00  0.00    +0.000 OA
ATOM      2  N   UNL     1      39.280  -6.597 166.043  0.00  0.00    +0.000 N 
ATOM      3  C   UNL     1      38.750  -6.568 164.773  0.00  0.00    +0.000 C 
ATOM      4  H   UNL     1      38.816  -7.048 166.817  0.00  0.00    +0.000 HD
ATOM      5  C   UNL     1      40.479  -6.029 166.398  0.00  0.00    +0.000 A 
ATOM      6  N   UNL     1      40.887  -6.123 167.668  0.00  0.00    +0.000 NA
ATOM      7  N   UNL     1      42.068  -5.477 167.672  0.00  0.00    +0.000 N 
ATOM      8  C   UNL     1      42.425  -4.979 166.455  0.00  0.00    +0.000 A 
ATOM      9  H   UNL     1      42.582  -5.413 168.544  0.00  0.00    +0.000 HD
ATOM     10  C   UNL     1      41.409  -5.320 165.597  0.00  0.00    +0.000 A 
ENDROOT
BRANCH   3  11
ATOM     11  C   UNL     1      37.441  -7.247 164.599  0.00  0.00    +0.000 A 
ATOM     12  C   UNL     1      36.407  -6.933 165.480  0.00  0.00    +0.000 A 
ATOM     13  C   UNL     1      35.165  -7.551 165.348  0.00  0.00    +0.000 A 
ATOM     14  C   UNL     1      34.932  -8.504 164.347  0.00  0.00    +0.000 A 
ATOM     15  C   UNL     1      35.977  -8.793 163.460  0.00  0.00    +0.000 A 
ATOM     16  C   UNL     1      37.223  -8.178 163.586  0.00  0.00    +0.000 A 
BRANCH  14  17
ATOM     17  N   UNL     1      33.657  -9.097 164.187  0.00  0.00    +0.000 N 
ATOM     18  C   UNL     1      32.517  -8.227 163.850  0.00  0.00    +0.000 C 
ATOM     19  C   UNL     1      31.208  -8.018 164.375  0.00  0.00    +0.000 C 
ATOM     20  N   UNL     1      30.839  -8.808 165.507  0.00  0.00    +0.000 N 
ATOM     21  C   UNL     1      30.267  -7.012 163.815  0.00  0.00    +0.000 C 
ATOM     22  C   UNL     1      31.800  -9.732 166.016  0.00  0.00    +0.000 C 
ATOM     23  H   UNL     1      29.938  -8.697 165.945  0.00  0.00    +0.000 HD
ATOM     24  C   UNL     1      33.055  -9.785 165.341  0.00  0.00    +0.000 C 
ATOM     25  C   UNL     1      31.500 -10.554 167.218  0.00  0.00    +0.000 C 
ENDBRANCH  14  17
ENDBRANCH   3  11
BRANCH   8  26
ATOM     26  C   UNL     1      43.614  -4.263 166.181  0.00  0.00    +0.000 C 
ATOM     27  C   UNL     1      44.903  -3.488 165.887  0.00  0.00    +0.000 C 
BRANCH  27  28
ATOM     28  C   UNL     1      46.106  -2.772 165.623  0.00  0.00    +0.000 A 
ATOM     29  C   UNL     1      46.815  -2.194 166.672  0.00  0.00    +0.000 A 
ATOM     30  C   UNL     1      47.997  -1.495 166.419  0.00  0.00    +0.000 A 
ATOM     31  C   UNL     1      48.461  -1.386 165.106  0.00  0.00    +0.000 A 
ATOM     32  C   UNL     1      47.750  -1.958 164.050  0.00  0.00    +0.000 A 
ATOM     33  C   UNL     1      46.570  -2.655 164.316  0.00  0.00    +0.000 A 
BRANCH  30  34
ATOM     34  O   UNL     1      48.778  -0.895 167.376  0.00  0.00    +0.000 OA
ATOM     35  C   UNL     1      48.102  -0.482 168.531  0.00  0.00    +0.000 C 
ENDBRANCH  30  34
BRANCH  32  36
ATOM     36  O   UNL     1      48.300  -1.788 162.803  0.00  0.00    +0.000 OA
ATOM     37  C   UNL     1      48.652  -2.968 162.134  0.00  0.00    +0.000 C 
ENDBRANCH  32  36
ENDBRANCH  27  28
ENDBRANCH   8  26
TORSDOF 6
ENDMDL
