MODEL 1
REMARK VINA RESULT:      -8.4      0.000      0.000
REMARK  Name = Belinostat.pdbqt.pdb
REMARK  6 active torsions:
REMARK  status: ('A' for Active; 'I' for Inactive)
REMARK    1  A    between atoms: C_1  and  S_7
REMARK    2  A    between atoms: C_3  and  C_18
REMARK    3  A    between atoms: S_7  and  N_10
REMARK    4  A    between atoms: N_10  and  C_12
REMARK    5  A    between atoms: C_19  and  C_20
REMARK    6  A    between atoms: N_22  and  O_24
REMARK                            x       y       z     vdW  Elec       q    Type
REMARK                         _______ _______ _______ _____ _____    ______ ____
ROOT
ATOM      1  C   UNL     1      19.974   2.083 189.161  0.00  0.00    +0.000 A 
ATOM      2  C   UNL     1      20.775   2.670 188.187  0.00  0.00    +0.000 A 
ATOM      3  C   UNL     1      20.183   3.133 187.016  0.00  0.00    +0.000 A 
ATOM      4  C   UNL     1      18.596   1.977 189.002  0.00  0.00    +0.000 A 
ATOM      5  C   UNL     1      18.805   3.021 186.834  0.00  0.00    +0.000 A 
ATOM      6  C   UNL     1      18.013   2.444 187.828  0.00  0.00    +0.000 A 
ENDROOT
BRANCH   1   7
ATOM      7  S   UNL     1      20.704   1.531 190.659  0.00  0.00    +0.000 S 
ATOM      8  O   UNL     1      20.734   2.664 191.559  0.00  0.00    +0.000 OA
ATOM      9  O   UNL     1      21.911   0.803 190.334  0.00  0.00    +0.000 OA
BRANCH   7  10
ATOM     10  N   UNL     1      19.567   0.466 191.276  0.00  0.00    +0.000 N 
ATOM     11  H   UNL     1      19.081  -0.087 190.572  0.00  0.00    +0.000 HD
BRANCH  10  12
ATOM     12  C   UNL     1      19.547   0.045 192.635  0.00  0.00    +0.000 A 
ATOM     13  C   UNL     1      18.750   0.655 193.602  0.00  0.00    +0.000 A 
ATOM     14  C   UNL     1      18.706   0.151 194.900  0.00  0.00    +0.000 A 
ATOM     15  C   UNL     1      19.441  -0.984 195.230  0.00  0.00    +0.000 A 
ATOM     16  C   UNL     1      20.211  -1.620 194.259  0.00  0.00    +0.000 A 
ATOM     17  C   UNL     1      20.253  -1.113 192.963  0.00  0.00    +0.000 A 
ENDBRANCH  10  12
ENDBRANCH   7  10
ENDBRANCH   1   7
BRANCH   3  18
ATOM     18  C   UNL     1      20.991   3.725 186.000  0.00  0.00    +0.000 C 
ATOM     19  C   UNL     1      21.670   4.221 185.143  0.00  0.00    +0.000 C 
BRANCH  19  20
ATOM     20  C   UNL     1      22.485   4.816 184.113  0.00  0.00    +0.000 C 
ATOM     21  O   UNL     1      23.486   5.459 184.407  0.00  0.00    +0.000 OA
ATOM     22  N   UNL     1      22.072   4.607 182.828  0.00  0.00    +0.000 N 
ATOM     23  H   UNL     1      21.280   4.030 182.566  0.00  0.00    +0.000 HD
BRANCH  22  24
ATOM     24  O   UNL     1      22.872   5.134 181.790  0.00  0.00    +0.000 OA
ATOM     25  H   UNL     1      23.782   5.016 182.139  0.00  0.00    +0.000 HD
ENDBRANCH  22  24
ENDBRANCH  19  20
ENDBRANCH   3  18
TORSDOF 6
ENDMDL
MODEL 2
REMARK VINA RESULT:      -8.2      3.008      3.866
REMARK  Name = Belinostat.pdbqt.pdb
REMARK  6 active torsions:
REMARK  status: ('A' for Active; 'I' for Inactive)
REMARK    1  A    between atoms: C_1  and  S_7
REMARK    2  A    between atoms: C_3  and  C_18
REMARK    3  A    between atoms: S_7  and  N_10
REMARK    4  A    between atoms: N_10  and  C_12
REMARK    5  A    between atoms: C_19  and  C_20
REMARK    6  A    between atoms: N_22  and  O_24
REMARK                            x       y       z     vdW  Elec       q    Type
REMARK                         _______ _______ _______ _____ _____    ______ ____
ROOT
ATOM      1  C   UNL     1      20.160   2.635 189.168  0.00  0.00    +0.000 A 
ATOM      2  C   UNL     1      20.939   3.176 188.152  0.00  0.00    +0.000 A 
ATOM      3  C   UNL     1      20.370   3.375 186.898  0.00  0.00    +0.000 A 
ATOM      4  C   UNL     1      18.821   2.317 188.966  0.00  0.00    +0.000 A 
ATOM      5  C   UNL     1      19.033   3.048 186.674  0.00  0.00    +0.000 A 
ATOM      6  C   UNL     1      18.259   2.520 187.709  0.00  0.00    +0.000 A 
ENDROOT
BRANCH   1   7
ATOM      7  S   UNL     1      20.856   2.417 190.765  0.00  0.00    +0.000 S 
ATOM      8  O   UNL     1      19.763   2.129 191.669  0.00  0.00    +0.000 OA
ATOM      9  O   UNL     1      21.764   3.514 191.016  0.00  0.00    +0.000 OA
BRANCH   7  10
ATOM     10  N   UNL     1      21.733   0.998 190.616  0.00  0.00    +0.000 N 
ATOM     11  H   UNL     1      21.220   0.155 190.871  0.00  0.00    +0.000 HD
BRANCH  10  12
ATOM     12  C   UNL     1      22.916   0.889 189.831  0.00  0.00    +0.000 A 
ATOM     13  C   UNL     1      22.904   0.463 188.505  0.00  0.00    +0.000 A 
ATOM     14  C   UNL     1      24.079   0.453 187.757  0.00  0.00    +0.000 A 
ATOM     15  C   UNL     1      25.269   0.896 188.327  0.00  0.00    +0.000 A 
ATOM     16  C   UNL     1      25.281   1.358 189.640  0.00  0.00    +0.000 A 
ATOM     17  C   UNL     1      24.104   1.365 190.385  0.00  0.00    +0.000 A 
ENDBRANCH  10  12
ENDBRANCH   7  10
ENDBRANCH   1   7
BRANCH   3  18
ATOM     18  C   UNL     1      21.159   3.917 185.839  0.00  0.00    +0.000 C 
ATOM     19  C   UNL     1      21.820   4.372 184.946  0.00  0.00    +0.000 C 
BRANCH  19  20
ATOM     20  C   UNL     1      22.613   4.917 183.873  0.00  0.00    +0.000 C 
ATOM     21  O   UNL     1      23.652   5.522 184.114  0.00  0.00    +0.000 OA
ATOM     22  N   UNL     1      22.137   4.707 182.610  0.00  0.00    +0.000 N 
ATOM     23  H   UNL     1      21.311   4.161 182.391  0.00  0.00    +0.000 HD
BRANCH  22  24
ATOM     24  O   UNL     1      22.912   5.185 181.531  0.00  0.00    +0.000 OA
ATOM     25  H   UNL     1      22.442   6.009 181.276  0.00  0.00    +0.000 HD
ENDBRANCH  22  24
ENDBRANCH  19  20
ENDBRANCH   3  18
TORSDOF 6
ENDMDL
MODEL 3
REMARK VINA RESULT:      -7.9      3.249      4.619
REMARK  Name = Belinostat.pdbqt.pdb
REMARK  6 active torsions:
REMARK  status: ('A' for Active; 'I' for Inactive)
REMARK    1  A    between atoms: C_1  and  S_7
REMARK    2  A    between atoms: C_3  and  C_18
REMARK    3  A    between atoms: S_7  and  N_10
REMARK    4  A    between atoms: N_10  and  C_12
REMARK    5  A    between atoms: C_19  and  C_20
REMARK    6  A    between atoms: N_22  and  O_24
REMARK                            x       y       z     vdW  Elec       q    Type
REMARK                         _______ _______ _______ _____ _____    ______ ____
ROOT
ATOM      1  C   UNL     1      20.421   2.474 188.968  0.00  0.00    +0.000 A 
ATOM      2  C   UNL     1      21.175   3.035 187.944  0.00  0.00    +0.000 A 
ATOM      3  C   UNL     1      20.553   3.344 186.739  0.00  0.00    +0.000 A 
ATOM      4  C   UNL     1      19.056   2.244 188.824  0.00  0.00    +0.000 A 
ATOM      5  C   UNL     1      19.189   3.106 186.572  0.00  0.00    +0.000 A 
ATOM      6  C   UNL     1      18.441   2.558 187.615  0.00  0.00    +0.000 A 
ENDROOT
BRANCH   1   7
ATOM      7  S   UNL     1      21.187   2.117 190.507  0.00  0.00    +0.000 S 
ATOM      8  O   UNL     1      22.050   0.975 190.297  0.00  0.00    +0.000 OA
ATOM      9  O   UNL     1      20.163   2.102 191.529  0.00  0.00    +0.000 OA
BRANCH   7  10
ATOM     10  N   UNL     1      22.193   3.432 190.755  0.00  0.00    +0.000 N 
ATOM     11  H   UNL     1      22.253   3.742 191.724  0.00  0.00    +0.000 HD
BRANCH  10  12
ATOM     12  C   UNL     1      23.193   3.837 189.826  0.00  0.00    +0.000 A 
ATOM     13  C   UNL     1      23.089   5.000 189.064  0.00  0.00    +0.000 A 
ATOM     14  C   UNL     1      24.133   5.393 188.231  0.00  0.00    +0.000 A 
ATOM     15  C   UNL     1      25.300   4.637 188.176  0.00  0.00    +0.000 A 
ATOM     16  C   UNL     1      25.425   3.494 188.961  0.00  0.00    +0.000 A 
ATOM     17  C   UNL     1      24.379   3.104 189.793  0.00  0.00    +0.000 A 
ENDBRANCH  10  12
ENDBRANCH   7  10
ENDBRANCH   1   7
BRANCH   3  18
ATOM     18  C   UNL     1      21.314   3.908 185.672  0.00  0.00    +0.000 C 
ATOM     19  C   UNL     1      21.956   4.385 184.775  0.00  0.00    +0.000 C 
BRANCH  19  20
ATOM     20  C   UNL     1      22.726   4.957 183.700  0.00  0.00    +0.000 C 
ATOM     21  O   UNL     1      23.785   5.528 183.929  0.00  0.00    +0.000 OA
ATOM     22  N   UNL     1      22.202   4.810 182.446  0.00  0.00    +0.000 N 
ATOM     23  H   UNL     1      21.358   4.292 182.233  0.00  0.00    +0.000 HD
BRANCH  22  24
ATOM     24  O   UNL     1      22.953   5.317 181.361  0.00  0.00    +0.000 OA
ATOM     25  H   UNL     1      22.259   5.691 180.775  0.00  0.00    +0.000 HD
ENDBRANCH  22  24
ENDBRANCH  19  20
ENDBRANCH   3  18
TORSDOF 6
ENDMDL
MODEL 4
REMARK VINA RESULT:      -7.8      1.691      2.147
REMARK  Name = Belinostat.pdbqt.pdb
REMARK  6 active torsions:
REMARK  status: ('A' for Active; 'I' for Inactive)
REMARK    1  A    between atoms: C_1  and  S_7
REMARK    2  A    between atoms: C_3  and  C_18
REMARK    3  A    between atoms: S_7  and  N_10
REMARK    4  A    between atoms: N_10  and  C_12
REMARK    5  A    between atoms: C_19  and  C_20
REMARK    6  A    between atoms: N_22  and  O_24
REMARK                            x       y       z     vdW  Elec       q    Type
REMARK                         _______ _______ _______ _____ _____    ______ ____
ROOT
ATOM      1  C   UNL     1      19.601   1.104 190.350  0.00  0.00    +0.000 A 
ATOM      2  C   UNL     1      20.274   1.722 189.302  0.00  0.00    +0.000 A 
ATOM      3  C   UNL     1      19.541   2.227 188.233  0.00  0.00    +0.000 A 
ATOM      4  C   UNL     1      18.213   1.007 190.365  0.00  0.00    +0.000 A 
ATOM      5  C   UNL     1      18.150   2.125 188.225  0.00  0.00    +0.000 A 
ATOM      6  C   UNL     1      17.487   1.516 189.292  0.00  0.00    +0.000 A 
ENDROOT
BRANCH   1   7
ATOM      7  S   UNL     1      20.512   0.498 191.723  0.00  0.00    +0.000 S 
ATOM      8  O   UNL     1      21.915   0.676 191.413  0.00  0.00    +0.000 OA
ATOM      9  O   UNL     1      19.984  -0.800 192.080  0.00  0.00    +0.000 OA
BRANCH   7  10
ATOM     10  N   UNL     1      20.154   1.592 192.939  0.00  0.00    +0.000 N 
ATOM     11  H   UNL     1      19.847   2.506 192.609  0.00  0.00    +0.000 HD
BRANCH  10  12
ATOM     12  C   UNL     1      19.888   1.207 194.284  0.00  0.00    +0.000 A 
ATOM     13  C   UNL     1      18.659   0.693 194.692  0.00  0.00    +0.000 A 
ATOM     14  C   UNL     1      18.477   0.255 196.001  0.00  0.00    +0.000 A 
ATOM     15  C   UNL     1      19.536   0.304 196.903  0.00  0.00    +0.000 A 
ATOM     16  C   UNL     1      20.777   0.782 196.492  0.00  0.00    +0.000 A 
ATOM     17  C   UNL     1      20.954   1.221 195.182  0.00  0.00    +0.000 A 
ENDBRANCH  10  12
ENDBRANCH   7  10
ENDBRANCH   1   7
BRANCH   3  18
ATOM     18  C   UNL     1      20.217   2.852 187.143  0.00  0.00    +0.000 C 
ATOM     19  C   UNL     1      20.782   3.379 186.224  0.00  0.00    +0.000 C 
BRANCH  19  20
ATOM     20  C   UNL     1      21.461   4.013 185.121  0.00  0.00    +0.000 C 
ATOM     21  O   UNL     1      21.505   3.470 184.023  0.00  0.00    +0.000 OA
ATOM     22  N   UNL     1      22.024   5.230 185.385  0.00  0.00    +0.000 N 
ATOM     23  H   UNL     1      21.947   5.718 186.269  0.00  0.00    +0.000 HD
BRANCH  22  24
ATOM     24  O   UNL     1      22.655   5.903 184.316  0.00  0.00    +0.000 OA
ATOM     25  H   UNL     1      21.926   6.010 183.667  0.00  0.00    +0.000 HD
ENDBRANCH  22  24
ENDBRANCH  19  20
ENDBRANCH   3  18
TORSDOF 6
ENDMDL
MODEL 5
REMARK VINA RESULT:      -7.8      3.959      7.151
REMARK  Name = Belinostat.pdbqt.pdb
REMARK  6 active torsions:
REMARK  status: ('A' for Active; 'I' for Inactive)
REMARK    1  A    between atoms: C_1  and  S_7
REMARK    2  A    between atoms: C_3  and  C_18
REMARK    3  A    between atoms: S_7  and  N_10
REMARK    4  A    between atoms: N_10  and  C_12
REMARK    5  A    between atoms: C_19  and  C_20
REMARK    6  A    between atoms: N_22  and  O_24
REMARK                            x       y       z     vdW  Elec       q    Type
REMARK                         _______ _______ _______ _____ _____    ______ ____
ROOT
ATOM      1  C   UNL     1      23.302   4.097 186.697  0.00  0.00    +0.000 A 
ATOM      2  C   UNL     1      23.746   3.052 187.499  0.00  0.00    +0.000 A 
ATOM      3  C   UNL     1      24.865   3.245 188.302  0.00  0.00    +0.000 A 
ATOM      4  C   UNL     1      23.933   5.337 186.704  0.00  0.00    +0.000 A 
ATOM      5  C   UNL     1      25.519   4.477 188.310  0.00  0.00    +0.000 A 
ATOM      6  C   UNL     1      25.051   5.523 187.512  0.00  0.00    +0.000 A 
ENDROOT
BRANCH   1   7
ATOM      7  S   UNL     1      21.866   3.877 185.710  0.00  0.00    +0.000 S 
ATOM      8  O   UNL     1      21.680   2.451 185.545  0.00  0.00    +0.000 OA
ATOM      9  O   UNL     1      21.966   4.756 184.565  0.00  0.00    +0.000 OA
BRANCH   7  10
ATOM     10  N   UNL     1      20.626   4.405 186.704  0.00  0.00    +0.000 N 
ATOM     11  H   UNL     1      20.185   5.273 186.404  0.00  0.00    +0.000 HD
BRANCH  10  12
ATOM     12  C   UNL     1      19.953   3.559 187.630  0.00  0.00    +0.000 A 
ATOM     13  C   UNL     1      20.348   3.430 188.960  0.00  0.00    +0.000 A 
ATOM     14  C   UNL     1      19.604   2.653 189.845  0.00  0.00    +0.000 A 
ATOM     15  C   UNL     1      18.444   2.021 189.407  0.00  0.00    +0.000 A 
ATOM     16  C   UNL     1      18.023   2.175 188.089  0.00  0.00    +0.000 A 
ATOM     17  C   UNL     1      18.770   2.952 187.208  0.00  0.00    +0.000 A 
ENDBRANCH  10  12
ENDBRANCH   7  10
ENDBRANCH   1   7
BRANCH   3  18
ATOM     18  C   UNL     1      25.343   2.180 189.121  0.00  0.00    +0.000 C 
ATOM     19  C   UNL     1      25.743   1.282 189.811  0.00  0.00    +0.000 C 
BRANCH  19  20
ATOM     20  C   UNL     1      26.222   0.204 190.640  0.00  0.00    +0.000 C 
ATOM     21  O   UNL     1      27.420   0.080 190.868  0.00  0.00    +0.000 OA
ATOM     22  N   UNL     1      25.267  -0.635 191.141  0.00  0.00    +0.000 N 
ATOM     23  H   UNL     1      24.270  -0.514 191.010  0.00  0.00    +0.000 HD
BRANCH  22  24
ATOM     24  O   UNL     1      25.694  -1.675 191.997  0.00  0.00    +0.000 OA
ATOM     25  H   UNL     1      26.476  -2.036 191.524  0.00  0.00    +0.000 HD
ENDBRANCH  22  24
ENDBRANCH  19  20
ENDBRANCH   3  18
TORSDOF 6
ENDMDL
MODEL 6
REMARK VINA RESULT:      -7.7      4.233      5.646
REMARK  Name = Belinostat.pdbqt.pdb
REMARK  6 active torsions:
REMARK  status: ('A' for Active; 'I' for Inactive)
REMARK    1  A    between atoms: C_1  and  S_7
REMARK    2  A    between atoms: C_3  and  C_18
REMARK    3  A    between atoms: S_7  and  N_10
REMARK    4  A    between atoms: N_10  and  C_12
REMARK    5  A    between atoms: C_19  and  C_20
REMARK    6  A    between atoms: N_22  and  O_24
REMARK                            x       y       z     vdW  Elec       q    Type
REMARK                         _______ _______ _______ _____ _____    ______ ____
ROOT
ATOM      1  C   UNL     1      21.697   4.226 187.820  0.00  0.00    +0.000 A 
ATOM      2  C   UNL     1      22.737   3.338 188.068  0.00  0.00    +0.000 A 
ATOM      3  C   UNL     1      23.992   3.843 188.395  0.00  0.00    +0.000 A 
ATOM      4  C   UNL     1      21.876   5.602 187.921  0.00  0.00    +0.000 A 
ATOM      5  C   UNL     1      24.192   5.220 188.486  0.00  0.00    +0.000 A 
ATOM      6  C   UNL     1      23.134   6.098 188.251  0.00  0.00    +0.000 A 
ENDROOT
BRANCH   1   7
ATOM      7  S   UNL     1      20.099   3.600 187.446  0.00  0.00    +0.000 S 
ATOM      8  O   UNL     1      20.076   3.318 186.027  0.00  0.00    +0.000 OA
ATOM      9  O   UNL     1      19.118   4.474 188.052  0.00  0.00    +0.000 OA
BRANCH   7  10
ATOM     10  N   UNL     1      20.071   2.118 188.225  0.00  0.00    +0.000 N 
ATOM     11  H   UNL     1      20.756   1.447 187.880  0.00  0.00    +0.000 HD
BRANCH  10  12
ATOM     12  C   UNL     1      19.471   1.915 189.499  0.00  0.00    +0.000 A 
ATOM     13  C   UNL     1      20.103   2.256 190.693  0.00  0.00    +0.000 A 
ATOM     14  C   UNL     1      19.438   2.114 191.909  0.00  0.00    +0.000 A 
ATOM     15  C   UNL     1      18.125   1.653 191.933  0.00  0.00    +0.000 A 
ATOM     16  C   UNL     1      17.475   1.345 190.741  0.00  0.00    +0.000 A 
ATOM     17  C   UNL     1      18.144   1.488 189.528  0.00  0.00    +0.000 A 
ENDBRANCH  10  12
ENDBRANCH   7  10
ENDBRANCH   1   7
BRANCH   3  18
ATOM     18  C   UNL     1      25.075   2.947 188.639  0.00  0.00    +0.000 C 
ATOM     19  C   UNL     1      25.987   2.192 188.841  0.00  0.00    +0.000 C 
BRANCH  19  20
ATOM     20  C   UNL     1      27.083   1.287 189.083  0.00  0.00    +0.000 C 
ATOM     21  O   UNL     1      26.943   0.328 189.833  0.00  0.00    +0.000 OA
ATOM     22  N   UNL     1      28.247   1.567 188.424  0.00  0.00    +0.000 N 
ATOM     23  H   UNL     1      28.362   2.321 187.757  0.00  0.00    +0.000 HD
BRANCH  22  24
ATOM     24  O   UNL     1      29.327   0.675 188.599  0.00  0.00    +0.000 OA
ATOM     25  H   UNL     1      29.992   1.012 187.959  0.00  0.00    +0.000 HD
ENDBRANCH  22  24
ENDBRANCH  19  20
ENDBRANCH   3  18
TORSDOF 6
ENDMDL
MODEL 7
REMARK VINA RESULT:      -7.5      4.797      7.964
REMARK  Name = Belinostat.pdbqt.pdb
REMARK  6 active torsions:
REMARK  status: ('A' for Active; 'I' for Inactive)
REMARK    1  A    between atoms: C_1  and  S_7
REMARK    2  A    between atoms: C_3  and  C_18
REMARK    3  A    between atoms: S_7  and  N_10
REMARK    4  A    between atoms: N_10  and  C_12
REMARK    5  A    between atoms: C_19  and  C_20
REMARK    6  A    between atoms: N_22  and  O_24
REMARK                            x       y       z     vdW  Elec       q    Type
REMARK                         _______ _______ _______ _____ _____    ______ ____
ROOT
ATOM      1  C   UNL     1      23.918   3.531 187.608  0.00  0.00    +0.000 A 
ATOM      2  C   UNL     1      24.631   3.734 188.784  0.00  0.00    +0.000 A 
ATOM      3  C   UNL     1      24.872   2.651 189.623  0.00  0.00    +0.000 A 
ATOM      4  C   UNL     1      23.469   2.267 187.240  0.00  0.00    +0.000 A 
ATOM      5  C   UNL     1      24.414   1.380 189.277  0.00  0.00    +0.000 A 
ATOM      6  C   UNL     1      23.715   1.189 188.084  0.00  0.00    +0.000 A 
ENDROOT
BRANCH   1   7
ATOM      7  S   UNL     1      23.644   4.883 186.522  0.00  0.00    +0.000 S 
ATOM      8  O   UNL     1      23.474   4.333 185.194  0.00  0.00    +0.000 OA
ATOM      9  O   UNL     1      24.648   5.890 186.791  0.00  0.00    +0.000 OA
BRANCH   7  10
ATOM     10  N   UNL     1      22.144   5.460 186.991  0.00  0.00    +0.000 N 
ATOM     11  H   UNL     1      21.990   6.448 186.792  0.00  0.00    +0.000 HD
BRANCH  10  12
ATOM     12  C   UNL     1      21.029   4.616 187.254  0.00  0.00    +0.000 A 
ATOM     13  C   UNL     1      20.374   4.591 188.484  0.00  0.00    +0.000 A 
ATOM     14  C   UNL     1      19.237   3.807 188.663  0.00  0.00    +0.000 A 
ATOM     15  C   UNL     1      18.733   3.063 187.600  0.00  0.00    +0.000 A 
ATOM     16  C   UNL     1      19.360   3.112 186.358  0.00  0.00    +0.000 A 
ATOM     17  C   UNL     1      20.497   3.896 186.184  0.00  0.00    +0.000 A 
ENDBRANCH  10  12
ENDBRANCH   7  10
ENDBRANCH   1   7
BRANCH   3  18
ATOM     18  C   UNL     1      25.589   2.843 190.841  0.00  0.00    +0.000 C 
ATOM     19  C   UNL     1      26.195   3.006 191.865  0.00  0.00    +0.000 C 
BRANCH  19  20
ATOM     20  C   UNL     1      26.923   3.203 193.094  0.00  0.00    +0.000 C 
ATOM     21  O   UNL     1      28.018   2.679 193.259  0.00  0.00    +0.000 OA
ATOM     22  N   UNL     1      26.319   4.000 194.026  0.00  0.00    +0.000 N 
ATOM     23  H   UNL     1      25.442   4.487 193.883  0.00  0.00    +0.000 HD
BRANCH  22  24
ATOM     24  O   UNL     1      27.024   4.255 195.223  0.00  0.00    +0.000 OA
ATOM     25  H   UNL     1      27.807   4.758 194.909  0.00  0.00    +0.000 HD
ENDBRANCH  22  24
ENDBRANCH  19  20
ENDBRANCH   3  18
TORSDOF 6
ENDMDL
MODEL 8
REMARK VINA RESULT:      -7.5      5.894      8.101
REMARK  Name = Belinostat.pdbqt.pdb
REMARK  6 active torsions:
REMARK  status: ('A' for Active; 'I' for Inactive)
REMARK    1  A    between atoms: C_1  and  S_7
REMARK    2  A    between atoms: C_3  and  C_18
REMARK    3  A    between atoms: S_7  and  N_10
REMARK    4  A    between atoms: N_10  and  C_12
REMARK    5  A    between atoms: C_19  and  C_20
REMARK    6  A    between atoms: N_22  and  O_24
REMARK                            x       y       z     vdW  Elec       q    Type
REMARK                         _______ _______ _______ _____ _____    ______ ____
ROOT
ATOM      1  C   UNL     1      24.644   4.378 188.836  0.00  0.00    +0.000 A 
ATOM      2  C   UNL     1      25.933   3.901 188.623  0.00  0.00    +0.000 A 
ATOM      3  C   UNL     1      26.580   3.222 189.650  0.00  0.00    +0.000 A 
ATOM      4  C   UNL     1      23.980   4.164 190.039  0.00  0.00    +0.000 A 
ATOM      5  C   UNL     1      25.934   3.012 190.868  0.00  0.00    +0.000 A 
ATOM      6  C   UNL     1      24.635   3.482 191.061  0.00  0.00    +0.000 A 
ENDROOT
BRANCH   1   7
ATOM      7  S   UNL     1      23.803   5.201 187.533  0.00  0.00    +0.000 S 
ATOM      8  O   UNL     1      24.808   5.867 186.733  0.00  0.00    +0.000 OA
ATOM      9  O   UNL     1      22.694   5.935 188.103  0.00  0.00    +0.000 OA
BRANCH   7  10
ATOM     10  N   UNL     1      23.209   3.944 186.599  0.00  0.00    +0.000 N 
ATOM     11  H   UNL     1      23.923   3.416 186.098  0.00  0.00    +0.000 HD
BRANCH  10  12
ATOM     12  C   UNL     1      21.917   3.376 186.782  0.00  0.00    +0.000 A 
ATOM     13  C   UNL     1      21.586   2.595 187.887  0.00  0.00    +0.000 A 
ATOM     14  C   UNL     1      20.283   2.132 188.059  0.00  0.00    +0.000 A 
ATOM     15  C   UNL     1      19.297   2.474 187.138  0.00  0.00    +0.000 A 
ATOM     16  C   UNL     1      19.613   3.285 186.051  0.00  0.00    +0.000 A 
ATOM     17  C   UNL     1      20.916   3.745 185.882  0.00  0.00    +0.000 A 
ENDBRANCH  10  12
ENDBRANCH   7  10
ENDBRANCH   1   7
BRANCH   3  18
ATOM     18  C   UNL     1      27.908   2.739 189.454  0.00  0.00    +0.000 C 
ATOM     19  C   UNL     1      29.026   2.332 189.286  0.00  0.00    +0.000 C 
BRANCH  19  20
ATOM     20  C   UNL     1      30.367   1.845 189.084  0.00  0.00    +0.000 C 
ATOM     21  O   UNL     1      30.982   2.123 188.060  0.00  0.00    +0.000 OA
ATOM     22  N   UNL     1      30.885   1.083 190.093  0.00  0.00    +0.000 N 
ATOM     23  H   UNL     1      30.412   0.892 190.969  0.00  0.00    +0.000 HD
BRANCH  22  24
ATOM     24  O   UNL     1      32.214   0.628 189.952  0.00  0.00    +0.000 OA
ATOM     25  H   UNL     1      32.241   0.327 189.017  0.00  0.00    +0.000 HD
ENDBRANCH  22  24
ENDBRANCH  19  20
ENDBRANCH   3  18
TORSDOF 6
ENDMDL
MODEL 9
REMARK VINA RESULT:      -7.3      3.517      9.656
REMARK  Name = Belinostat.pdbqt.pdb
REMARK  6 active torsions:
REMARK  status: ('A' for Active; 'I' for Inactive)
REMARK    1  A    between atoms: C_1  and  S_7
REMARK    2  A    between atoms: C_3  and  C_18
REMARK    3  A    between atoms: S_7  and  N_10
REMARK    4  A    between atoms: N_10  and  C_12
REMARK    5  A    between atoms: C_19  and  C_20
REMARK    6  A    between atoms: N_22  and  O_24
REMARK                            x       y       z     vdW  Elec       q    Type
REMARK                         _______ _______ _______ _____ _____    ______ ____
ROOT
ATOM      1  C   UNL     1      20.297   1.078 192.630  0.00  0.00    +0.000 A 
ATOM      2  C   UNL     1      19.695   1.258 193.870  0.00  0.00    +0.000 A 
ATOM      3  C   UNL     1      19.195   0.149 194.545  0.00  0.00    +0.000 A 
ATOM      4  C   UNL     1      20.436  -0.186 192.066  0.00  0.00    +0.000 A 
ATOM      5  C   UNL     1      19.313  -1.124 193.987  0.00  0.00    +0.000 A 
ATOM      6  C   UNL     1      19.935  -1.291 192.748  0.00  0.00    +0.000 A 
ENDROOT
BRANCH   1   7
ATOM      7  S   UNL     1      20.967   2.465 191.788  0.00  0.00    +0.000 S 
ATOM      8  O   UNL     1      21.887   1.955 190.795  0.00  0.00    +0.000 OA
ATOM      9  O   UNL     1      21.393   3.432 192.776  0.00  0.00    +0.000 OA
BRANCH   7  10
ATOM     10  N   UNL     1      19.655   3.080 190.946  0.00  0.00    +0.000 N 
ATOM     11  H   UNL     1      18.954   3.533 191.530  0.00  0.00    +0.000 HD
BRANCH  10  12
ATOM     12  C   UNL     1      19.675   3.336 189.546  0.00  0.00    +0.000 A 
ATOM     13  C   UNL     1      20.337   4.428 188.989  0.00  0.00    +0.000 A 
ATOM     14  C   UNL     1      20.395   4.587 187.606  0.00  0.00    +0.000 A 
ATOM     15  C   UNL     1      19.813   3.637 186.773  0.00  0.00    +0.000 A 
ATOM     16  C   UNL     1      19.181   2.525 187.322  0.00  0.00    +0.000 A 
ATOM     17  C   UNL     1      19.125   2.369 188.705  0.00  0.00    +0.000 A 
ENDBRANCH  10  12
ENDBRANCH   7  10
ENDBRANCH   1   7
BRANCH   3  18
ATOM     18  C   UNL     1      18.561   0.315 195.812  0.00  0.00    +0.000 C 
ATOM     19  C   UNL     1      18.027   0.453 196.879  0.00  0.00    +0.000 C 
BRANCH  19  20
ATOM     20  C   UNL     1      17.385   0.617 198.159  0.00  0.00    +0.000 C 
ATOM     21  O   UNL     1      18.036   0.547 199.195  0.00  0.00    +0.000 OA
ATOM     22  N   UNL     1      16.040   0.859 198.127  0.00  0.00    +0.000 N 
ATOM     23  H   UNL     1      15.498   0.977 197.279  0.00  0.00    +0.000 HD
BRANCH  22  24
ATOM     24  O   UNL     1      15.385   1.073 199.360  0.00  0.00    +0.000 OA
ATOM     25  H   UNL     1      15.539   2.029 199.523  0.00  0.00    +0.000 HD
ENDBRANCH  22  24
ENDBRANCH  19  20
ENDBRANCH   3  18
TORSDOF 6
ENDMDL
