MODEL 1
REMARK VINA RESULT:     -10.6      0.000      0.000
REMARK  Name = Benzo[a]pyrene.pdbqt.pdb
REMARK  0 active torsions:
REMARK  status: ('A' for Active; 'I' for Inactive)
REMARK                            x       y       z     vdW  Elec       q    Type
REMARK                         _______ _______ _______ _____ _____    ______ ____
ROOT
ATOM      1  C   UNL     1      21.030   3.501 188.134  0.00  0.00    +0.000 A 
ATOM      2  C   UNL     1      22.240   4.128 187.761  0.00  0.00    +0.000 A 
ATOM      3  C   UNL     1      20.786   3.167 189.486  0.00  0.00    +0.000 A 
ATOM      4  C   UNL     1      20.071   3.213 187.141  0.00  0.00    +0.000 A 
ATOM      5  C   UNL     1      19.564   2.539 189.832  0.00  0.00    +0.000 A 
ATOM      6  C   UNL     1      23.212   4.425 188.737  0.00  0.00    +0.000 A 
ATOM      7  C   UNL     1      22.479   4.459 186.411  0.00  0.00    +0.000 A 
ATOM      8  C   UNL     1      18.616   2.259 188.822  0.00  0.00    +0.000 A 
ATOM      9  C   UNL     1      18.876   2.595 187.496  0.00  0.00    +0.000 A 
ATOM     10  C   UNL     1      21.777   3.478 190.433  0.00  0.00    +0.000 A 
ATOM     11  C   UNL     1      20.321   3.546 185.811  0.00  0.00    +0.000 A 
ATOM     12  C   UNL     1      22.972   4.097 190.069  0.00  0.00    +0.000 A 
ATOM     13  C   UNL     1      21.516   4.164 185.446  0.00  0.00    +0.000 A 
ATOM     14  C   UNL     1      24.403   5.044 188.359  0.00  0.00    +0.000 A 
ATOM     15  C   UNL     1      23.676   5.078 186.053  0.00  0.00    +0.000 A 
ATOM     16  C   UNL     1      19.246   2.176 191.151  0.00  0.00    +0.000 A 
ATOM     17  C   UNL     1      17.407   1.641 189.140  0.00  0.00    +0.000 A 
ATOM     18  C   UNL     1      24.634   5.369 187.024  0.00  0.00    +0.000 A 
ATOM     19  C   UNL     1      18.036   1.559 191.463  0.00  0.00    +0.000 A 
ATOM     20  C   UNL     1      17.116   1.292 190.456  0.00  0.00    +0.000 A 
ENDROOT
TORSDOF 0
ENDMDL
MODEL 2
REMARK VINA RESULT:     -10.6      0.769      3.006
REMARK  Name = Benzo[a]pyrene.pdbqt.pdb
REMARK  0 active torsions:
REMARK  status: ('A' for Active; 'I' for Inactive)
REMARK                            x       y       z     vdW  Elec       q    Type
REMARK                         _______ _______ _______ _____ _____    ______ ____
ROOT
ATOM      1  C   UNL     1      21.090   3.530 188.317  0.00  0.00    +0.000 A 
ATOM      2  C   UNL     1      21.700   3.995 187.131  0.00  0.00    +0.000 A 
ATOM      3  C   UNL     1      19.824   2.905 188.273  0.00  0.00    +0.000 A 
ATOM      4  C   UNL     1      21.763   3.698 189.546  0.00  0.00    +0.000 A 
ATOM      5  C   UNL     1      19.236   2.448 189.479  0.00  0.00    +0.000 A 
ATOM      6  C   UNL     1      21.045   3.838 185.893  0.00  0.00    +0.000 A 
ATOM      7  C   UNL     1      22.964   4.618 187.181  0.00  0.00    +0.000 A 
ATOM      8  C   UNL     1      19.927   2.626 190.700  0.00  0.00    +0.000 A 
ATOM      9  C   UNL     1      21.174   3.244 190.722  0.00  0.00    +0.000 A 
ATOM     10  C   UNL     1      19.200   2.765 187.022  0.00  0.00    +0.000 A 
ATOM     11  C   UNL     1      23.012   4.316 189.580  0.00  0.00    +0.000 A 
ATOM     12  C   UNL     1      19.797   3.222 185.848  0.00  0.00    +0.000 A 
ATOM     13  C   UNL     1      23.610   4.773 188.406  0.00  0.00    +0.000 A 
ATOM     14  C   UNL     1      21.654   4.300 184.726  0.00  0.00    +0.000 A 
ATOM     15  C   UNL     1      23.556   5.074 186.003  0.00  0.00    +0.000 A 
ATOM     16  C   UNL     1      17.981   1.818 189.519  0.00  0.00    +0.000 A 
ATOM     17  C   UNL     1      19.367   2.184 191.898  0.00  0.00    +0.000 A 
ATOM     18  C   UNL     1      22.904   4.915 184.781  0.00  0.00    +0.000 A 
ATOM     19  C   UNL     1      17.428   1.378 190.719  0.00  0.00    +0.000 A 
ATOM     20  C   UNL     1      18.121   1.562 191.909  0.00  0.00    +0.000 A 
ENDROOT
TORSDOF 0
ENDMDL
MODEL 3
REMARK VINA RESULT:     -10.5      0.745      5.438
REMARK  Name = Benzo[a]pyrene.pdbqt.pdb
REMARK  0 active torsions:
REMARK  status: ('A' for Active; 'I' for Inactive)
REMARK                            x       y       z     vdW  Elec       q    Type
REMARK                         _______ _______ _______ _____ _____    ______ ____
ROOT
ATOM      1  C   UNL     1      20.440   3.217 188.806  0.00  0.00    +0.000 A 
ATOM      2  C   UNL     1      19.468   2.611 189.632  0.00  0.00    +0.000 A 
ATOM      3  C   UNL     1      21.662   3.671 189.354  0.00  0.00    +0.000 A 
ATOM      4  C   UNL     1      20.176   3.364 187.428  0.00  0.00    +0.000 A 
ATOM      5  C   UNL     1      22.619   4.275 188.502  0.00  0.00    +0.000 A 
ATOM      6  C   UNL     1      19.711   2.455 191.012  0.00  0.00    +0.000 A 
ATOM      7  C   UNL     1      18.250   2.161 189.080  0.00  0.00    +0.000 A 
ATOM      8  C   UNL     1      22.335   4.412 187.124  0.00  0.00    +0.000 A 
ATOM      9  C   UNL     1      21.126   3.959 186.604  0.00  0.00    +0.000 A 
ATOM     10  C   UNL     1      21.871   3.499 190.733  0.00  0.00    +0.000 A 
ATOM     11  C   UNL     1      18.968   2.914 186.897  0.00  0.00    +0.000 A 
ATOM     12  C   UNL     1      20.914   2.901 191.552  0.00  0.00    +0.000 A 
ATOM     13  C   UNL     1      18.011   2.316 187.716  0.00  0.00    +0.000 A 
ATOM     14  C   UNL     1      18.746   1.856 191.819  0.00  0.00    +0.000 A 
ATOM     15  C   UNL     1      17.297   1.564 189.905  0.00  0.00    +0.000 A 
ATOM     16  C   UNL     1      23.856   4.751 188.969  0.00  0.00    +0.000 A 
ATOM     17  C   UNL     1      23.263   5.004 186.268  0.00  0.00    +0.000 A 
ATOM     18  C   UNL     1      17.544   1.412 191.269  0.00  0.00    +0.000 A 
ATOM     19  C   UNL     1      24.778   5.341 188.109  0.00  0.00    +0.000 A 
ATOM     20  C   UNL     1      24.481   5.467 186.757  0.00  0.00    +0.000 A 
ENDROOT
TORSDOF 0
ENDMDL
MODEL 4
REMARK VINA RESULT:     -10.4      1.040      5.349
REMARK  Name = Benzo[a]pyrene.pdbqt.pdb
REMARK  0 active torsions:
REMARK  status: ('A' for Active; 'I' for Inactive)
REMARK                            x       y       z     vdW  Elec       q    Type
REMARK                         _______ _______ _______ _____ _____    ______ ____
ROOT
ATOM      1  C   UNL     1      20.024   2.847 188.721  0.00  0.00    +0.000 A 
ATOM      2  C   UNL     1      19.596   2.415 189.995  0.00  0.00    +0.000 A 
ATOM      3  C   UNL     1      21.283   3.470 188.564  0.00  0.00    +0.000 A 
ATOM      4  C   UNL     1      19.180   2.649 187.608  0.00  0.00    +0.000 A 
ATOM      5  C   UNL     1      21.688   3.894 187.274  0.00  0.00    +0.000 A 
ATOM      6  C   UNL     1      20.423   2.603 191.120  0.00  0.00    +0.000 A 
ATOM      7  C   UNL     1      18.338   1.794 190.147  0.00  0.00    +0.000 A 
ATOM      8  C   UNL     1      20.827   3.686 186.172  0.00  0.00    +0.000 A 
ATOM      9  C   UNL     1      19.591   3.070 186.348  0.00  0.00    +0.000 A 
ATOM     10  C   UNL     1      22.083   3.642 189.707  0.00  0.00    +0.000 A 
ATOM     11  C   UNL     1      17.940   2.033 187.773  0.00  0.00    +0.000 A 
ATOM     12  C   UNL     1      21.663   3.217 190.967  0.00  0.00    +0.000 A 
ATOM     13  C   UNL     1      17.521   1.608 189.033  0.00  0.00    +0.000 A 
ATOM     14  C   UNL     1      19.992   2.173 192.375  0.00  0.00    +0.000 A 
ATOM     15  C   UNL     1      17.925   1.370 191.410  0.00  0.00    +0.000 A 
ATOM     16  C   UNL     1      22.922   4.521 187.035  0.00  0.00    +0.000 A 
ATOM     17  C   UNL     1      21.205   4.095 184.893  0.00  0.00    +0.000 A 
ATOM     18  C   UNL     1      18.748   1.560 192.519  0.00  0.00    +0.000 A 
ATOM     19  C   UNL     1      23.294   4.927 185.755  0.00  0.00    +0.000 A 
ATOM     20  C   UNL     1      22.435   4.714 184.684  0.00  0.00    +0.000 A 
ENDROOT
TORSDOF 0
ENDMDL
MODEL 5
REMARK VINA RESULT:     -10.4      0.871      6.063
REMARK  Name = Benzo[a]pyrene.pdbqt.pdb
REMARK  0 active torsions:
REMARK  status: ('A' for Active; 'I' for Inactive)
REMARK                            x       y       z     vdW  Elec       q    Type
REMARK                         _______ _______ _______ _____ _____    ______ ____
ROOT
ATOM      1  C   UNL     1      20.442   3.177 188.818  0.00  0.00    +0.000 A 
ATOM      2  C   UNL     1      19.458   2.588 189.644  0.00  0.00    +0.000 A 
ATOM      3  C   UNL     1      20.233   3.286 187.424  0.00  0.00    +0.000 A 
ATOM      4  C   UNL     1      21.634   3.654 189.402  0.00  0.00    +0.000 A 
ATOM      5  C   UNL     1      21.236   3.881 186.620  0.00  0.00    +0.000 A 
ATOM      6  C   UNL     1      18.260   2.105 189.081  0.00  0.00    +0.000 A 
ATOM      7  C   UNL     1      19.672   2.481 191.034  0.00  0.00    +0.000 A 
ATOM      8  C   UNL     1      22.423   4.352 187.225  0.00  0.00    +0.000 A 
ATOM      9  C   UNL     1      22.610   4.235 188.600  0.00  0.00    +0.000 A 
ATOM     10  C   UNL     1      19.026   2.794 186.897  0.00  0.00    +0.000 A 
ATOM     11  C   UNL     1      21.831   3.541 190.778  0.00  0.00    +0.000 A 
ATOM     12  C   UNL     1      18.053   2.212 187.708  0.00  0.00    +0.000 A 
ATOM     13  C   UNL     1      20.858   2.960 191.589  0.00  0.00    +0.000 A 
ATOM     14  C   UNL     1      17.295   1.525 189.904  0.00  0.00    +0.000 A 
ATOM     15  C   UNL     1      18.695   1.898 191.840  0.00  0.00    +0.000 A 
ATOM     16  C   UNL     1      21.104   4.026 185.229  0.00  0.00    +0.000 A 
ATOM     17  C   UNL     1      23.423   4.941 186.452  0.00  0.00    +0.000 A 
ATOM     18  C   UNL     1      17.511   1.422 191.277  0.00  0.00    +0.000 A 
ATOM     19  C   UNL     1      22.107   4.615 184.462  0.00  0.00    +0.000 A 
ATOM     20  C   UNL     1      23.267   5.073 185.075  0.00  0.00    +0.000 A 
ENDROOT
TORSDOF 0
ENDMDL
MODEL 6
REMARK VINA RESULT:     -10.3      1.710      3.533
REMARK  Name = Benzo[a]pyrene.pdbqt.pdb
REMARK  0 active torsions:
REMARK  status: ('A' for Active; 'I' for Inactive)
REMARK                            x       y       z     vdW  Elec       q    Type
REMARK                         _______ _______ _______ _____ _____    ______ ____
ROOT
ATOM      1  C   UNL     1      19.757   2.433 190.047  0.00  0.00    +0.000 A 
ATOM      2  C   UNL     1      20.115   3.018 188.812  0.00  0.00    +0.000 A 
ATOM      3  C   UNL     1      20.618   2.534 191.163  0.00  0.00    +0.000 A 
ATOM      4  C   UNL     1      18.529   1.745 190.151  0.00  0.00    +0.000 A 
ATOM      5  C   UNL     1      20.234   1.938 192.389  0.00  0.00    +0.000 A 
ATOM      6  C   UNL     1      21.337   3.708 188.686  0.00  0.00    +0.000 A 
ATOM      7  C   UNL     1      19.251   2.913 187.701  0.00  0.00    +0.000 A 
ATOM      8  C   UNL     1      18.999   1.254 192.473  0.00  0.00    +0.000 A 
ATOM      9  C   UNL     1      18.165   1.165 191.362  0.00  0.00    +0.000 A 
ATOM     10  C   UNL     1      21.829   3.230 191.001  0.00  0.00    +0.000 A 
ATOM     11  C   UNL     1      17.686   1.650 189.045  0.00  0.00    +0.000 A 
ATOM     12  C   UNL     1      22.186   3.810 189.784  0.00  0.00    +0.000 A 
ATOM     13  C   UNL     1      18.043   2.229 187.828  0.00  0.00    +0.000 A 
ATOM     14  C   UNL     1      21.682   4.283 187.463  0.00  0.00    +0.000 A 
ATOM     15  C   UNL     1      19.615   3.494 186.487  0.00  0.00    +0.000 A 
ATOM     16  C   UNL     1      21.033   1.995 193.543  0.00  0.00    +0.000 A 
ATOM     17  C   UNL     1      18.601   0.660 193.669  0.00  0.00    +0.000 A 
ATOM     18  C   UNL     1      20.825   4.177 186.369  0.00  0.00    +0.000 A 
ATOM     19  C   UNL     1      20.630   1.399 194.735  0.00  0.00    +0.000 A 
ATOM     20  C   UNL     1      19.413   0.731 194.799  0.00  0.00    +0.000 A 
ENDROOT
TORSDOF 0
ENDMDL
MODEL 7
REMARK VINA RESULT:      -9.5      2.777      4.531
REMARK  Name = Benzo[a]pyrene.pdbqt.pdb
REMARK  0 active torsions:
REMARK  status: ('A' for Active; 'I' for Inactive)
REMARK                            x       y       z     vdW  Elec       q    Type
REMARK                         _______ _______ _______ _____ _____    ______ ____
ROOT
ATOM      1  C   UNL     1      21.169   1.470 189.230  0.00  0.00    +0.000 A 
ATOM      2  C   UNL     1      20.865   2.126 188.016  0.00  0.00    +0.000 A 
ATOM      3  C   UNL     1      22.489   1.045 189.502  0.00  0.00    +0.000 A 
ATOM      4  C   UNL     1      20.138   1.246 190.166  0.00  0.00    +0.000 A 
ATOM      5  C   UNL     1      22.765   0.390 190.727  0.00  0.00    +0.000 A 
ATOM      6  C   UNL     1      21.881   2.361 187.067  0.00  0.00    +0.000 A 
ATOM      7  C   UNL     1      19.546   2.549 187.750  0.00  0.00    +0.000 A 
ATOM      8  C   UNL     1      21.718   0.174 191.652  0.00  0.00    +0.000 A 
ATOM      9  C   UNL     1      20.424   0.601 191.365  0.00  0.00    +0.000 A 
ATOM     10  C   UNL     1      23.476   1.296 188.533  0.00  0.00    +0.000 A 
ATOM     11  C   UNL     1      18.838   1.669 189.889  0.00  0.00    +0.000 A 
ATOM     12  C   UNL     1      23.181   1.943 187.334  0.00  0.00    +0.000 A 
ATOM     13  C   UNL     1      18.543   2.316 188.690  0.00  0.00    +0.000 A 
ATOM     14  C   UNL     1      21.572   3.009 185.872  0.00  0.00    +0.000 A 
ATOM     15  C   UNL     1      19.257   3.195 186.548  0.00  0.00    +0.000 A 
ATOM     16  C   UNL     1      24.050  -0.063 191.072  0.00  0.00    +0.000 A 
ATOM     17  C   UNL     1      21.967  -0.469 192.864  0.00  0.00    +0.000 A 
ATOM     18  C   UNL     1      20.266   3.425 185.613  0.00  0.00    +0.000 A 
ATOM     19  C   UNL     1      24.292  -0.704 192.284  0.00  0.00    +0.000 A 
ATOM     20  C   UNL     1      23.250  -0.907 193.180  0.00  0.00    +0.000 A 
ENDROOT
TORSDOF 0
ENDMDL
MODEL 8
REMARK VINA RESULT:      -9.5      2.288      6.087
REMARK  Name = Benzo[a]pyrene.pdbqt.pdb
REMARK  0 active torsions:
REMARK  status: ('A' for Active; 'I' for Inactive)
REMARK                            x       y       z     vdW  Elec       q    Type
REMARK                         _______ _______ _______ _____ _____    ______ ____
ROOT
ATOM      1  C   UNL     1      20.639   1.236 190.546  0.00  0.00    +0.000 A 
ATOM      2  C   UNL     1      20.288   0.828 191.852  0.00  0.00    +0.000 A 
ATOM      3  C   UNL     1      19.676   1.831 189.699  0.00  0.00    +0.000 A 
ATOM      4  C   UNL     1      21.963   1.041 190.098  0.00  0.00    +0.000 A 
ATOM      5  C   UNL     1      20.056   2.230 188.394  0.00  0.00    +0.000 A 
ATOM      6  C   UNL     1      18.972   1.014 192.319  0.00  0.00    +0.000 A 
ATOM      7  C   UNL     1      21.253   0.235 192.693  0.00  0.00    +0.000 A 
ATOM      8  C   UNL     1      21.388   2.025 187.964  0.00  0.00    +0.000 A 
ATOM      9  C   UNL     1      22.321   1.437 188.813  0.00  0.00    +0.000 A 
ATOM     10  C   UNL     1      18.373   2.000 190.198  0.00  0.00    +0.000 A 
ATOM     11  C   UNL     1      22.906   0.453 190.940  0.00  0.00    +0.000 A 
ATOM     12  C   UNL     1      18.022   1.600 191.487  0.00  0.00    +0.000 A 
ATOM     13  C   UNL     1      22.555   0.052 192.228  0.00  0.00    +0.000 A 
ATOM     14  C   UNL     1      18.634   0.609 193.610  0.00  0.00    +0.000 A 
ATOM     15  C   UNL     1      20.896  -0.163 193.980  0.00  0.00    +0.000 A 
ATOM     16  C   UNL     1      19.159   2.827 187.493  0.00  0.00    +0.000 A 
ATOM     17  C   UNL     1      21.783   2.410 186.684  0.00  0.00    +0.000 A 
ATOM     18  C   UNL     1      19.591   0.023 194.437  0.00  0.00    +0.000 A 
ATOM     19  C   UNL     1      19.560   3.210 186.215  0.00  0.00    +0.000 A 
ATOM     20  C   UNL     1      20.873   3.001 185.811  0.00  0.00    +0.000 A 
ENDROOT
TORSDOF 0
ENDMDL
MODEL 9
REMARK VINA RESULT:      -9.4      2.474      5.651
REMARK  Name = Benzo[a]pyrene.pdbqt.pdb
REMARK  0 active torsions:
REMARK  status: ('A' for Active; 'I' for Inactive)
REMARK                            x       y       z     vdW  Elec       q    Type
REMARK                         _______ _______ _______ _____ _____    ______ ____
ROOT
ATOM      1  C   UNL     1      20.570   1.242 190.300  0.00  0.00    +0.000 A 
ATOM      2  C   UNL     1      20.983   0.572 191.473  0.00  0.00    +0.000 A 
ATOM      3  C   UNL     1      21.467   1.417 189.222  0.00  0.00    +0.000 A 
ATOM      4  C   UNL     1      19.250   1.735 190.219  0.00  0.00    +0.000 A 
ATOM      5  C   UNL     1      21.026   2.093 188.058  0.00  0.00    +0.000 A 
ATOM      6  C   UNL     1      22.297   0.072 191.575  0.00  0.00    +0.000 A 
ATOM      7  C   UNL     1      20.083   0.401 192.546  0.00  0.00    +0.000 A 
ATOM      8  C   UNL     1      19.700   2.578 187.997  0.00  0.00    +0.000 A 
ATOM      9  C   UNL     1      18.831   2.396 189.070  0.00  0.00    +0.000 A 
ATOM     10  C   UNL     1      22.769   0.906 189.358  0.00  0.00    +0.000 A 
ATOM     11  C   UNL     1      18.372   1.558 191.287  0.00  0.00    +0.000 A 
ATOM     12  C   UNL     1      23.182   0.244 190.514  0.00  0.00    +0.000 A 
ATOM     13  C   UNL     1      18.784   0.896 192.443  0.00  0.00    +0.000 A 
ATOM     14  C   UNL     1      22.696  -0.588 192.736  0.00  0.00    +0.000 A 
ATOM     15  C   UNL     1      20.501  -0.262 193.699  0.00  0.00    +0.000 A 
ATOM     16  C   UNL     1      21.856   2.306 186.945  0.00  0.00    +0.000 A 
ATOM     17  C   UNL     1      19.244   3.247 186.861  0.00  0.00    +0.000 A 
ATOM     18  C   UNL     1      21.802  -0.755 193.794  0.00  0.00    +0.000 A 
ATOM     19  C   UNL     1      21.395   2.974 185.813  0.00  0.00    +0.000 A 
ATOM     20  C   UNL     1      20.088   3.445 185.771  0.00  0.00    +0.000 A 
ENDROOT
TORSDOF 0
ENDMDL
