MODEL 1
REMARK VINA RESULT:      -8.3      0.000      0.000
REMARK  Name = Bicalutamide.pdbqt.pdb
REMARK  8 active torsions:
REMARK  status: ('A' for Active; 'I' for Inactive)
REMARK    1  A    between atoms: C_2  and  N_13
REMARK    2  A    between atoms: C_5  and  C_9
REMARK    3  A    between atoms: C_6  and  C_8
REMARK    4  A    between atoms: C_14  and  C_17
REMARK    5  A    between atoms: C_17  and  O_19
REMARK    6  A    between atoms: C_17  and  C_21
REMARK    7  A    between atoms: C_21  and  S_22
REMARK    8  A    between atoms: S_22  and  C_25
REMARK                            x       y       z     vdW  Elec       q    Type
REMARK                         _______ _______ _______ _____ _____    ______ ____
ROOT
ATOM      1  N   UNL     1      23.290   2.203 190.167  0.00  0.00    +0.000 N 
ATOM      2  C   UNL     1      24.452   2.970 190.124  0.00  0.00    +0.000 C 
ATOM      3  O   UNL     1      24.969   3.516 191.103  0.00  0.00    +0.000 OA
ATOM      4  H   UNL     1      23.028   1.726 189.303  0.00  0.00    +0.000 HD
ENDROOT
BRANCH   1   5
ATOM      5  C   UNL     1      22.501   1.964 191.304  0.00  0.00    +0.000 A 
ATOM      6  C   UNL     1      22.274   0.637 191.669  0.00  0.00    +0.000 A 
ATOM      7  C   UNL     1      21.935   2.984 192.061  0.00  0.00    +0.000 A 
ATOM      8  C   UNL     1      21.492   0.314 192.784  0.00  0.00    +0.000 A 
ATOM      9  C   UNL     1      20.928   1.353 193.540  0.00  0.00    +0.000 A 
ATOM     10  C   UNL     1      21.153   2.681 193.173  0.00  0.00    +0.000 A 
BRANCH   8  11
ATOM     11  C   UNL     1      21.280  -1.130 193.133  0.00  0.00    +0.000 C 
ATOM     12  F   UNL     1      21.765  -1.463 194.361  0.00  0.00    +0.000 F 
ATOM     13  F   UNL     1      19.964  -1.470 193.150  0.00  0.00    +0.000 F 
ATOM     14  F   UNL     1      21.886  -1.971 192.254  0.00  0.00    +0.000 F 
ENDBRANCH   8  11
BRANCH   9  16
ATOM     15  N   UNL     1      19.448   0.911 195.620  0.00  0.00    +0.000 NA
ATOM     16  C   UNL     1      20.117   1.105 194.693  0.00  0.00    +0.000 C 
ENDBRANCH   9  16
ENDBRANCH   1   5
BRANCH   2  17
ATOM     17  C   UNL     1      25.086   3.154 188.685  0.00  0.00    +0.000 C 
ATOM     18  C   UNL     1      25.181   1.797 187.932  0.00  0.00    +0.000 C 
BRANCH  17  19
ATOM     19  O   UNL     1      26.404   3.667 188.791  0.00  0.00    +0.000 OA
ATOM     20  H   UNL     1      26.819   3.139 189.499  0.00  0.00    +0.000 HD
ENDBRANCH  17  19
BRANCH  17  21
ATOM     21  C   UNL     1      24.281   4.088 187.961  0.00  0.00    +0.000 C 
BRANCH  21  22
ATOM     22  S   UNL     1      23.167   5.204 187.260  0.00  0.00    +0.000 S 
ATOM     23  O   UNL     1      23.746   5.259 185.942  0.00  0.00    +0.000 OA
ATOM     24  O   UNL     1      23.289   6.222 188.275  0.00  0.00    +0.000 OA
BRANCH  22  25
ATOM     25  C   UNL     1      21.586   4.497 187.242  0.00  0.00    +0.000 A 
ATOM     26  C   UNL     1      20.822   4.570 188.403  0.00  0.00    +0.000 A 
ATOM     27  C   UNL     1      19.558   3.989 188.420  0.00  0.00    +0.000 A 
ATOM     28  C   UNL     1      19.086   3.343 187.281  0.00  0.00    +0.000 A 
ATOM     29  F   UNL     1      17.868   2.784 187.299  0.00  0.00    +0.000 F 
ATOM     30  C   UNL     1      19.857   3.266 186.124  0.00  0.00    +0.000 A 
ATOM     31  C   UNL     1      21.121   3.845 186.105  0.00  0.00    +0.000 A 
ENDBRANCH  22  25
ENDBRANCH  21  22
ENDBRANCH  17  21
ENDBRANCH   2  17
TORSDOF 8
ENDMDL
MODEL 2
REMARK VINA RESULT:      -8.2      1.644      2.048
REMARK  Name = Bicalutamide.pdbqt.pdb
REMARK  8 active torsions:
REMARK  status: ('A' for Active; 'I' for Inactive)
REMARK    1  A    between atoms: C_2  and  N_13
REMARK    2  A    between atoms: C_5  and  C_9
REMARK    3  A    between atoms: C_6  and  C_8
REMARK    4  A    between atoms: C_14  and  C_17
REMARK    5  A    between atoms: C_17  and  O_19
REMARK    6  A    between atoms: C_17  and  C_21
REMARK    7  A    between atoms: C_21  and  S_22
REMARK    8  A    between atoms: S_22  and  C_25
REMARK                            x       y       z     vdW  Elec       q    Type
REMARK                         _______ _______ _______ _____ _____    ______ ____
ROOT
ATOM      1  N   UNL     1      22.987   2.968 190.799  0.00  0.00    +0.000 N 
ATOM      2  C   UNL     1      23.924   2.308 190.009  0.00  0.00    +0.000 C 
ATOM      3  O   UNL     1      23.984   1.082 189.867  0.00  0.00    +0.000 OA
ATOM      4  H   UNL     1      22.985   3.987 190.748  0.00  0.00    +0.000 HD
ENDROOT
BRANCH   1   5
ATOM      5  C   UNL     1      21.997   2.359 191.588  0.00  0.00    +0.000 A 
ATOM      6  C   UNL     1      20.837   1.920 190.952  0.00  0.00    +0.000 A 
ATOM      7  C   UNL     1      22.123   2.191 192.964  0.00  0.00    +0.000 A 
ATOM      8  C   UNL     1      19.800   1.312 191.669  0.00  0.00    +0.000 A 
ATOM      9  C   UNL     1      19.941   1.147 193.055  0.00  0.00    +0.000 A 
ATOM     10  C   UNL     1      21.102   1.588 193.693  0.00  0.00    +0.000 A 
BRANCH   8  11
ATOM     11  C   UNL     1      18.573   0.858 190.934  0.00  0.00    +0.000 C 
ATOM     12  F   UNL     1      18.453  -0.497 190.875  0.00  0.00    +0.000 F 
ATOM     13  F   UNL     1      17.428   1.306 191.513  0.00  0.00    +0.000 F 
ATOM     14  F   UNL     1      18.550   1.289 189.645  0.00  0.00    +0.000 F 
ENDBRANCH   8  11
BRANCH   9  16
ATOM     15  N   UNL     1      18.097   0.050 194.507  0.00  0.00    +0.000 NA
ATOM     16  C   UNL     1      18.927   0.535 193.859  0.00  0.00    +0.000 C 
ENDBRANCH   9  16
ENDBRANCH   1   5
BRANCH   2  17
ATOM     17  C   UNL     1      24.987   3.242 189.300  0.00  0.00    +0.000 C 
ATOM     18  C   UNL     1      25.930   2.424 188.373  0.00  0.00    +0.000 C 
BRANCH  17  19
ATOM     19  O   UNL     1      25.804   3.880 190.269  0.00  0.00    +0.000 OA
ATOM     20  H   UNL     1      25.188   4.132 190.983  0.00  0.00    +0.000 HD
ENDBRANCH  17  19
BRANCH  17  21
ATOM     21  C   UNL     1      24.278   4.240 188.561  0.00  0.00    +0.000 C 
BRANCH  21  22
ATOM     22  S   UNL     1      23.295   5.276 187.594  0.00  0.00    +0.000 S 
ATOM     23  O   UNL     1      24.073   5.216 186.383  0.00  0.00    +0.000 OA
ATOM     24  O   UNL     1      23.262   6.384 188.518  0.00  0.00    +0.000 OA
BRANCH  22  25
ATOM     25  C   UNL     1      21.732   4.557 187.394  0.00  0.00    +0.000 A 
ATOM     26  C   UNL     1      20.784   4.761 188.391  0.00  0.00    +0.000 A 
ATOM     27  C   UNL     1      19.528   4.174 188.264  0.00  0.00    +0.000 A 
ATOM     28  C   UNL     1      19.249   3.391 187.147  0.00  0.00    +0.000 A 
ATOM     29  F   UNL     1      18.040   2.826 187.025  0.00  0.00    +0.000 F 
ATOM     30  C   UNL     1      20.204   3.183 186.155  0.00  0.00    +0.000 A 
ATOM     31  C   UNL     1      21.459   3.769 186.280  0.00  0.00    +0.000 A 
ENDBRANCH  22  25
ENDBRANCH  21  22
ENDBRANCH  17  21
ENDBRANCH   2  17
TORSDOF 8
ENDMDL
MODEL 3
REMARK VINA RESULT:      -8.2      3.958      6.505
REMARK  Name = Bicalutamide.pdbqt.pdb
REMARK  8 active torsions:
REMARK  status: ('A' for Active; 'I' for Inactive)
REMARK    1  A    between atoms: C_2  and  N_13
REMARK    2  A    between atoms: C_5  and  C_9
REMARK    3  A    between atoms: C_6  and  C_8
REMARK    4  A    between atoms: C_14  and  C_17
REMARK    5  A    between atoms: C_17  and  O_19
REMARK    6  A    between atoms: C_17  and  C_21
REMARK    7  A    between atoms: C_21  and  S_22
REMARK    8  A    between atoms: S_22  and  C_25
REMARK                            x       y       z     vdW  Elec       q    Type
REMARK                         _______ _______ _______ _____ _____    ______ ____
ROOT
ATOM      1  N   UNL     1      23.526   2.271 189.893  0.00  0.00    +0.000 N 
ATOM      2  C   UNL     1      23.952   0.953 190.029  0.00  0.00    +0.000 C 
ATOM      3  O   UNL     1      24.318   0.233 189.094  0.00  0.00    +0.000 OA
ATOM      4  H   UNL     1      23.348   2.783 190.759  0.00  0.00    +0.000 HD
ENDROOT
BRANCH   1   5
ATOM      5  C   UNL     1      23.401   2.978 188.687  0.00  0.00    +0.000 A 
ATOM      6  C   UNL     1      22.301   2.694 187.878  0.00  0.00    +0.000 A 
ATOM      7  C   UNL     1      24.326   3.929 188.267  0.00  0.00    +0.000 A 
ATOM      8  C   UNL     1      22.110   3.349 186.655  0.00  0.00    +0.000 A 
ATOM      9  C   UNL     1      23.050   4.306 186.245  0.00  0.00    +0.000 A 
ATOM     10  C   UNL     1      24.152   4.589 187.053  0.00  0.00    +0.000 A 
BRANCH   8  11
ATOM     11  C   UNL     1      20.909   3.005 185.824  0.00  0.00    +0.000 C 
ATOM     12  F   UNL     1      21.207   2.783 184.514  0.00  0.00    +0.000 F 
ATOM     13  F   UNL     1      20.284   1.879 186.258  0.00  0.00    +0.000 F 
ATOM     14  F   UNL     1      19.974   3.992 185.829  0.00  0.00    +0.000 F 
ENDBRANCH   8  11
BRANCH   9  16
ATOM     15  N   UNL     1      22.838   5.594 184.007  0.00  0.00    +0.000 NA
ATOM     16  C   UNL     1      22.925   5.019 185.010  0.00  0.00    +0.000 C 
ENDBRANCH   9  16
ENDBRANCH   1   5
BRANCH   2  17
ATOM     17  C   UNL     1      23.903   0.375 191.502  0.00  0.00    +0.000 C 
ATOM     18  C   UNL     1      24.944   1.077 192.420  0.00  0.00    +0.000 C 
BRANCH  17  19
ATOM     19  O   UNL     1      24.213  -1.009 191.499  0.00  0.00    +0.000 OA
ATOM     20  H   UNL     1      25.141  -1.054 191.797  0.00  0.00    +0.000 HD
ENDBRANCH  17  19
BRANCH  17  21
ATOM     21  C   UNL     1      22.575   0.552 192.004  0.00  0.00    +0.000 C 
BRANCH  21  22
ATOM     22  S   UNL     1      20.962   0.944 192.476  0.00  0.00    +0.000 S 
ATOM     23  O   UNL     1      21.284   1.911 193.495  0.00  0.00    +0.000 OA
ATOM     24  O   UNL     1      20.523  -0.410 192.710  0.00  0.00    +0.000 OA
BRANCH  22  25
ATOM     25  C   UNL     1      20.136   1.668 191.137  0.00  0.00    +0.000 A 
ATOM     26  C   UNL     1      20.322   3.028 190.909  0.00  0.00    +0.000 A 
ATOM     27  C   UNL     1      19.651   3.637 189.853  0.00  0.00    +0.000 A 
ATOM     28  C   UNL     1      18.805   2.877 189.051  0.00  0.00    +0.000 A 
ATOM     29  F   UNL     1      18.159   3.464 188.034  0.00  0.00    +0.000 F 
ATOM     30  C   UNL     1      18.616   1.517 189.286  0.00  0.00    +0.000 A 
ATOM     31  C   UNL     1      19.286   0.906 190.341  0.00  0.00    +0.000 A 
ENDBRANCH  22  25
ENDBRANCH  21  22
ENDBRANCH  17  21
ENDBRANCH   2  17
TORSDOF 8
ENDMDL
MODEL 4
REMARK VINA RESULT:      -7.8      3.584      6.885
REMARK  Name = Bicalutamide.pdbqt.pdb
REMARK  8 active torsions:
REMARK  status: ('A' for Active; 'I' for Inactive)
REMARK    1  A    between atoms: C_2  and  N_13
REMARK    2  A    between atoms: C_5  and  C_9
REMARK    3  A    between atoms: C_6  and  C_8
REMARK    4  A    between atoms: C_14  and  C_17
REMARK    5  A    between atoms: C_17  and  O_19
REMARK    6  A    between atoms: C_17  and  C_21
REMARK    7  A    between atoms: C_21  and  S_22
REMARK    8  A    between atoms: S_22  and  C_25
REMARK                            x       y       z     vdW  Elec       q    Type
REMARK                         _______ _______ _______ _____ _____    ______ ____
ROOT
ATOM      1  N   UNL     1      24.413   3.676 191.261  0.00  0.00    +0.000 N 
ATOM      2  C   UNL     1      24.618   2.368 191.692  0.00  0.00    +0.000 C 
ATOM      3  O   UNL     1      24.548   1.370 190.967  0.00  0.00    +0.000 OA
ATOM      4  H   UNL     1      24.601   4.414 191.940  0.00  0.00    +0.000 HD
ENDROOT
BRANCH   1   5
ATOM      5  C   UNL     1      24.054   4.070 189.961  0.00  0.00    +0.000 A 
ATOM      6  C   UNL     1      22.699   4.255 189.689  0.00  0.00    +0.000 A 
ATOM      7  C   UNL     1      24.985   4.267 188.946  0.00  0.00    +0.000 A 
ATOM      8  C   UNL     1      22.259   4.639 188.417  0.00  0.00    +0.000 A 
ATOM      9  C   UNL     1      23.209   4.836 187.403  0.00  0.00    +0.000 A 
ATOM     10  C   UNL     1      24.565   4.648 187.674  0.00  0.00    +0.000 A 
BRANCH   8  11
ATOM     11  C   UNL     1      20.790   4.825 188.178  0.00  0.00    +0.000 C 
ATOM     12  F   UNL     1      20.311   4.068 187.152  0.00  0.00    +0.000 F 
ATOM     13  F   UNL     1      20.043   4.492 189.264  0.00  0.00    +0.000 F 
ATOM     14  F   UNL     1      20.472   6.110 187.869  0.00  0.00    +0.000 F 
ENDBRANCH   8  11
BRANCH   9  16
ATOM     15  N   UNL     1      22.528   5.540 185.004  0.00  0.00    +0.000 NA
ATOM     16  C   UNL     1      22.840   5.229 186.077  0.00  0.00    +0.000 C 
ENDBRANCH   9  16
ENDBRANCH   1   5
BRANCH   2  17
ATOM     17  C   UNL     1      24.918   2.206 193.237  0.00  0.00    +0.000 C 
ATOM     18  C   UNL     1      25.130   3.587 193.920  0.00  0.00    +0.000 C 
BRANCH  17  19
ATOM     19  O   UNL     1      26.105   1.455 193.432  0.00  0.00    +0.000 OA
ATOM     20  H   UNL     1      26.173   0.891 192.638  0.00  0.00    +0.000 HD
ENDBRANCH  17  19
BRANCH  17  21
ATOM     21  C   UNL     1      23.822   1.503 193.831  0.00  0.00    +0.000 C 
BRANCH  21  22
ATOM     22  S   UNL     1      22.488   0.543 194.353  0.00  0.00    +0.000 S 
ATOM     23  O   UNL     1      22.477   0.953 195.734  0.00  0.00    +0.000 OA
ATOM     24  O   UNL     1      22.983  -0.717 193.854  0.00  0.00    +0.000 OA
BRANCH  22  25
ATOM     25  C   UNL     1      21.058   1.050 193.518  0.00  0.00    +0.000 A 
ATOM     26  C   UNL     1      19.861   0.407 193.817  0.00  0.00    +0.000 A 
ATOM     27  C   UNL     1      18.703   0.782 193.142  0.00  0.00    +0.000 A 
ATOM     28  C   UNL     1      18.766   1.786 192.180  0.00  0.00    +0.000 A 
ATOM     29  F   UNL     1      17.651   2.146 191.530  0.00  0.00    +0.000 F 
ATOM     30  C   UNL     1      19.968   2.421 191.879  0.00  0.00    +0.000 A 
ATOM     31  C   UNL     1      21.126   2.049 192.552  0.00  0.00    +0.000 A 
ENDBRANCH  22  25
ENDBRANCH  21  22
ENDBRANCH  17  21
ENDBRANCH   2  17
TORSDOF 8
ENDMDL
MODEL 5
REMARK VINA RESULT:      -7.8      3.716      6.671
REMARK  Name = Bicalutamide.pdbqt.pdb
REMARK  8 active torsions:
REMARK  status: ('A' for Active; 'I' for Inactive)
REMARK    1  A    between atoms: C_2  and  N_13
REMARK    2  A    between atoms: C_5  and  C_9
REMARK    3  A    between atoms: C_6  and  C_8
REMARK    4  A    between atoms: C_14  and  C_17
REMARK    5  A    between atoms: C_17  and  O_19
REMARK    6  A    between atoms: C_17  and  C_21
REMARK    7  A    between atoms: C_21  and  S_22
REMARK    8  A    between atoms: S_22  and  C_25
REMARK                            x       y       z     vdW  Elec       q    Type
REMARK                         _______ _______ _______ _____ _____    ______ ____
ROOT
ATOM      1  N   UNL     1      22.451   0.983 190.915  0.00  0.00    +0.000 N 
ATOM      2  C   UNL     1      23.439   1.367 191.817  0.00  0.00    +0.000 C 
ATOM      3  O   UNL     1      24.287   2.239 191.601  0.00  0.00    +0.000 OA
ATOM      4  H   UNL     1      21.752   0.322 191.259  0.00  0.00    +0.000 HD
ENDROOT
BRANCH   1   5
ATOM      5  C   UNL     1      22.283   1.481 189.613  0.00  0.00    +0.000 A 
ATOM      6  C   UNL     1      21.203   2.332 189.377  0.00  0.00    +0.000 A 
ATOM      7  C   UNL     1      23.133   1.155 188.561  0.00  0.00    +0.000 A 
ATOM      8  C   UNL     1      20.961   2.864 188.105  0.00  0.00    +0.000 A 
ATOM      9  C   UNL     1      21.828   2.527 187.054  0.00  0.00    +0.000 A 
ATOM     10  C   UNL     1      22.908   1.674 187.289  0.00  0.00    +0.000 A 
BRANCH   8  11
ATOM     11  C   UNL     1      19.785   3.774 187.907  0.00  0.00    +0.000 C 
ATOM     12  F   UNL     1      19.087   4.008 189.052  0.00  0.00    +0.000 F 
ATOM     13  F   UNL     1      20.150   4.997 187.440  0.00  0.00    +0.000 F 
ATOM     14  F   UNL     1      18.885   3.274 187.020  0.00  0.00    +0.000 F 
ENDBRANCH   8  11
BRANCH   9  16
ATOM     15  N   UNL     1      21.492   3.445 184.655  0.00  0.00    +0.000 NA
ATOM     16  C   UNL     1      21.648   3.030 185.726  0.00  0.00    +0.000 C 
ENDBRANCH   9  16
ENDBRANCH   1   5
BRANCH   2  17
ATOM     17  C   UNL     1      23.454   0.568 193.183  0.00  0.00    +0.000 C 
ATOM     18  C   UNL     1      23.693   1.517 194.391  0.00  0.00    +0.000 C 
BRANCH  17  19
ATOM     19  O   UNL     1      24.505  -0.384 193.184  0.00  0.00    +0.000 OA
ATOM     20  H   UNL     1      24.661  -0.579 194.128  0.00  0.00    +0.000 HD
ENDBRANCH  17  19
BRANCH  17  21
ATOM     21  C   UNL     1      22.205  -0.119 193.309  0.00  0.00    +0.000 C 
BRANCH  21  22
ATOM     22  S   UNL     1      20.605  -0.745 193.463  0.00  0.00    +0.000 S 
ATOM     23  O   UNL     1      20.357  -0.323 194.818  0.00  0.00    +0.000 OA
ATOM     24  O   UNL     1      20.912  -2.092 193.045  0.00  0.00    +0.000 OA
BRANCH  22  25
ATOM     25  C   UNL     1      19.567   0.059 192.335  0.00  0.00    +0.000 A 
ATOM     26  C   UNL     1      19.088   1.322 192.671  0.00  0.00    +0.000 A 
ATOM     27  C   UNL     1      18.233   1.979 191.791  0.00  0.00    +0.000 A 
ATOM     28  C   UNL     1      17.871   1.360 190.598  0.00  0.00    +0.000 A 
ATOM     29  F   UNL     1      17.047   1.993 189.751  0.00  0.00    +0.000 F 
ATOM     30  C   UNL     1      18.347   0.093 190.270  0.00  0.00    +0.000 A 
ATOM     31  C   UNL     1      19.201  -0.566 191.147  0.00  0.00    +0.000 A 
ENDBRANCH  22  25
ENDBRANCH  21  22
ENDBRANCH  17  21
ENDBRANCH   2  17
TORSDOF 8
ENDMDL
MODEL 6
REMARK VINA RESULT:      -7.6      1.733      2.205
REMARK  Name = Bicalutamide.pdbqt.pdb
REMARK  8 active torsions:
REMARK  status: ('A' for Active; 'I' for Inactive)
REMARK    1  A    between atoms: C_2  and  N_13
REMARK    2  A    between atoms: C_5  and  C_9
REMARK    3  A    between atoms: C_6  and  C_8
REMARK    4  A    between atoms: C_14  and  C_17
REMARK    5  A    between atoms: C_17  and  O_19
REMARK    6  A    between atoms: C_17  and  C_21
REMARK    7  A    between atoms: C_21  and  S_22
REMARK    8  A    between atoms: S_22  and  C_25
REMARK                            x       y       z     vdW  Elec       q    Type
REMARK                         _______ _______ _______ _____ _____    ______ ____
ROOT
ATOM      1  N   UNL     1      23.345   0.559 189.950  0.00  0.00    +0.000 N 
ATOM      2  C   UNL     1      24.308   1.561 189.863  0.00  0.00    +0.000 C 
ATOM      3  O   UNL     1      24.786   2.162 190.831  0.00  0.00    +0.000 OA
ATOM      4  H   UNL     1      23.112   0.076 189.081  0.00  0.00    +0.000 HD
ENDROOT
BRANCH   1   5
ATOM      5  C   UNL     1      22.734   0.101 191.128  0.00  0.00    +0.000 A 
ATOM      6  C   UNL     1      21.595   0.772 191.572  0.00  0.00    +0.000 A 
ATOM      7  C   UNL     1      23.222  -0.972 191.867  0.00  0.00    +0.000 A 
ATOM      8  C   UNL     1      20.933   0.383 192.743  0.00  0.00    +0.000 A 
ATOM      9  C   UNL     1      21.435  -0.702 193.477  0.00  0.00    +0.000 A 
ATOM     10  C   UNL     1      22.577  -1.372 193.034  0.00  0.00    +0.000 A 
BRANCH   8  11
ATOM     11  C   UNL     1      19.711   1.139 193.175  0.00  0.00    +0.000 C 
ATOM     12  F   UNL     1      19.778   1.580 194.462  0.00  0.00    +0.000 F 
ATOM     13  F   UNL     1      19.491   2.245 192.416  0.00  0.00    +0.000 F 
ATOM     14  F   UNL     1      18.581   0.387 193.100  0.00  0.00    +0.000 F 
ENDBRANCH   8  11
BRANCH   9  16
ATOM     15  N   UNL     1      20.300  -1.528 195.655  0.00  0.00    +0.000 NA
ATOM     16  C   UNL     1      20.815  -1.161 194.683  0.00  0.00    +0.000 C 
ENDBRANCH   9  16
ENDBRANCH   1   5
BRANCH   2  17
ATOM     17  C   UNL     1      24.753   1.944 188.394  0.00  0.00    +0.000 C 
ATOM     18  C   UNL     1      24.770   0.697 187.464  0.00  0.00    +0.000 C 
BRANCH  17  19
ATOM     19  O   UNL     1      26.067   2.478 188.401  0.00  0.00    +0.000 OA
ATOM     20  H   UNL     1      26.191   2.843 187.504  0.00  0.00    +0.000 HD
ENDBRANCH  17  19
BRANCH  17  21
ATOM     21  C   UNL     1      23.851   2.939 187.902  0.00  0.00    +0.000 C 
BRANCH  21  22
ATOM     22  S   UNL     1      22.722   3.998 187.140  0.00  0.00    +0.000 S 
ATOM     23  O   UNL     1      23.076   3.714 185.772  0.00  0.00    +0.000 OA
ATOM     24  O   UNL     1      23.087   5.186 187.873  0.00  0.00    +0.000 OA
BRANCH  22  25
ATOM     25  C   UNL     1      21.113   3.480 187.511  0.00  0.00    +0.000 A 
ATOM     26  C   UNL     1      20.839   3.073 188.813  0.00  0.00    +0.000 A 
ATOM     27  C   UNL     1      19.558   2.630 189.130  0.00  0.00    +0.000 A 
ATOM     28  C   UNL     1      18.580   2.598 188.140  0.00  0.00    +0.000 A 
ATOM     29  F   UNL     1      17.347   2.171 188.446  0.00  0.00    +0.000 F 
ATOM     30  C   UNL     1      18.861   3.000 186.837  0.00  0.00    +0.000 A 
ATOM     31  C   UNL     1      20.140   3.442 186.517  0.00  0.00    +0.000 A 
ENDBRANCH  22  25
ENDBRANCH  21  22
ENDBRANCH  17  21
ENDBRANCH   2  17
TORSDOF 8
ENDMDL
MODEL 7
REMARK VINA RESULT:      -7.5      4.161      5.776
REMARK  Name = Bicalutamide.pdbqt.pdb
REMARK  8 active torsions:
REMARK  status: ('A' for Active; 'I' for Inactive)
REMARK    1  A    between atoms: C_2  and  N_13
REMARK    2  A    between atoms: C_5  and  C_9
REMARK    3  A    between atoms: C_6  and  C_8
REMARK    4  A    between atoms: C_14  and  C_17
REMARK    5  A    between atoms: C_17  and  O_19
REMARK    6  A    between atoms: C_17  and  C_21
REMARK    7  A    between atoms: C_21  and  S_22
REMARK    8  A    between atoms: S_22  and  C_25
REMARK                            x       y       z     vdW  Elec       q    Type
REMARK                         _______ _______ _______ _____ _____    ______ ____
ROOT
ATOM      1  N   UNL     1      22.399   1.317 190.212  0.00  0.00    +0.000 N 
ATOM      2  C   UNL     1      21.606   2.288 190.818  0.00  0.00    +0.000 C 
ATOM      3  O   UNL     1      21.989   3.053 191.710  0.00  0.00    +0.000 OA
ATOM      4  H   UNL     1      21.987   0.823 189.420  0.00  0.00    +0.000 HD
ENDROOT
BRANCH   1   5
ATOM      5  C   UNL     1      23.732   1.020 190.537  0.00  0.00    +0.000 A 
ATOM      6  C   UNL     1      24.732   1.806 189.965  0.00  0.00    +0.000 A 
ATOM      7  C   UNL     1      24.090  -0.023 191.386  0.00  0.00    +0.000 A 
ATOM      8  C   UNL     1      26.085   1.569 190.232  0.00  0.00    +0.000 A 
ATOM      9  C   UNL     1      26.431   0.515 191.091  0.00  0.00    +0.000 A 
ATOM     10  C   UNL     1      25.431  -0.274 191.662  0.00  0.00    +0.000 A 
BRANCH   8  11
ATOM     11  C   UNL     1      27.120   2.446 189.590  0.00  0.00    +0.000 C 
ATOM     12  F   UNL     1      27.959   1.767 188.760  0.00  0.00    +0.000 F 
ATOM     13  F   UNL     1      26.567   3.430 188.834  0.00  0.00    +0.000 F 
ATOM     14  F   UNL     1      27.918   3.060 190.503  0.00  0.00    +0.000 F 
ENDBRANCH   8  11
BRANCH   9  16
ATOM     15  N   UNL     1      28.898  -0.038 191.661  0.00  0.00    +0.000 NA
ATOM     16  C   UNL     1      27.792   0.208 191.414  0.00  0.00    +0.000 C 
ENDBRANCH   9  16
ENDBRANCH   1   5
BRANCH   2  17
ATOM     17  C   UNL     1      20.105   2.342 190.319  0.00  0.00    +0.000 C 
ATOM     18  C   UNL     1      19.146   2.792 191.457  0.00  0.00    +0.000 C 
BRANCH  17  19
ATOM     19  O   UNL     1      19.680   1.055 189.898  0.00  0.00    +0.000 OA
ATOM     20  H   UNL     1      18.739   1.169 189.667  0.00  0.00    +0.000 HD
ENDBRANCH  17  19
BRANCH  17  21
ATOM     21  C   UNL     1      20.039   3.239 189.207  0.00  0.00    +0.000 C 
BRANCH  21  22
ATOM     22  S   UNL     1      20.117   4.440 187.971  0.00  0.00    +0.000 S 
ATOM     23  O   UNL     1      19.478   5.510 188.693  0.00  0.00    +0.000 OA
ATOM     24  O   UNL     1      19.508   3.647 186.930  0.00  0.00    +0.000 OA
BRANCH  22  25
ATOM     25  C   UNL     1      21.775   4.794 187.624  0.00  0.00    +0.000 A 
ATOM     26  C   UNL     1      22.608   5.138 188.684  0.00  0.00    +0.000 A 
ATOM     27  C   UNL     1      23.940   5.450 188.428  0.00  0.00    +0.000 A 
ATOM     28  C   UNL     1      24.410   5.417 187.118  0.00  0.00    +0.000 A 
ATOM     29  F   UNL     1      25.693   5.718 186.872  0.00  0.00    +0.000 F 
ATOM     30  C   UNL     1      23.572   5.079 186.059  0.00  0.00    +0.000 A 
ATOM     31  C   UNL     1      22.240   4.767 186.313  0.00  0.00    +0.000 A 
ENDBRANCH  22  25
ENDBRANCH  21  22
ENDBRANCH  17  21
ENDBRANCH   2  17
TORSDOF 8
ENDMDL
MODEL 8
REMARK VINA RESULT:      -7.5      3.264      4.320
REMARK  Name = Bicalutamide.pdbqt.pdb
REMARK  8 active torsions:
REMARK  status: ('A' for Active; 'I' for Inactive)
REMARK    1  A    between atoms: C_2  and  N_13
REMARK    2  A    between atoms: C_5  and  C_9
REMARK    3  A    between atoms: C_6  and  C_8
REMARK    4  A    between atoms: C_14  and  C_17
REMARK    5  A    between atoms: C_17  and  O_19
REMARK    6  A    between atoms: C_17  and  C_21
REMARK    7  A    between atoms: C_21  and  S_22
REMARK    8  A    between atoms: S_22  and  C_25
REMARK                            x       y       z     vdW  Elec       q    Type
REMARK                         _______ _______ _______ _____ _____    ______ ____
ROOT
ATOM      1  N   UNL     1      23.363   1.815 191.078  0.00  0.00    +0.000 N 
ATOM      2  C   UNL     1      24.049   2.461 192.104  0.00  0.00    +0.000 C 
ATOM      3  O   UNL     1      23.513   3.002 193.076  0.00  0.00    +0.000 OA
ATOM      4  H   UNL     1      23.933   1.323 190.388  0.00  0.00    +0.000 HD
ENDROOT
BRANCH   1   5
ATOM      5  C   UNL     1      21.968   1.711 190.956  0.00  0.00    +0.000 A 
ATOM      6  C   UNL     1      21.386   2.143 189.765  0.00  0.00    +0.000 A 
ATOM      7  C   UNL     1      21.155   1.213 191.969  0.00  0.00    +0.000 A 
ATOM      8  C   UNL     1      20.002   2.081 189.568  0.00  0.00    +0.000 A 
ATOM      9  C   UNL     1      19.193   1.575 190.597  0.00  0.00    +0.000 A 
ATOM     10  C   UNL     1      19.775   1.145 191.791  0.00  0.00    +0.000 A 
BRANCH   8  11
ATOM     11  C   UNL     1      19.427   2.558 188.266  0.00  0.00    +0.000 C 
ATOM     12  F   UNL     1      20.327   2.542 187.244  0.00  0.00    +0.000 F 
ATOM     13  F   UNL     1      18.381   1.796 187.852  0.00  0.00    +0.000 F 
ATOM     14  F   UNL     1      18.971   3.837 188.338  0.00  0.00    +0.000 F 
ENDBRANCH   8  11
BRANCH   9  16
ATOM     15  N   UNL     1      16.617   1.405 190.387  0.00  0.00    +0.000 NA
ATOM     16  C   UNL     1      17.770   1.479 190.473  0.00  0.00    +0.000 C 
ENDBRANCH   9  16
ENDBRANCH   1   5
BRANCH   2  17
ATOM     17  C   UNL     1      25.622   2.509 191.937  0.00  0.00    +0.000 C 
ATOM     18  C   UNL     1      26.293   1.236 192.526  0.00  0.00    +0.000 C 
BRANCH  17  19
ATOM     19  O   UNL     1      26.157   3.623 192.634  0.00  0.00    +0.000 OA
ATOM     20  H   UNL     1      27.055   3.735 192.269  0.00  0.00    +0.000 HD
ENDBRANCH  17  19
BRANCH  17  21
ATOM     21  C   UNL     1      25.917   2.648 190.544  0.00  0.00    +0.000 C 
BRANCH  21  22
ATOM     22  S   UNL     1      26.068   2.903 188.845  0.00  0.00    +0.000 S 
ATOM     23  O   UNL     1      26.058   1.522 188.435  0.00  0.00    +0.000 OA
ATOM     24  O   UNL     1      27.233   3.753 188.907  0.00  0.00    +0.000 OA
BRANCH  22  25
ATOM     25  C   UNL     1      24.676   3.758 188.271  0.00  0.00    +0.000 A 
ATOM     26  C   UNL     1      24.256   4.878 188.979  0.00  0.00    +0.000 A 
ATOM     27  C   UNL     1      23.126   5.569 188.551  0.00  0.00    +0.000 A 
ATOM     28  C   UNL     1      22.437   5.122 187.427  0.00  0.00    +0.000 A 
ATOM     29  F   UNL     1      21.349   5.786 187.014  0.00  0.00    +0.000 F 
ATOM     30  C   UNL     1      22.857   3.995 186.724  0.00  0.00    +0.000 A 
ATOM     31  C   UNL     1      23.986   3.304 187.151  0.00  0.00    +0.000 A 
ENDBRANCH  22  25
ENDBRANCH  21  22
ENDBRANCH  17  21
ENDBRANCH   2  17
TORSDOF 8
ENDMDL
MODEL 9
REMARK VINA RESULT:      -7.3      3.387      4.672
REMARK  Name = Bicalutamide.pdbqt.pdb
REMARK  8 active torsions:
REMARK  status: ('A' for Active; 'I' for Inactive)
REMARK    1  A    between atoms: C_2  and  N_13
REMARK    2  A    between atoms: C_5  and  C_9
REMARK    3  A    between atoms: C_6  and  C_8
REMARK    4  A    between atoms: C_14  and  C_17
REMARK    5  A    between atoms: C_17  and  O_19
REMARK    6  A    between atoms: C_17  and  C_21
REMARK    7  A    between atoms: C_21  and  S_22
REMARK    8  A    between atoms: S_22  and  C_25
REMARK                            x       y       z     vdW  Elec       q    Type
REMARK                         _______ _______ _______ _____ _____    ______ ____
ROOT
ATOM      1  N   UNL     1      24.573   2.043 192.099  0.00  0.00    +0.000 N 
ATOM      2  C   UNL     1      25.317   3.022 192.752  0.00  0.00    +0.000 C 
ATOM      3  O   UNL     1      24.834   3.954 193.404  0.00  0.00    +0.000 OA
ATOM      4  H   UNL     1      25.099   1.274 191.682  0.00  0.00    +0.000 HD
ENDROOT
BRANCH   1   5
ATOM      5  C   UNL     1      23.172   1.977 192.036  0.00  0.00    +0.000 A 
ATOM      6  C   UNL     1      22.537   2.634 190.983  0.00  0.00    +0.000 A 
ATOM      7  C   UNL     1      22.403   1.301 192.978  0.00  0.00    +0.000 A 
ATOM      8  C   UNL     1      21.143   2.623 190.854  0.00  0.00    +0.000 A 
ATOM      9  C   UNL     1      20.380   1.936 191.810  0.00  0.00    +0.000 A 
ATOM     10  C   UNL     1      21.015   1.280 192.867  0.00  0.00    +0.000 A 
BRANCH   8  11
ATOM     11  C   UNL     1      20.511   3.345 189.701  0.00  0.00    +0.000 C 
ATOM     12  F   UNL     1      19.431   4.093 190.061  0.00  0.00    +0.000 F 
ATOM     13  F   UNL     1      21.371   4.206 189.096  0.00  0.00    +0.000 F 
ATOM     14  F   UNL     1      20.068   2.497 188.736  0.00  0.00    +0.000 F 
ENDBRANCH   8  11
BRANCH   9  16
ATOM     15  N   UNL     1      17.794   1.834 191.685  0.00  0.00    +0.000 NA
ATOM     16  C   UNL     1      18.951   1.878 191.749  0.00  0.00    +0.000 C 
ENDBRANCH   9  16
ENDBRANCH   1   5
BRANCH   2  17
ATOM     17  C   UNL     1      26.886   2.906 192.577  0.00  0.00    +0.000 C 
ATOM     18  C   UNL     1      27.505   1.956 193.641  0.00  0.00    +0.000 C 
BRANCH  17  19
ATOM     19  O   UNL     1      27.495   4.176 192.746  0.00  0.00    +0.000 OA
ATOM     20  H   UNL     1      28.442   4.022 192.568  0.00  0.00    +0.000 HD
ENDBRANCH  17  19
BRANCH  17  21
ATOM     21  C   UNL     1      27.151   2.437 191.252  0.00  0.00    +0.000 C 
BRANCH  21  22
ATOM     22  S   UNL     1      27.382   2.063 189.584  0.00  0.00    +0.000 S 
ATOM     23  O   UNL     1      27.842   0.708 189.746  0.00  0.00    +0.000 OA
ATOM     24  O   UNL     1      28.212   3.201 189.272  0.00  0.00    +0.000 OA
BRANCH  22  25
ATOM     25  C   UNL     1      25.857   2.134 188.767  0.00  0.00    +0.000 A 
ATOM     26  C   UNL     1      25.228   0.935 188.449  0.00  0.00    +0.000 A 
ATOM     27  C   UNL     1      24.012   0.966 187.772  0.00  0.00    +0.000 A 
ATOM     28  C   UNL     1      23.453   2.193 187.423  0.00  0.00    +0.000 A 
ATOM     29  F   UNL     1      22.283   2.221 186.771  0.00  0.00    +0.000 F 
ATOM     30  C   UNL     1      24.090   3.390 187.738  0.00  0.00    +0.000 A 
ATOM     31  C   UNL     1      25.305   3.362 188.414  0.00  0.00    +0.000 A 
ENDBRANCH  22  25
ENDBRANCH  21  22
ENDBRANCH  17  21
ENDBRANCH   2  17
TORSDOF 8
ENDMDL
