MODEL 1
REMARK VINA RESULT:      -7.6      0.000      0.000
REMARK  Name = Bisphenol_A.pdbqt.pdb
REMARK  4 active torsions:
REMARK  status: ('A' for Active; 'I' for Inactive)
REMARK    1  A    between atoms: C_1  and  C_4
REMARK    2  A    between atoms: C_1  and  C_12
REMARK    3  A    between atoms: C_7  and  O_10
REMARK    4  A    between atoms: C_15  and  O_18
REMARK                            x       y       z     vdW  Elec       q    Type
REMARK                         _______ _______ _______ _____ _____    ______ ____
ROOT
ATOM      1  C   UNL     1      19.772   3.717 188.010  0.00  0.00    +0.000 C 
ATOM      2  C   UNL     1      19.202   5.044 188.625  0.00  0.00    +0.000 C 
ATOM      3  C   UNL     1      18.560   2.854 187.505  0.00  0.00    +0.000 C 
ENDROOT
BRANCH   1   4
ATOM      4  C   UNL     1      20.701   4.124 186.856  0.00  0.00    +0.000 A 
ATOM      5  C   UNL     1      21.682   5.111 187.060  0.00  0.00    +0.000 A 
ATOM      6  C   UNL     1      22.529   5.517 186.031  0.00  0.00    +0.000 A 
ATOM      7  C   UNL     1      22.397   4.938 184.775  0.00  0.00    +0.000 A 
ATOM      8  C   UNL     1      21.434   3.965 184.536  0.00  0.00    +0.000 A 
ATOM      9  C   UNL     1      20.591   3.570 185.573  0.00  0.00    +0.000 A 
BRANCH   7  10
ATOM     10  O   UNL     1      23.213   5.308 183.747  0.00  0.00    +0.000 OA
ATOM     11  H   UNL     1      23.846   5.969 184.076  0.00  0.00    +0.000 HD
ENDBRANCH   7  10
ENDBRANCH   1   4
BRANCH   1  12
ATOM     12  C   UNL     1      20.510   2.873 189.059  0.00  0.00    +0.000 A 
ATOM     13  C   UNL     1      20.416   3.207 190.423  0.00  0.00    +0.000 A 
ATOM     14  C   UNL     1      21.087   2.474 191.399  0.00  0.00    +0.000 A 
ATOM     15  C   UNL     1      21.871   1.392 191.017  0.00  0.00    +0.000 A 
ATOM     16  C   UNL     1      21.992   1.038 189.678  0.00  0.00    +0.000 A 
ATOM     17  C   UNL     1      21.319   1.781 188.711  0.00  0.00    +0.000 A 
BRANCH  15  18
ATOM     18  O   UNL     1      22.537   0.649 191.946  0.00  0.00    +0.000 OA
ATOM     19  H   UNL     1      23.471   0.585 191.680  0.00  0.00    +0.000 HD
ENDBRANCH  15  18
ENDBRANCH   1  12
TORSDOF 4
ENDMDL
MODEL 2
REMARK VINA RESULT:      -7.6      0.032      5.526
REMARK  Name = Bisphenol_A.pdbqt.pdb
REMARK  4 active torsions:
REMARK  status: ('A' for Active; 'I' for Inactive)
REMARK    1  A    between atoms: C_1  and  C_4
REMARK    2  A    between atoms: C_1  and  C_12
REMARK    3  A    between atoms: C_7  and  O_10
REMARK    4  A    between atoms: C_15  and  O_18
REMARK                            x       y       z     vdW  Elec       q    Type
REMARK                         _______ _______ _______ _____ _____    ______ ____
ROOT
ATOM      1  C   UNL     1      19.786   3.717 187.993  0.00  0.00    +0.000 C 
ATOM      2  C   UNL     1      18.582   2.845 187.491  0.00  0.00    +0.000 C 
ATOM      3  C   UNL     1      19.207   5.041 188.607  0.00  0.00    +0.000 C 
ENDROOT
BRANCH   1   4
ATOM      4  C   UNL     1      20.532   2.882 189.045  0.00  0.00    +0.000 A 
ATOM      5  C   UNL     1      20.446   3.227 190.406  0.00  0.00    +0.000 A 
ATOM      6  C   UNL     1      21.124   2.502 191.384  0.00  0.00    +0.000 A 
ATOM      7  C   UNL     1      21.907   1.419 191.006  0.00  0.00    +0.000 A 
ATOM      8  C   UNL     1      22.022   1.054 189.670  0.00  0.00    +0.000 A 
ATOM      9  C   UNL     1      21.341   1.788 188.701  0.00  0.00    +0.000 A 
BRANCH   7  10
ATOM     10  O   UNL     1      22.581   0.685 191.937  0.00  0.00    +0.000 OA
ATOM     11  H   UNL     1      23.123   0.022 191.477  0.00  0.00    +0.000 HD
ENDBRANCH   7  10
ENDBRANCH   1   4
BRANCH   1  12
ATOM     12  C   UNL     1      20.712   4.130 186.840  0.00  0.00    +0.000 A 
ATOM     13  C   UNL     1      21.696   5.114 187.046  0.00  0.00    +0.000 A 
ATOM     14  C   UNL     1      22.540   5.525 186.017  0.00  0.00    +0.000 A 
ATOM     15  C   UNL     1      22.404   4.953 184.758  0.00  0.00    +0.000 A 
ATOM     16  C   UNL     1      21.440   3.982 184.517  0.00  0.00    +0.000 A 
ATOM     17  C   UNL     1      20.599   3.582 185.553  0.00  0.00    +0.000 A 
BRANCH  15  18
ATOM     18  O   UNL     1      23.218   5.327 183.730  0.00  0.00    +0.000 OA
ATOM     19  H   UNL     1      23.294   6.297 183.733  0.00  0.00    +0.000 HD
ENDBRANCH  15  18
ENDBRANCH   1  12
TORSDOF 4
ENDMDL
MODEL 3
REMARK VINA RESULT:      -7.6      1.250      2.213
REMARK  Name = Bisphenol_A.pdbqt.pdb
REMARK  4 active torsions:
REMARK  status: ('A' for Active; 'I' for Inactive)
REMARK    1  A    between atoms: C_1  and  C_4
REMARK    2  A    between atoms: C_1  and  C_12
REMARK    3  A    between atoms: C_7  and  O_10
REMARK    4  A    between atoms: C_15  and  O_18
REMARK                            x       y       z     vdW  Elec       q    Type
REMARK                         _______ _______ _______ _____ _____    ______ ____
ROOT
ATOM      1  C   UNL     1      20.499   3.671 187.236  0.00  0.00    +0.000 C 
ATOM      2  C   UNL     1      20.309   4.977 188.086  0.00  0.00    +0.000 C 
ATOM      3  C   UNL     1      19.085   3.029 187.006  0.00  0.00    +0.000 C 
ENDROOT
BRANCH   1   4
ATOM      4  C   UNL     1      21.155   4.092 185.912  0.00  0.00    +0.000 A 
ATOM      5  C   UNL     1      20.837   3.412 184.723  0.00  0.00    +0.000 A 
ATOM      6  C   UNL     1      21.426   3.756 183.509  0.00  0.00    +0.000 A 
ATOM      7  C   UNL     1      22.353   4.791 183.473  0.00  0.00    +0.000 A 
ATOM      8  C   UNL     1      22.697   5.480 184.629  0.00  0.00    +0.000 A 
ATOM      9  C   UNL     1      22.102   5.124 185.838  0.00  0.00    +0.000 A 
BRANCH   7  10
ATOM     10  O   UNL     1      22.946   5.157 182.300  0.00  0.00    +0.000 OA
ATOM     11  H   UNL     1      23.755   4.629 182.184  0.00  0.00    +0.000 HD
ENDBRANCH   7  10
ENDBRANCH   1   4
BRANCH   1  12
ATOM     12  C   UNL     1      21.345   2.625 187.977  0.00  0.00    +0.000 A 
ATOM     13  C   UNL     1      22.460   2.046 187.344  0.00  0.00    +0.000 A 
ATOM     14  C   UNL     1      23.238   1.083 187.981  0.00  0.00    +0.000 A 
ATOM     15  C   UNL     1      22.903   0.681 189.269  0.00  0.00    +0.000 A 
ATOM     16  C   UNL     1      21.805   1.227 189.922  0.00  0.00    +0.000 A 
ATOM     17  C   UNL     1      21.033   2.188 189.273  0.00  0.00    +0.000 A 
BRANCH  15  18
ATOM     18  O   UNL     1      23.647  -0.255 189.924  0.00  0.00    +0.000 OA
ATOM     19  H   UNL     1      23.852  -0.977 189.304  0.00  0.00    +0.000 HD
ENDBRANCH  15  18
ENDBRANCH   1  12
TORSDOF 4
ENDMDL
MODEL 4
REMARK VINA RESULT:      -7.4      2.380      2.859
REMARK  Name = Bisphenol_A.pdbqt.pdb
REMARK  4 active torsions:
REMARK  status: ('A' for Active; 'I' for Inactive)
REMARK    1  A    between atoms: C_1  and  C_4
REMARK    2  A    between atoms: C_1  and  C_12
REMARK    3  A    between atoms: C_7  and  O_10
REMARK    4  A    between atoms: C_15  and  O_18
REMARK                            x       y       z     vdW  Elec       q    Type
REMARK                         _______ _______ _______ _____ _____    ______ ____
ROOT
ATOM      1  C   UNL     1      20.224   4.142 188.284  0.00  0.00    +0.000 C 
ATOM      2  C   UNL     1      19.657   5.583 188.544  0.00  0.00    +0.000 C 
ATOM      3  C   UNL     1      19.600   3.606 186.947  0.00  0.00    +0.000 C 
ENDROOT
BRANCH   1   4
ATOM      4  C   UNL     1      21.751   4.275 188.186  0.00  0.00    +0.000 A 
ATOM      5  C   UNL     1      22.353   5.542 188.293  0.00  0.00    +0.000 A 
ATOM      6  C   UNL     1      23.733   5.702 188.190  0.00  0.00    +0.000 A 
ATOM      7  C   UNL     1      24.532   4.586 187.973  0.00  0.00    +0.000 A 
ATOM      8  C   UNL     1      23.970   3.320 187.854  0.00  0.00    +0.000 A 
ATOM      9  C   UNL     1      22.588   3.174 187.956  0.00  0.00    +0.000 A 
BRANCH   7  10
ATOM     10  O   UNL     1      25.886   4.705 187.872  0.00  0.00    +0.000 OA
ATOM     11  H   UNL     1      26.286   4.420 188.711  0.00  0.00    +0.000 HD
ENDBRANCH   7  10
ENDBRANCH   1   4
BRANCH   1  12
ATOM     12  C   UNL     1      19.813   3.159 189.390  0.00  0.00    +0.000 A 
ATOM     13  C   UNL     1      18.944   2.092 189.096  0.00  0.00    +0.000 A 
ATOM     14  C   UNL     1      18.538   1.193 190.079  0.00  0.00    +0.000 A 
ATOM     15  C   UNL     1      18.996   1.357 191.380  0.00  0.00    +0.000 A 
ATOM     16  C   UNL     1      19.849   2.403 191.709  0.00  0.00    +0.000 A 
ATOM     17  C   UNL     1      20.247   3.298 190.717  0.00  0.00    +0.000 A 
BRANCH  15  18
ATOM     18  O   UNL     1      18.623   0.492 192.366  0.00  0.00    +0.000 OA
ATOM     19  H   UNL     1      17.678   0.628 192.556  0.00  0.00    +0.000 HD
ENDBRANCH  15  18
ENDBRANCH   1  12
TORSDOF 4
ENDMDL
MODEL 5
REMARK VINA RESULT:      -7.2      2.178      5.357
REMARK  Name = Bisphenol_A.pdbqt.pdb
REMARK  4 active torsions:
REMARK  status: ('A' for Active; 'I' for Inactive)
REMARK    1  A    between atoms: C_1  and  C_4
REMARK    2  A    between atoms: C_1  and  C_12
REMARK    3  A    between atoms: C_7  and  O_10
REMARK    4  A    between atoms: C_15  and  O_18
REMARK                            x       y       z     vdW  Elec       q    Type
REMARK                         _______ _______ _______ _____ _____    ______ ____
ROOT
ATOM      1  C   UNL     1      20.331   4.158 188.287  0.00  0.00    +0.000 C 
ATOM      2  C   UNL     1      19.624   3.545 187.026  0.00  0.00    +0.000 C 
ATOM      3  C   UNL     1      19.692   5.565 188.567  0.00  0.00    +0.000 C 
ENDROOT
BRANCH   1   4
ATOM      4  C   UNL     1      20.091   3.183 189.450  0.00  0.00    +0.000 A 
ATOM      5  C   UNL     1      20.723   3.398 190.687  0.00  0.00    +0.000 A 
ATOM      6  C   UNL     1      20.543   2.524 191.758  0.00  0.00    +0.000 A 
ATOM      7  C   UNL     1      19.725   1.413 191.596  0.00  0.00    +0.000 A 
ATOM      8  C   UNL     1      19.091   1.165 190.385  0.00  0.00    +0.000 A 
ATOM      9  C   UNL     1      19.282   2.045 189.321  0.00  0.00    +0.000 A 
BRANCH   7  10
ATOM     10  O   UNL     1      19.523   0.540 192.624  0.00  0.00    +0.000 OA
ATOM     11  H   UNL     1      18.583   0.289 192.638  0.00  0.00    +0.000 HD
ENDBRANCH   7  10
ENDBRANCH   1   4
BRANCH   1  12
ATOM     12  C   UNL     1      21.829   4.390 188.045  0.00  0.00    +0.000 A 
ATOM     13  C   UNL     1      22.389   5.662 188.269  0.00  0.00    +0.000 A 
ATOM     14  C   UNL     1      23.740   5.911 188.042  0.00  0.00    +0.000 A 
ATOM     15  C   UNL     1      24.552   4.883 187.580  0.00  0.00    +0.000 A 
ATOM     16  C   UNL     1      24.033   3.617 187.342  0.00  0.00    +0.000 A 
ATOM     17  C   UNL     1      22.679   3.380 187.569  0.00  0.00    +0.000 A 
BRANCH  15  18
ATOM     18  O   UNL     1      25.881   5.091 187.354  0.00  0.00    +0.000 OA
ATOM     19  H   UNL     1      26.249   4.301 186.921  0.00  0.00    +0.000 HD
ENDBRANCH  15  18
ENDBRANCH   1  12
TORSDOF 4
ENDMDL
MODEL 6
REMARK VINA RESULT:      -6.7      2.733      5.256
REMARK  Name = Bisphenol_A.pdbqt.pdb
REMARK  4 active torsions:
REMARK  status: ('A' for Active; 'I' for Inactive)
REMARK    1  A    between atoms: C_1  and  C_4
REMARK    2  A    between atoms: C_1  and  C_12
REMARK    3  A    between atoms: C_7  and  O_10
REMARK    4  A    between atoms: C_15  and  O_18
REMARK                            x       y       z     vdW  Elec       q    Type
REMARK                         _______ _______ _______ _____ _____    ______ ____
ROOT
ATOM      1  C   UNL     1      20.604   3.060 188.233  0.00  0.00    +0.000 C 
ATOM      2  C   UNL     1      19.776   2.747 186.936  0.00  0.00    +0.000 C 
ATOM      3  C   UNL     1      20.780   4.617 188.335  0.00  0.00    +0.000 C 
ENDROOT
BRANCH   1   4
ATOM      4  C   UNL     1      19.804   2.499 189.417  0.00  0.00    +0.000 A 
ATOM      5  C   UNL     1      20.211   2.777 190.735  0.00  0.00    +0.000 A 
ATOM      6  C   UNL     1      19.519   2.270 191.832  0.00  0.00    +0.000 A 
ATOM      7  C   UNL     1      18.405   1.466 191.621  0.00  0.00    +0.000 A 
ATOM      8  C   UNL     1      17.979   1.163 190.333  0.00  0.00    +0.000 A 
ATOM      9  C   UNL     1      18.682   1.675 189.244  0.00  0.00    +0.000 A 
BRANCH   7  10
ATOM     10  O   UNL     1      17.702   0.956 192.672  0.00  0.00    +0.000 OA
ATOM     11  H   UNL     1      17.799   1.558 193.430  0.00  0.00    +0.000 HD
ENDBRANCH   7  10
ENDBRANCH   1   4
BRANCH   1  12
ATOM     12  C   UNL     1      22.015   2.457 188.168  0.00  0.00    +0.000 A 
ATOM     13  C   UNL     1      23.140   3.302 188.146  0.00  0.00    +0.000 A 
ATOM     14  C   UNL     1      24.432   2.789 188.070  0.00  0.00    +0.000 A 
ATOM     15  C   UNL     1      24.615   1.412 188.011  0.00  0.00    +0.000 A 
ATOM     16  C   UNL     1      23.526   0.549 188.025  0.00  0.00    +0.000 A 
ATOM     17  C   UNL     1      22.238   1.074 188.098  0.00  0.00    +0.000 A 
BRANCH  15  18
ATOM     18  O   UNL     1      25.867   0.876 187.942  0.00  0.00    +0.000 OA
ATOM     19  H   UNL     1      26.357   1.326 187.232  0.00  0.00    +0.000 HD
ENDBRANCH  15  18
ENDBRANCH   1  12
TORSDOF 4
ENDMDL
MODEL 7
REMARK VINA RESULT:      -6.2      2.904      4.185
REMARK  Name = Bisphenol_A.pdbqt.pdb
REMARK  4 active torsions:
REMARK  status: ('A' for Active; 'I' for Inactive)
REMARK    1  A    between atoms: C_1  and  C_4
REMARK    2  A    between atoms: C_1  and  C_12
REMARK    3  A    between atoms: C_7  and  O_10
REMARK    4  A    between atoms: C_15  and  O_18
REMARK                            x       y       z     vdW  Elec       q    Type
REMARK                         _______ _______ _______ _____ _____    ______ ____
ROOT
ATOM      1  C   UNL     1      22.771   2.852 190.747  0.00  0.00    +0.000 C 
ATOM      2  C   UNL     1      23.627   1.543 190.890  0.00  0.00    +0.000 C 
ATOM      3  C   UNL     1      22.723   3.558 192.149  0.00  0.00    +0.000 C 
ENDROOT
BRANCH   1   4
ATOM      4  C   UNL     1      23.468   3.726 189.694  0.00  0.00    +0.000 A 
ATOM      5  C   UNL     1      24.777   3.418 189.280  0.00  0.00    +0.000 A 
ATOM      6  C   UNL     1      25.445   4.200 188.340  0.00  0.00    +0.000 A 
ATOM      7  C   UNL     1      24.806   5.311 187.804  0.00  0.00    +0.000 A 
ATOM      8  C   UNL     1      23.516   5.650 188.195  0.00  0.00    +0.000 A 
ATOM      9  C   UNL     1      22.860   4.861 189.138  0.00  0.00    +0.000 A 
BRANCH   7  10
ATOM     10  O   UNL     1      25.429   6.096 186.879  0.00  0.00    +0.000 OA
ATOM     11  H   UNL     1      26.098   6.638 187.332  0.00  0.00    +0.000 HD
ENDBRANCH   7  10
ENDBRANCH   1   4
BRANCH   1  12
ATOM     12  C   UNL     1      21.319   2.544 190.355  0.00  0.00    +0.000 A 
ATOM     13  C   UNL     1      21.024   2.081 189.060  0.00  0.00    +0.000 A 
ATOM     14  C   UNL     1      19.716   1.809 188.666  0.00  0.00    +0.000 A 
ATOM     15  C   UNL     1      18.680   2.003 189.571  0.00  0.00    +0.000 A 
ATOM     16  C   UNL     1      18.934   2.465 190.856  0.00  0.00    +0.000 A 
ATOM     17  C   UNL     1      20.246   2.737 191.238  0.00  0.00    +0.000 A 
BRANCH  15  18
ATOM     18  O   UNL     1      17.388   1.741 189.220  0.00  0.00    +0.000 OA
ATOM     19  H   UNL     1      17.188   2.219 188.396  0.00  0.00    +0.000 HD
ENDBRANCH  15  18
ENDBRANCH   1  12
TORSDOF 4
ENDMDL
MODEL 8
REMARK VINA RESULT:      -6.0      2.619      5.951
REMARK  Name = Bisphenol_A.pdbqt.pdb
REMARK  4 active torsions:
REMARK  status: ('A' for Active; 'I' for Inactive)
REMARK    1  A    between atoms: C_1  and  C_4
REMARK    2  A    between atoms: C_1  and  C_12
REMARK    3  A    between atoms: C_7  and  O_10
REMARK    4  A    between atoms: C_15  and  O_18
REMARK                            x       y       z     vdW  Elec       q    Type
REMARK                         _______ _______ _______ _____ _____    ______ ____
ROOT
ATOM      1  C   UNL     1      23.137   2.687 190.489  0.00  0.00    +0.000 C 
ATOM      2  C   UNL     1      23.596   3.530 191.731  0.00  0.00    +0.000 C 
ATOM      3  C   UNL     1      23.976   1.360 190.464  0.00  0.00    +0.000 C 
ENDROOT
BRANCH   1   4
ATOM      4  C   UNL     1      21.637   2.408 190.669  0.00  0.00    +0.000 A 
ATOM      5  C   UNL     1      21.049   1.297 190.039  0.00  0.00    +0.000 A 
ATOM      6  C   UNL     1      19.688   1.024 190.167  0.00  0.00    +0.000 A 
ATOM      7  C   UNL     1      18.895   1.873 190.929  0.00  0.00    +0.000 A 
ATOM      8  C   UNL     1      19.441   2.984 191.559  0.00  0.00    +0.000 A 
ATOM      9  C   UNL     1      20.802   3.247 191.421  0.00  0.00    +0.000 A 
BRANCH   7  10
ATOM     10  O   UNL     1      17.561   1.634 191.079  0.00  0.00    +0.000 OA
ATOM     11  H   UNL     1      17.328   1.752 192.016  0.00  0.00    +0.000 HD
ENDBRANCH   7  10
ENDBRANCH   1   4
BRANCH   1  12
ATOM     12  C   UNL     1      23.421   3.416 189.168  0.00  0.00    +0.000 A 
ATOM     13  C   UNL     1      23.998   4.699 189.183  0.00  0.00    +0.000 A 
ATOM     14  C   UNL     1      24.252   5.396 188.004  0.00  0.00    +0.000 A 
ATOM     15  C   UNL     1      23.924   4.813 186.786  0.00  0.00    +0.000 A 
ATOM     16  C   UNL     1      23.347   3.550 186.734  0.00  0.00    +0.000 A 
ATOM     17  C   UNL     1      23.095   2.864 187.920  0.00  0.00    +0.000 A 
BRANCH  15  18
ATOM     18  O   UNL     1      24.165   5.465 185.613  0.00  0.00    +0.000 OA
ATOM     19  H   UNL     1      23.854   6.383 185.699  0.00  0.00    +0.000 HD
ENDBRANCH  15  18
ENDBRANCH   1  12
TORSDOF 4
ENDMDL
MODEL 9
REMARK VINA RESULT:      -6.0      1.857      3.187
REMARK  Name = Bisphenol_A.pdbqt.pdb
REMARK  4 active torsions:
REMARK  status: ('A' for Active; 'I' for Inactive)
REMARK    1  A    between atoms: C_1  and  C_4
REMARK    2  A    between atoms: C_1  and  C_12
REMARK    3  A    between atoms: C_7  and  O_10
REMARK    4  A    between atoms: C_15  and  O_18
REMARK                            x       y       z     vdW  Elec       q    Type
REMARK                         _______ _______ _______ _____ _____    ______ ____
ROOT
ATOM      1  C   UNL     1      19.518   1.909 190.434  0.00  0.00    +0.000 C 
ATOM      2  C   UNL     1      18.924   2.871 191.523  0.00  0.00    +0.000 C 
ATOM      3  C   UNL     1      18.374   0.943 189.960  0.00  0.00    +0.000 C 
ENDROOT
BRANCH   1   4
ATOM      4  C   UNL     1      20.025   2.796 189.286  0.00  0.00    +0.000 A 
ATOM      5  C   UNL     1      19.808   2.409 187.952  0.00  0.00    +0.000 A 
ATOM      6  C   UNL     1      20.270   3.180 186.887  0.00  0.00    +0.000 A 
ATOM      7  C   UNL     1      20.965   4.353 187.150  0.00  0.00    +0.000 A 
ATOM      8  C   UNL     1      21.205   4.762 188.456  0.00  0.00    +0.000 A 
ATOM      9  C   UNL     1      20.740   3.981 189.512  0.00  0.00    +0.000 A 
BRANCH   7  10
ATOM     10  O   UNL     1      21.427   5.134 186.131  0.00  0.00    +0.000 OA
ATOM     11  H   UNL     1      21.864   5.915 186.513  0.00  0.00    +0.000 HD
ENDBRANCH   7  10
ENDBRANCH   1   4
BRANCH   1  12
ATOM     12  C   UNL     1      20.638   1.026 191.002  0.00  0.00    +0.000 A 
ATOM     13  C   UNL     1      21.904   1.014 190.388  0.00  0.00    +0.000 A 
ATOM     14  C   UNL     1      22.937   0.211 190.866  0.00  0.00    +0.000 A 
ATOM     15  C   UNL     1      22.711  -0.598 191.973  0.00  0.00    +0.000 A 
ATOM     16  C   UNL     1      21.471  -0.617 192.601  0.00  0.00    +0.000 A 
ATOM     17  C   UNL     1      20.445   0.188 192.110  0.00  0.00    +0.000 A 
BRANCH  15  18
ATOM     18  O   UNL     1      23.702  -1.392 192.471  0.00  0.00    +0.000 OA
ATOM     19  H   UNL     1      23.731  -1.280 193.438  0.00  0.00    +0.000 HD
ENDBRANCH  15  18
ENDBRANCH   1  12
TORSDOF 4
ENDMDL
