MODEL 1
REMARK VINA RESULT:      -3.5      0.000      0.000
REMARK  Name = CadmiumAcetate.pdbqt.pdb
REMARK  1 active torsions:
REMARK  status: ('A' for Active; 'I' for Inactive)
REMARK    1  A    between atoms: C_3  and  O_4
REMARK                            x       y       z     vdW  Elec       q    Type
REMARK                         _______ _______ _______ _____ _____    ______ ____
ROOT
ATOM      1  O   UNL     1      31.772   2.001 167.791  0.00  0.00    +0.000 OA
ATOM      2  C   UNL     1      30.274   0.320 168.254  0.00  0.00    +0.000 C 
ATOM      3  C   UNL     1      30.674   1.740 168.235  0.00  0.00    +0.000 C 
ENDROOT
BRANCH   3   4
ATOM      4  O   UNL     1      29.782   2.607 168.711  0.00  0.00    +0.000 OA
ATOM      5  H   UNL     1      28.990   2.412 168.177  0.00  0.00    +0.000 HD
ENDBRANCH   3   4
TORSDOF 1
ENDMDL
MODEL 2
REMARK VINA RESULT:      -2.9      2.239      2.635
REMARK  Name = CadmiumAcetate.pdbqt.pdb
REMARK  1 active torsions:
REMARK  status: ('A' for Active; 'I' for Inactive)
REMARK    1  A    between atoms: C_3  and  O_4
REMARK                            x       y       z     vdW  Elec       q    Type
REMARK                         _______ _______ _______ _____ _____    ______ ____
ROOT
ATOM      1  O   UNL     1      28.991  -1.165 168.600  0.00  0.00    +0.000 OA
ATOM      2  C   UNL     1      31.008  -0.382 167.821  0.00  0.00    +0.000 C 
ATOM      3  C   UNL     1      29.777  -0.240 168.621  0.00  0.00    +0.000 C 
ENDROOT
BRANCH   3   4
ATOM      4  O   UNL     1      29.644   0.900 169.297  0.00  0.00    +0.000 OA
ATOM      5  H   UNL     1      29.477   1.549 168.589  0.00  0.00    +0.000 HD
ENDBRANCH   3   4
TORSDOF 1
ENDMDL
MODEL 3
REMARK VINA RESULT:      -2.8      1.289      1.458
REMARK  Name = CadmiumAcetate.pdbqt.pdb
REMARK  1 active torsions:
REMARK  status: ('A' for Active; 'I' for Inactive)
REMARK    1  A    between atoms: C_3  and  O_4
REMARK                            x       y       z     vdW  Elec       q    Type
REMARK                         _______ _______ _______ _____ _____    ______ ____
ROOT
ATOM      1  O   UNL     1      31.176   2.244 166.260  0.00  0.00    +0.000 OA
ATOM      2  C   UNL     1      31.197   0.157 167.226  0.00  0.00    +0.000 C 
ATOM      3  C   UNL     1      31.233   1.630 167.306  0.00  0.00    +0.000 C 
ENDROOT
BRANCH   3   4
ATOM      4  O   UNL     1      31.324   2.149 168.529  0.00  0.00    +0.000 OA
ATOM      5  H   UNL     1      30.418   2.044 168.873  0.00  0.00    +0.000 HD
ENDBRANCH   3   4
TORSDOF 1
ENDMDL
MODEL 4
REMARK VINA RESULT:      -2.8     16.400     16.908
REMARK  Name = CadmiumAcetate.pdbqt.pdb
REMARK  1 active torsions:
REMARK  status: ('A' for Active; 'I' for Inactive)
REMARK    1  A    between atoms: C_3  and  O_4
REMARK                            x       y       z     vdW  Elec       q    Type
REMARK                         _______ _______ _______ _____ _____    ______ ____
ROOT
ATOM      1  O   UNL     1      21.656   3.482 182.277  0.00  0.00    +0.000 OA
ATOM      2  C   UNL     1      22.325   5.001 183.868  0.00  0.00    +0.000 C 
ATOM      3  C   UNL     1      22.279   4.503 182.480  0.00  0.00    +0.000 C 
ENDROOT
BRANCH   3   4
ATOM      4  O   UNL     1      22.932   5.229 181.574  0.00  0.00    +0.000 OA
ATOM      5  H   UNL     1      22.684   4.797 180.736  0.00  0.00    +0.000 HD
ENDBRANCH   3   4
TORSDOF 1
ENDMDL
MODEL 5
REMARK VINA RESULT:      -2.7     18.785     19.279
REMARK  Name = CadmiumAcetate.pdbqt.pdb
REMARK  1 active torsions:
REMARK  status: ('A' for Active; 'I' for Inactive)
REMARK    1  A    between atoms: C_3  and  O_4
REMARK                            x       y       z     vdW  Elec       q    Type
REMARK                         _______ _______ _______ _____ _____    ______ ____
ROOT
ATOM      1  O   UNL     1      13.355   2.422 177.764  0.00  0.00    +0.000 OA
ATOM      2  C   UNL     1      13.394   4.587 176.992  0.00  0.00    +0.000 C 
ATOM      3  C   UNL     1      14.021   3.430 177.658  0.00  0.00    +0.000 C 
ENDROOT
BRANCH   3   4
ATOM      4  O   UNL     1      15.271   3.605 178.084  0.00  0.00    +0.000 OA
ATOM      5  H   UNL     1      15.194   4.392 178.653  0.00  0.00    +0.000 HD
ENDBRANCH   3   4
TORSDOF 1
ENDMDL
MODEL 6
REMARK VINA RESULT:      -2.7     17.190     17.693
REMARK  Name = CadmiumAcetate.pdbqt.pdb
REMARK  1 active torsions:
REMARK  status: ('A' for Active; 'I' for Inactive)
REMARK    1  A    between atoms: C_3  and  O_4
REMARK                            x       y       z     vdW  Elec       q    Type
REMARK                         _______ _______ _______ _____ _____    ______ ____
ROOT
ATOM      1  O   UNL     1      22.450   5.584 184.805  0.00  0.00    +0.000 OA
ATOM      2  C   UNL     1      22.031   4.538 182.800  0.00  0.00    +0.000 C 
ATOM      3  C   UNL     1      22.919   5.254 183.735  0.00  0.00    +0.000 C 
ENDROOT
BRANCH   3   4
ATOM      4  O   UNL     1      24.164   5.472 183.312  0.00  0.00    +0.000 OA
ATOM      5  H   UNL     1      24.423   4.601 182.958  0.00  0.00    +0.000 HD
ENDBRANCH   3   4
TORSDOF 1
ENDMDL
MODEL 7
REMARK VINA RESULT:      -2.7      1.764      1.984
REMARK  Name = CadmiumAcetate.pdbqt.pdb
REMARK  1 active torsions:
REMARK  status: ('A' for Active; 'I' for Inactive)
REMARK    1  A    between atoms: C_3  and  O_4
REMARK                            x       y       z     vdW  Elec       q    Type
REMARK                         _______ _______ _______ _____ _____    ______ ____
ROOT
ATOM      1  O   UNL     1      30.313  -0.586 168.065  0.00  0.00    +0.000 OA
ATOM      2  C   UNL     1      31.074   1.520 167.540  0.00  0.00    +0.000 C 
ATOM      3  C   UNL     1      30.317   0.583 168.391  0.00  0.00    +0.000 C 
ENDROOT
BRANCH   3   4
ATOM      4  O   UNL     1      29.703   1.115 169.448  0.00  0.00    +0.000 OA
ATOM      5  H   UNL     1      29.792   0.415 170.120  0.00  0.00    +0.000 HD
ENDBRANCH   3   4
TORSDOF 1
ENDMDL
MODEL 8
REMARK VINA RESULT:      -2.6     20.138     20.554
REMARK  Name = CadmiumAcetate.pdbqt.pdb
REMARK  1 active torsions:
REMARK  status: ('A' for Active; 'I' for Inactive)
REMARK    1  A    between atoms: C_3  and  O_4
REMARK                            x       y       z     vdW  Elec       q    Type
REMARK                         _______ _______ _______ _____ _____    ______ ____
ROOT
ATOM      1  O   UNL     1      25.574   4.499 188.166  0.00  0.00    +0.000 OA
ATOM      2  C   UNL     1      23.715   5.846 188.022  0.00  0.00    +0.000 C 
ATOM      3  C   UNL     1      25.048   5.411 187.563  0.00  0.00    +0.000 C 
ENDROOT
BRANCH   3   4
ATOM      4  O   UNL     1      25.551   6.068 186.518  0.00  0.00    +0.000 OA
ATOM      5  H   UNL     1      26.410   5.627 186.384  0.00  0.00    +0.000 HD
ENDBRANCH   3   4
TORSDOF 1
ENDMDL
MODEL 9
REMARK VINA RESULT:      -2.6     19.130     19.577
REMARK  Name = CadmiumAcetate.pdbqt.pdb
REMARK  1 active torsions:
REMARK  status: ('A' for Active; 'I' for Inactive)
REMARK    1  A    between atoms: C_3  and  O_4
REMARK                            x       y       z     vdW  Elec       q    Type
REMARK                         _______ _______ _______ _____ _____    ______ ____
ROOT
ATOM      1  O   UNL     1      21.498   3.620 184.103  0.00  0.00    +0.000 OA
ATOM      2  C   UNL     1      20.093   3.473 185.917  0.00  0.00    +0.000 C 
ATOM      3  C   UNL     1      21.404   3.289 185.266  0.00  0.00    +0.000 C 
ENDROOT
BRANCH   3   4
ATOM      4  O   UNL     1      22.369   2.773 186.026  0.00  0.00    +0.000 OA
ATOM      5  H   UNL     1      22.473   3.445 186.724  0.00  0.00    +0.000 HD
ENDBRANCH   3   4
TORSDOF 1
ENDMDL
