MODEL 1
REMARK VINA RESULT:      -7.9      0.000      0.000
REMARK  Name = Calcitriol.pdbqt.pdb
REMARK  9 active torsions:
REMARK  status: ('A' for Active; 'I' for Inactive)
REMARK    1  A    between atoms: C_2  and  C_24
REMARK    2  A    between atoms: C_7  and  C_11
REMARK    3  A    between atoms: C_12  and  C_13
REMARK    4  A    between atoms: C_16  and  O_20
REMARK    5  A    between atoms: C_18  and  O_22
REMARK    6  A    between atoms: C_24  and  C_26
REMARK    7  A    between atoms: C_27  and  C_28
REMARK    8  A    between atoms: C_28  and  C_29
REMARK    9  A    between atoms: C_29  and  O_32
REMARK                            x       y       z     vdW  Elec       q    Type
REMARK                         _______ _______ _______ _____ _____    ______ ____
ROOT
ATOM      1  C   UNL     1      23.665   2.975 191.047  0.00  0.00    +0.000 C 
ATOM      2  C   UNL     1      22.571   3.484 190.115  0.00  0.00    +0.000 C 
ATOM      3  C   UNL     1      25.026   3.489 190.325  0.00  0.00    +0.000 C 
ATOM      4  C   UNL     1      23.148   4.304 189.100  0.00  0.00    +0.000 C 
ATOM      5  C   UNL     1      24.645   4.335 189.237  0.00  0.00    +0.000 C 
ATOM      6  C   UNL     1      23.762   1.508 191.129  0.00  0.00    +0.000 C 
ATOM      7  C   UNL     1      26.202   2.616 190.227  0.00  0.00    +0.000 C 
ATOM      8  C   UNL     1      23.596   3.686 192.428  0.00  0.00    +0.000 C 
ATOM      9  C   UNL     1      24.787   0.401 190.958  0.00  0.00    +0.000 C 
ATOM     10  C   UNL     1      25.964   1.245 190.515  0.00  0.00    +0.000 C 
ENDROOT
BRANCH   7  11
ATOM     11  C   UNL     1      27.357   2.991 189.774  0.00  0.00    +0.000 C 
ATOM     12  C   UNL     1      28.730   3.430 189.251  0.00  0.00    +0.000 C 
BRANCH  12  13
ATOM     13  C   UNL     1      29.897   3.796 188.815  0.00  0.00    +0.000 A 
ATOM     14  C   UNL     1      29.988   4.652 187.670  0.00  0.00    +0.000 A 
ATOM     15  C   UNL     1      31.228   3.369 189.351  0.00  0.00    +0.000 A 
ATOM     16  C   UNL     1      31.088   5.183 186.935  0.00  0.00    +0.000 A 
ATOM     17  C   UNL     1      32.278   4.693 187.545  0.00  0.00    +0.000 A 
ATOM     18  C   UNL     1      32.475   3.846 188.673  0.00  0.00    +0.000 A 
ATOM     19  C   UNL     1      31.344   2.575 190.431  0.00  0.00    +0.000 C 
BRANCH  16  20
ATOM     20  O   UNL     1      31.024   6.418 186.358  0.00  0.00    +0.000 OA
ATOM     21  H   UNL     1      31.818   6.601 185.829  0.00  0.00    +0.000 HD
ENDBRANCH  16  20
BRANCH  18  22
ATOM     22  O   UNL     1      33.725   3.495 189.123  0.00  0.00    +0.000 OA
ATOM     23  H   UNL     1      33.651   2.942 189.925  0.00  0.00    +0.000 HD
ENDBRANCH  18  22
ENDBRANCH  12  13
ENDBRANCH   7  11
BRANCH   2  24
ATOM     24  C   UNL     1      21.167   3.310 190.319  0.00  0.00    +0.000 C 
ATOM     25  C   UNL     1      20.123   4.080 189.551  0.00  0.00    +0.000 C 
BRANCH  24  26
ATOM     26  C   UNL     1      20.674   2.527 191.398  0.00  0.00    +0.000 C 
ATOM     27  C   UNL     1      20.149   1.669 192.556  0.00  0.00    +0.000 C 
BRANCH  27  28
ATOM     28  C   UNL     1      19.629   0.799 193.708  0.00  0.00    +0.000 C 
BRANCH  28  29
ATOM     29  C   UNL     1      19.130  -0.027 194.806  0.00  0.00    +0.000 C 
ATOM     30  C   UNL     1      20.153  -1.064 195.284  0.00  0.00    +0.000 C 
ATOM     31  C   UNL     1      18.601   0.794 195.987  0.00  0.00    +0.000 C 
BRANCH  29  32
ATOM     32  O   UNL     1      18.024  -0.775 194.352  0.00  0.00    +0.000 OA
ATOM     33  H   UNL     1      17.362  -0.446 194.978  0.00  0.00    +0.000 HD
ENDBRANCH  29  32
ENDBRANCH  28  29
ENDBRANCH  27  28
ENDBRANCH  24  26
ENDBRANCH   2  24
TORSDOF 9
ENDMDL
MODEL 2
REMARK VINA RESULT:      -7.9      2.663     11.697
REMARK  Name = Calcitriol.pdbqt.pdb
REMARK  9 active torsions:
REMARK  status: ('A' for Active; 'I' for Inactive)
REMARK    1  A    between atoms: C_2  and  C_24
REMARK    2  A    between atoms: C_7  and  C_11
REMARK    3  A    between atoms: C_12  and  C_13
REMARK    4  A    between atoms: C_16  and  O_20
REMARK    5  A    between atoms: C_18  and  O_22
REMARK    6  A    between atoms: C_24  and  C_26
REMARK    7  A    between atoms: C_27  and  C_28
REMARK    8  A    between atoms: C_28  and  C_29
REMARK    9  A    between atoms: C_29  and  O_32
REMARK                            x       y       z     vdW  Elec       q    Type
REMARK                         _______ _______ _______ _____ _____    ______ ____
ROOT
ATOM      1  C   UNL     1      21.103   1.927 191.071  0.00  0.00    +0.000 C 
ATOM      2  C   UNL     1      22.193   0.995 190.549  0.00  0.00    +0.000 C 
ATOM      3  C   UNL     1      20.759   1.302 192.530  0.00  0.00    +0.000 C 
ATOM      4  C   UNL     1      22.565   0.072 191.570  0.00  0.00    +0.000 C 
ATOM      5  C   UNL     1      21.714   0.270 192.794  0.00  0.00    +0.000 C 
ATOM      6  C   UNL     1      19.852   1.895 190.295  0.00  0.00    +0.000 C 
ATOM      7  C   UNL     1      19.370   1.180 192.988  0.00  0.00    +0.000 C 
ATOM      8  C   UNL     1      21.664   3.356 191.318  0.00  0.00    +0.000 C 
ATOM      9  C   UNL     1      18.364   1.678 190.502  0.00  0.00    +0.000 C 
ATOM     10  C   UNL     1      18.383   1.349 191.980  0.00  0.00    +0.000 C 
ENDROOT
BRANCH   7  11
ATOM     11  C   UNL     1      19.021   0.805 194.179  0.00  0.00    +0.000 C 
ATOM     12  C   UNL     1      18.622   0.356 195.589  0.00  0.00    +0.000 C 
BRANCH  12  13
ATOM     13  C   UNL     1      18.293  -0.024 196.787  0.00  0.00    +0.000 A 
ATOM     14  C   UNL     1      17.296   0.705 197.513  0.00  0.00    +0.000 A 
ATOM     15  C   UNL     1      18.894  -1.153 197.565  0.00  0.00    +0.000 A 
ATOM     16  C   UNL     1      16.759   0.576 198.826  0.00  0.00    +0.000 A 
ATOM     17  C   UNL     1      17.421  -0.520 199.448  0.00  0.00    +0.000 A 
ATOM     18  C   UNL     1      18.429  -1.403 198.965  0.00  0.00    +0.000 A 
ATOM     19  C   UNL     1      19.837  -1.960 197.044  0.00  0.00    +0.000 C 
BRANCH  16  20
ATOM     20  O   UNL     1      15.455   0.880 199.090  0.00  0.00    +0.000 OA
ATOM     21  H   UNL     1      15.352   1.244 199.985  0.00  0.00    +0.000 HD
ENDBRANCH  16  20
BRANCH  18  22
ATOM     22  O   UNL     1      18.938  -2.428 199.726  0.00  0.00    +0.000 OA
ATOM     23  H   UNL     1      18.255  -3.110 199.874  0.00  0.00    +0.000 HD
ENDBRANCH  18  22
ENDBRANCH  12  13
ENDBRANCH   7  11
BRANCH   2  24
ATOM     24  C   UNL     1      22.859   1.129 189.292  0.00  0.00    +0.000 C 
ATOM     25  C   UNL     1      22.157   0.965 187.968  0.00  0.00    +0.000 C 
BRANCH  24  26
ATOM     26  C   UNL     1      24.274   1.242 189.219  0.00  0.00    +0.000 C 
ATOM     27  C   UNL     1      25.803   1.355 189.154  0.00  0.00    +0.000 C 
BRANCH  27  28
ATOM     28  C   UNL     1      27.332   1.460 189.101  0.00  0.00    +0.000 C 
BRANCH  28  29
ATOM     29  C   UNL     1      28.791   1.558 189.054  0.00  0.00    +0.000 C 
ATOM     30  C   UNL     1      29.307   2.946 189.451  0.00  0.00    +0.000 C 
ATOM     31  C   UNL     1      29.495   0.467 189.867  0.00  0.00    +0.000 C 
BRANCH  29  32
ATOM     32  O   UNL     1      29.220   1.364 187.725  0.00  0.00    +0.000 OA
ATOM     33  H   UNL     1      28.492   0.804 187.419  0.00  0.00    +0.000 HD
ENDBRANCH  29  32
ENDBRANCH  28  29
ENDBRANCH  27  28
ENDBRANCH  24  26
ENDBRANCH   2  24
TORSDOF 9
ENDMDL
MODEL 3
REMARK VINA RESULT:      -7.7      5.423     12.339
REMARK  Name = Calcitriol.pdbqt.pdb
REMARK  9 active torsions:
REMARK  status: ('A' for Active; 'I' for Inactive)
REMARK    1  A    between atoms: C_2  and  C_24
REMARK    2  A    between atoms: C_7  and  C_11
REMARK    3  A    between atoms: C_12  and  C_13
REMARK    4  A    between atoms: C_16  and  O_20
REMARK    5  A    between atoms: C_18  and  O_22
REMARK    6  A    between atoms: C_24  and  C_26
REMARK    7  A    between atoms: C_27  and  C_28
REMARK    8  A    between atoms: C_28  and  C_29
REMARK    9  A    between atoms: C_29  and  O_32
REMARK                            x       y       z     vdW  Elec       q    Type
REMARK                         _______ _______ _______ _____ _____    ______ ____
ROOT
ATOM      1  C   UNL     1      21.262   1.373 192.584  0.00  0.00    +0.000 C 
ATOM      2  C   UNL     1      22.372   0.417 192.154  0.00  0.00    +0.000 C 
ATOM      3  C   UNL     1      20.718   0.703 193.959  0.00  0.00    +0.000 C 
ATOM      4  C   UNL     1      22.580  -0.563 193.169  0.00  0.00    +0.000 C 
ATOM      5  C   UNL     1      21.592  -0.379 194.289  0.00  0.00    +0.000 C 
ATOM      6  C   UNL     1      20.116   1.429 191.662  0.00  0.00    +0.000 C 
ATOM      7  C   UNL     1      19.279   0.624 194.240  0.00  0.00    +0.000 C 
ATOM      8  C   UNL     1      21.843   2.765 192.964  0.00  0.00    +0.000 C 
ATOM      9  C   UNL     1      18.606   1.269 191.676  0.00  0.00    +0.000 C 
ATOM     10  C   UNL     1      18.431   0.878 193.129  0.00  0.00    +0.000 C 
ENDROOT
BRANCH   7  11
ATOM     11  C   UNL     1      18.772   0.214 195.360  0.00  0.00    +0.000 C 
ATOM     12  C   UNL     1      18.160  -0.266 196.681  0.00  0.00    +0.000 C 
BRANCH  12  13
ATOM     13  C   UNL     1      17.632  -0.673 197.796  0.00  0.00    +0.000 A 
ATOM     14  C   UNL     1      17.991  -1.955 198.323  0.00  0.00    +0.000 A 
ATOM     15  C   UNL     1      16.602   0.043 198.613  0.00  0.00    +0.000 A 
ATOM     16  C   UNL     1      17.568  -2.691 199.467  0.00  0.00    +0.000 A 
ATOM     17  C   UNL     1      16.592  -1.903 200.139  0.00  0.00    +0.000 A 
ATOM     18  C   UNL     1      16.060  -0.615 199.843  0.00  0.00    +0.000 A 
ATOM     19  C   UNL     1      16.151   1.267 198.283  0.00  0.00    +0.000 C 
BRANCH  16  20
ATOM     20  O   UNL     1      18.429  -3.509 200.140  0.00  0.00    +0.000 OA
ATOM     21  H   UNL     1      18.353  -4.429 199.835  0.00  0.00    +0.000 HD
ENDBRANCH  16  20
BRANCH  18  22
ATOM     22  O   UNL     1      15.120  -0.004 200.638  0.00  0.00    +0.000 OA
ATOM     23  H   UNL     1      15.122   0.960 200.483  0.00  0.00    +0.000 HD
ENDBRANCH  18  22
ENDBRANCH  12  13
ENDBRANCH   7  11
BRANCH   2  24
ATOM     24  C   UNL     1      23.192   0.575 190.995  0.00  0.00    +0.000 C 
ATOM     25  C   UNL     1      24.650   0.193 190.962  0.00  0.00    +0.000 C 
BRANCH  24  26
ATOM     26  C   UNL     1      22.723   1.280 189.853  0.00  0.00    +0.000 C 
ATOM     27  C   UNL     1      22.230   2.036 188.613  0.00  0.00    +0.000 C 
BRANCH  27  28
ATOM     28  C   UNL     1      21.751   2.791 187.367  0.00  0.00    +0.000 C 
BRANCH  28  29
ATOM     29  C   UNL     1      21.292   3.515 186.182  0.00  0.00    +0.000 C 
ATOM     30  C   UNL     1      19.784   3.371 185.943  0.00  0.00    +0.000 C 
ATOM     31  C   UNL     1      21.701   4.992 186.180  0.00  0.00    +0.000 C 
BRANCH  29  32
ATOM     32  O   UNL     1      21.907   2.960 185.040  0.00  0.00    +0.000 OA
ATOM     33  H   UNL     1      22.517   2.355 185.486  0.00  0.00    +0.000 HD
ENDBRANCH  29  32
ENDBRANCH  28  29
ENDBRANCH  27  28
ENDBRANCH  24  26
ENDBRANCH   2  24
TORSDOF 9
ENDMDL
MODEL 4
REMARK VINA RESULT:      -7.6      5.089      9.360
REMARK  Name = Calcitriol.pdbqt.pdb
REMARK  9 active torsions:
REMARK  status: ('A' for Active; 'I' for Inactive)
REMARK    1  A    between atoms: C_2  and  C_24
REMARK    2  A    between atoms: C_7  and  C_11
REMARK    3  A    between atoms: C_12  and  C_13
REMARK    4  A    between atoms: C_16  and  O_20
REMARK    5  A    between atoms: C_18  and  O_22
REMARK    6  A    between atoms: C_24  and  C_26
REMARK    7  A    between atoms: C_27  and  C_28
REMARK    8  A    between atoms: C_28  and  C_29
REMARK    9  A    between atoms: C_29  and  O_32
REMARK                            x       y       z     vdW  Elec       q    Type
REMARK                         _______ _______ _______ _____ _____    ______ ____
ROOT
ATOM      1  C   UNL     1      25.713   0.648 193.213  0.00  0.00    +0.000 C 
ATOM      2  C   UNL     1      26.268  -0.762 193.029  0.00  0.00    +0.000 C 
ATOM      3  C   UNL     1      24.358   0.625 192.319  0.00  0.00    +0.000 C 
ATOM      4  C   UNL     1      25.335  -1.553 192.295  0.00  0.00    +0.000 C 
ATOM      5  C   UNL     1      24.152  -0.721 191.881  0.00  0.00    +0.000 C 
ATOM      6  C   UNL     1      26.563   1.714 192.658  0.00  0.00    +0.000 C 
ATOM      7  C   UNL     1      24.003   1.761 191.460  0.00  0.00    +0.000 C 
ATOM      8  C   UNL     1      25.273   0.886 194.685  0.00  0.00    +0.000 C 
ATOM      9  C   UNL     1      26.475   2.888 191.699  0.00  0.00    +0.000 C 
ATOM     10  C   UNL     1      25.044   2.701 191.239  0.00  0.00    +0.000 C 
ENDROOT
BRANCH   7  11
ATOM     11  C   UNL     1      22.886   1.868 190.811  0.00  0.00    +0.000 C 
ATOM     12  C   UNL     1      21.572   1.994 190.031  0.00  0.00    +0.000 C 
BRANCH  12  13
ATOM     13  C   UNL     1      20.463   2.097 189.363  0.00  0.00    +0.000 A 
ATOM     14  C   UNL     1      20.429   2.872 188.160  0.00  0.00    +0.000 A 
ATOM     15  C   UNL     1      19.133   1.522 189.742  0.00  0.00    +0.000 A 
ATOM     16  C   UNL     1      19.389   3.210 187.247  0.00  0.00    +0.000 A 
ATOM     17  C   UNL     1      18.192   2.610 187.730  0.00  0.00    +0.000 A 
ATOM     18  C   UNL     1      17.944   1.801 188.876  0.00  0.00    +0.000 A 
ATOM     19  C   UNL     1      18.970   0.753 190.834  0.00  0.00    +0.000 C 
BRANCH  16  20
ATOM     20  O   UNL     1      19.638   3.359 185.913  0.00  0.00    +0.000 OA
ATOM     21  H   UNL     1      19.109   4.082 185.535  0.00  0.00    +0.000 HD
ENDBRANCH  16  20
BRANCH  18  22
ATOM     22  O   UNL     1      16.700   1.295 189.168  0.00  0.00    +0.000 OA
ATOM     23  H   UNL     1      16.346   1.714 189.976  0.00  0.00    +0.000 HD
ENDBRANCH  18  22
ENDBRANCH  12  13
ENDBRANCH   7  11
BRANCH   2  24
ATOM     24  C   UNL     1      27.458  -1.265 193.639  0.00  0.00    +0.000 C 
ATOM     25  C   UNL     1      28.840  -0.936 193.137  0.00  0.00    +0.000 C 
BRANCH  24  26
ATOM     26  C   UNL     1      27.399  -2.263 194.650  0.00  0.00    +0.000 C 
ATOM     27  C   UNL     1      27.321  -3.336 195.743  0.00  0.00    +0.000 C 
BRANCH  27  28
ATOM     28  C   UNL     1      27.229  -4.406 196.838  0.00  0.00    +0.000 C 
BRANCH  28  29
ATOM     29  C   UNL     1      27.139  -5.423 197.885  0.00  0.00    +0.000 C 
ATOM     30  C   UNL     1      28.393  -5.484 198.765  0.00  0.00    +0.000 C 
ATOM     31  C   UNL     1      25.880  -5.291 198.749  0.00  0.00    +0.000 C 
BRANCH  29  32
ATOM     32  O   UNL     1      27.042  -6.694 197.282  0.00  0.00    +0.000 OA
ATOM     33  H   UNL     1      27.752  -6.598 196.631  0.00  0.00    +0.000 HD
ENDBRANCH  29  32
ENDBRANCH  28  29
ENDBRANCH  27  28
ENDBRANCH  24  26
ENDBRANCH   2  24
TORSDOF 9
ENDMDL
MODEL 5
REMARK VINA RESULT:      -7.4     27.630     29.637
REMARK  Name = Calcitriol.pdbqt.pdb
REMARK  9 active torsions:
REMARK  status: ('A' for Active; 'I' for Inactive)
REMARK    1  A    between atoms: C_2  and  C_24
REMARK    2  A    between atoms: C_7  and  C_11
REMARK    3  A    between atoms: C_12  and  C_13
REMARK    4  A    between atoms: C_16  and  O_20
REMARK    5  A    between atoms: C_18  and  O_22
REMARK    6  A    between atoms: C_24  and  C_26
REMARK    7  A    between atoms: C_27  and  C_28
REMARK    8  A    between atoms: C_28  and  C_29
REMARK    9  A    between atoms: C_29  and  O_32
REMARK                            x       y       z     vdW  Elec       q    Type
REMARK                         _______ _______ _______ _____ _____    ______ ____
ROOT
ATOM      1  C   UNL     1      13.680 -19.036 176.592  0.00  0.00    +0.000 C 
ATOM      2  C   UNL     1      14.733 -18.566 177.592  0.00  0.00    +0.000 C 
ATOM      3  C   UNL     1      14.562 -19.831 175.484  0.00  0.00    +0.000 C 
ATOM      4  C   UNL     1      16.003 -19.117 177.248  0.00  0.00    +0.000 C 
ATOM      5  C   UNL     1      15.902 -19.915 175.976  0.00  0.00    +0.000 C 
ATOM      6  C   UNL     1      12.990 -17.949 175.878  0.00  0.00    +0.000 C 
ATOM      7  C   UNL     1      14.293 -19.668 174.050  0.00  0.00    +0.000 C 
ATOM      8  C   UNL     1      12.727 -20.080 177.238  0.00  0.00    +0.000 C 
ATOM      9  C   UNL     1      12.687 -17.501 174.460  0.00  0.00    +0.000 C 
ATOM     10  C   UNL     1      13.453 -18.573 173.712  0.00  0.00    +0.000 C 
ENDROOT
BRANCH   7  11
ATOM     11  C   UNL     1      14.869 -20.354 173.114  0.00  0.00    +0.000 C 
ATOM     12  C   UNL     1      15.563 -21.168 172.015  0.00  0.00    +0.000 C 
BRANCH  12  13
ATOM     13  C   UNL     1      16.156 -21.861 171.090  0.00  0.00    +0.000 A 
ATOM     14  C   UNL     1      17.556 -22.143 171.204  0.00  0.00    +0.000 A 
ATOM     15  C   UNL     1      15.541 -22.382 169.828  0.00  0.00    +0.000 A 
ATOM     16  C   UNL     1      18.485 -22.818 170.361  0.00  0.00    +0.000 A 
ATOM     17  C   UNL     1      17.772 -23.249 169.206  0.00  0.00    +0.000 A 
ATOM     18  C   UNL     1      16.402 -23.108 168.843  0.00  0.00    +0.000 A 
ATOM     19  C   UNL     1      14.233 -22.225 169.552  0.00  0.00    +0.000 C 
BRANCH  16  20
ATOM     20  O   UNL     1      19.521 -23.537 170.883  0.00  0.00    +0.000 OA
ATOM     21  H   UNL     1      20.270 -22.960 171.111  0.00  0.00    +0.000 HD
ENDBRANCH  16  20
BRANCH  18  22
ATOM     22  O   UNL     1      15.893 -23.616 167.672  0.00  0.00    +0.000 OA
ATOM     23  H   UNL     1      16.320 -23.189 166.905  0.00  0.00    +0.000 HD
ENDBRANCH  18  22
ENDBRANCH  12  13
ENDBRANCH   7  11
BRANCH   2  24
ATOM     24  C   UNL     1      14.464 -17.827 178.785  0.00  0.00    +0.000 C 
ATOM     25  C   UNL     1      14.343 -18.472 180.142  0.00  0.00    +0.000 C 
BRANCH  24  26
ATOM     26  C   UNL     1      14.108 -16.451 178.733  0.00  0.00    +0.000 C 
ATOM     27  C   UNL     1      13.731 -14.967 178.661  0.00  0.00    +0.000 C 
BRANCH  27  28
ATOM     28  C   UNL     1      13.359 -13.481 178.576  0.00  0.00    +0.000 C 
BRANCH  28  29
ATOM     29  C   UNL     1      13.009 -12.063 178.495  0.00  0.00    +0.000 C 
ATOM     30  C   UNL     1      11.937 -11.775 177.436  0.00  0.00    +0.000 C 
ATOM     31  C   UNL     1      12.608 -11.461 179.846  0.00  0.00    +0.000 C 
BRANCH  29  32
ATOM     32  O   UNL     1      14.144 -11.333 178.087  0.00  0.00    +0.000 OA
ATOM     33  H   UNL     1      14.482 -11.953 177.423  0.00  0.00    +0.000 HD
ENDBRANCH  29  32
ENDBRANCH  28  29
ENDBRANCH  27  28
ENDBRANCH  24  26
ENDBRANCH   2  24
TORSDOF 9
ENDMDL
MODEL 6
REMARK VINA RESULT:      -7.4      4.535      6.859
REMARK  Name = Calcitriol.pdbqt.pdb
REMARK  9 active torsions:
REMARK  status: ('A' for Active; 'I' for Inactive)
REMARK    1  A    between atoms: C_2  and  C_24
REMARK    2  A    between atoms: C_7  and  C_11
REMARK    3  A    between atoms: C_12  and  C_13
REMARK    4  A    between atoms: C_16  and  O_20
REMARK    5  A    between atoms: C_18  and  O_22
REMARK    6  A    between atoms: C_24  and  C_26
REMARK    7  A    between atoms: C_27  and  C_28
REMARK    8  A    between atoms: C_28  and  C_29
REMARK    9  A    between atoms: C_29  and  O_32
REMARK                            x       y       z     vdW  Elec       q    Type
REMARK                         _______ _______ _______ _____ _____    ______ ____
ROOT
ATOM      1  C   UNL     1      20.816  -0.213 193.307  0.00  0.00    +0.000 C 
ATOM      2  C   UNL     1      21.672   0.041 194.545  0.00  0.00    +0.000 C 
ATOM      3  C   UNL     1      21.560   0.668 192.164  0.00  0.00    +0.000 C 
ATOM      4  C   UNL     1      22.823   0.802 194.185  0.00  0.00    +0.000 C 
ATOM      5  C   UNL     1      22.778   1.166 192.726  0.00  0.00    +0.000 C 
ATOM      6  C   UNL     1      19.440   0.299 193.403  0.00  0.00    +0.000 C 
ATOM      7  C   UNL     1      20.786   1.471 191.210  0.00  0.00    +0.000 C 
ATOM      8  C   UNL     1      20.913  -1.699 192.859  0.00  0.00    +0.000 C 
ATOM      9  C   UNL     1      18.482   1.202 192.646  0.00  0.00    +0.000 C 
ATOM     10  C   UNL     1      19.419   1.657 191.545  0.00  0.00    +0.000 C 
ENDROOT
BRANCH   7  11
ATOM     11  C   UNL     1      21.297   2.103 190.200  0.00  0.00    +0.000 C 
ATOM     12  C   UNL     1      21.888   2.857 189.003  0.00  0.00    +0.000 C 
BRANCH  12  13
ATOM     13  C   UNL     1      22.381   3.501 187.989  0.00  0.00    +0.000 A 
ATOM     14  C   UNL     1      21.806   3.325 186.690  0.00  0.00    +0.000 A 
ATOM     15  C   UNL     1      23.572   4.409 187.998  0.00  0.00    +0.000 A 
ATOM     16  C   UNL     1      22.134   3.837 185.401  0.00  0.00    +0.000 A 
ATOM     17  C   UNL     1      23.278   4.669 185.556  0.00  0.00    +0.000 A 
ATOM     18  C   UNL     1      24.037   5.016 186.712  0.00  0.00    +0.000 A 
ATOM     19  C   UNL     1      24.237   4.705 189.130  0.00  0.00    +0.000 C 
BRANCH  16  20
ATOM     20  O   UNL     1      21.165   4.102 184.476  0.00  0.00    +0.000 OA
ATOM     21  H   UNL     1      20.583   3.335 184.346  0.00  0.00    +0.000 HD
ENDBRANCH  16  20
BRANCH  18  22
ATOM     22  O   UNL     1      25.118   5.862 186.658  0.00  0.00    +0.000 OA
ATOM     23  H   UNL     1      25.888   5.455 187.100  0.00  0.00    +0.000 HD
ENDBRANCH  18  22
ENDBRANCH  12  13
ENDBRANCH   7  11
BRANCH   2  24
ATOM     24  C   UNL     1      21.447  -0.534 195.834  0.00  0.00    +0.000 C 
ATOM     25  C   UNL     1      22.370  -1.555 196.450  0.00  0.00    +0.000 C 
BRANCH  24  26
ATOM     26  C   UNL     1      20.231  -0.312 196.536  0.00  0.00    +0.000 C 
ATOM     27  C   UNL     1      18.911  -0.069 197.278  0.00  0.00    +0.000 C 
BRANCH  27  28
ATOM     28  C   UNL     1      17.586   0.179 198.010  0.00  0.00    +0.000 C 
BRANCH  28  29
ATOM     29  C   UNL     1      16.323   0.412 198.709  0.00  0.00    +0.000 C 
ATOM     30  C   UNL     1      15.260  -0.645 198.386  0.00  0.00    +0.000 C 
ATOM     31  C   UNL     1      16.491   0.563 200.225  0.00  0.00    +0.000 C 
BRANCH  29  32
ATOM     32  O   UNL     1      15.777   1.637 198.274  0.00  0.00    +0.000 OA
ATOM     33  H   UNL     1      15.393   1.334 197.438  0.00  0.00    +0.000 HD
ENDBRANCH  29  32
ENDBRANCH  28  29
ENDBRANCH  27  28
ENDBRANCH  24  26
ENDBRANCH   2  24
TORSDOF 9
ENDMDL
MODEL 7
REMARK VINA RESULT:      -7.2      3.347      4.939
REMARK  Name = Calcitriol.pdbqt.pdb
REMARK  9 active torsions:
REMARK  status: ('A' for Active; 'I' for Inactive)
REMARK    1  A    between atoms: C_2  and  C_24
REMARK    2  A    between atoms: C_7  and  C_11
REMARK    3  A    between atoms: C_12  and  C_13
REMARK    4  A    between atoms: C_16  and  O_20
REMARK    5  A    between atoms: C_18  and  O_22
REMARK    6  A    between atoms: C_24  and  C_26
REMARK    7  A    between atoms: C_27  and  C_28
REMARK    8  A    between atoms: C_28  and  C_29
REMARK    9  A    between atoms: C_29  and  O_32
REMARK                            x       y       z     vdW  Elec       q    Type
REMARK                         _______ _______ _______ _____ _____    ______ ____
ROOT
ATOM      1  C   UNL     1      25.578   0.430 192.237  0.00  0.00    +0.000 C 
ATOM      2  C   UNL     1      24.617   0.291 191.060  0.00  0.00    +0.000 C 
ATOM      3  C   UNL     1      27.009   0.679 191.511  0.00  0.00    +0.000 C 
ATOM      4  C   UNL     1      25.306   0.573 189.843  0.00  0.00    +0.000 C 
ATOM      5  C   UNL     1      26.762   0.838 190.112  0.00  0.00    +0.000 C 
ATOM      6  C   UNL     1      25.726  -0.789 193.049  0.00  0.00    +0.000 C 
ATOM      7  C   UNL     1      28.224   0.010 191.992  0.00  0.00    +0.000 C 
ATOM      8  C   UNL     1      25.267   1.711 193.062  0.00  0.00    +0.000 C 
ATOM      9  C   UNL     1      26.813  -1.713 193.568  0.00  0.00    +0.000 C 
ATOM     10  C   UNL     1      28.006  -1.063 192.897  0.00  0.00    +0.000 C 
ENDROOT
BRANCH   7  11
ATOM     11  C   UNL     1      29.417   0.246 191.545  0.00  0.00    +0.000 C 
ATOM     12  C   UNL     1      30.825   0.540 191.013  0.00  0.00    +0.000 C 
BRANCH  12  13
ATOM     13  C   UNL     1      32.016   0.798 190.564  0.00  0.00    +0.000 A 
ATOM     14  C   UNL     1      32.213   1.897 189.668  0.00  0.00    +0.000 A 
ATOM     15  C   UNL     1      33.264   0.017 190.837  0.00  0.00    +0.000 A 
ATOM     16  C   UNL     1      33.355   2.401 188.980  0.00  0.00    +0.000 A 
ATOM     17  C   UNL     1      34.456   1.566 189.322  0.00  0.00    +0.000 A 
ATOM     18  C   UNL     1      34.542   0.429 190.176  0.00  0.00    +0.000 A 
ATOM     19  C   UNL     1      33.278  -1.043 191.667  0.00  0.00    +0.000 C 
BRANCH  16  20
ATOM     20  O   UNL     1      33.504   3.736 188.740  0.00  0.00    +0.000 OA
ATOM     21  H   UNL     1      32.956   4.266 189.342  0.00  0.00    +0.000 HD
ENDBRANCH  16  20
BRANCH  18  22
ATOM     22  O   UNL     1      35.720  -0.244 190.394  0.00  0.00    +0.000 OA
ATOM     23  H   UNL     1      36.131   0.056 191.228  0.00  0.00    +0.000 HD
ENDBRANCH  18  22
ENDBRANCH  12  13
ENDBRANCH   7  11
BRANCH   2  24
ATOM     24  C   UNL     1      23.209   0.078 191.166  0.00  0.00    +0.000 C 
ATOM     25  C   UNL     1      22.605  -1.035 191.983  0.00  0.00    +0.000 C 
BRANCH  24  26
ATOM     26  C   UNL     1      22.293   0.799 190.352  0.00  0.00    +0.000 C 
ATOM     27  C   UNL     1      21.318   1.578 189.460  0.00  0.00    +0.000 C 
BRANCH  27  28
ATOM     28  C   UNL     1      20.352   2.359 188.560  0.00  0.00    +0.000 C 
BRANCH  28  29
ATOM     29  C   UNL     1      19.433   3.107 187.703  0.00  0.00    +0.000 C 
ATOM     30  C   UNL     1      19.896   3.166 186.242  0.00  0.00    +0.000 C 
ATOM     31  C   UNL     1      17.986   2.610 187.791  0.00  0.00    +0.000 C 
BRANCH  29  32
ATOM     32  O   UNL     1      19.390   4.448 188.137  0.00  0.00    +0.000 OA
ATOM     33  H   UNL     1      18.516   4.436 188.553  0.00  0.00    +0.000 HD
ENDBRANCH  29  32
ENDBRANCH  28  29
ENDBRANCH  27  28
ENDBRANCH  24  26
ENDBRANCH   2  24
TORSDOF 9
ENDMDL
MODEL 8
REMARK VINA RESULT:      -7.2     26.185     29.822
REMARK  Name = Calcitriol.pdbqt.pdb
REMARK  9 active torsions:
REMARK  status: ('A' for Active; 'I' for Inactive)
REMARK    1  A    between atoms: C_2  and  C_24
REMARK    2  A    between atoms: C_7  and  C_11
REMARK    3  A    between atoms: C_12  and  C_13
REMARK    4  A    between atoms: C_16  and  O_20
REMARK    5  A    between atoms: C_18  and  O_22
REMARK    6  A    between atoms: C_24  and  C_26
REMARK    7  A    between atoms: C_27  and  C_28
REMARK    8  A    between atoms: C_28  and  C_29
REMARK    9  A    between atoms: C_29  and  O_32
REMARK                            x       y       z     vdW  Elec       q    Type
REMARK                         _______ _______ _______ _____ _____    ______ ____
ROOT
ATOM      1  C   UNL     1      34.511  -8.741 163.793  0.00  0.00    +0.000 C 
ATOM      2  C   UNL     1      33.499  -7.652 164.137  0.00  0.00    +0.000 C 
ATOM      3  C   UNL     1      35.852  -8.248 164.565  0.00  0.00    +0.000 C 
ATOM      4  C   UNL     1      34.068  -6.750 165.084  0.00  0.00    +0.000 C 
ATOM      5  C   UNL     1      35.497  -7.122 165.372  0.00  0.00    +0.000 C 
ATOM      6  C   UNL     1      34.855  -8.822 162.364  0.00  0.00    +0.000 C 
ATOM      7  C   UNL     1      37.166  -8.328 163.917  0.00  0.00    +0.000 C 
ATOM      8  C   UNL     1      34.103 -10.100 164.428  0.00  0.00    +0.000 C 
ATOM      9  C   UNL     1      36.076  -8.804 161.461  0.00  0.00    +0.000 C 
ATOM     10  C   UNL     1      37.137  -8.561 162.516  0.00  0.00    +0.000 C 
ENDROOT
BRANCH   7  11
ATOM     11  C   UNL     1      38.291  -8.068 164.506  0.00  0.00    +0.000 C 
ATOM     12  C   UNL     1      39.615  -7.751 165.212  0.00  0.00    +0.000 C 
BRANCH  12  13
ATOM     13  C   UNL     1      40.731  -7.481 165.818  0.00  0.00    +0.000 A 
ATOM     14  C   UNL     1      40.779  -6.412 166.770  0.00  0.00    +0.000 A 
ATOM     15  C   UNL     1      42.055  -8.143 165.594  0.00  0.00    +0.000 A 
ATOM     16  C   UNL     1      41.830  -5.848 167.549  0.00  0.00    +0.000 A 
ATOM     17  C   UNL     1      43.021  -6.563 167.233  0.00  0.00    +0.000 A 
ATOM     18  C   UNL     1      43.253  -7.650 166.342  0.00  0.00    +0.000 A 
ATOM     19  C   UNL     1      42.203  -9.177 164.745  0.00  0.00    +0.000 C 
BRANCH  16  20
ATOM     20  O   UNL     1      41.596  -5.347 168.797  0.00  0.00    +0.000 OA
ATOM     21  H   UNL     1      40.652  -5.159 168.930  0.00  0.00    +0.000 HD
ENDBRANCH  16  20
BRANCH  18  22
ATOM     22  O   UNL     1      44.493  -8.223 166.185  0.00  0.00    +0.000 OA
ATOM     23  H   UNL     1      45.150  -7.544 165.940  0.00  0.00    +0.000 HD
ENDBRANCH  18  22
ENDBRANCH  12  13
ENDBRANCH   7  11
BRANCH   2  24
ATOM     24  C   UNL     1      32.135  -7.629 163.711  0.00  0.00    +0.000 C 
ATOM     25  C   UNL     1      31.556  -8.641 162.756  0.00  0.00    +0.000 C 
BRANCH  24  26
ATOM     26  C   UNL     1      31.286  -6.532 164.022  0.00  0.00    +0.000 C 
ATOM     27  C   UNL     1      30.379  -5.339 164.346  0.00  0.00    +0.000 C 
BRANCH  27  28
ATOM     28  C   UNL     1      29.479  -4.137 164.661  0.00  0.00    +0.000 C 
BRANCH  28  29
ATOM     29  C   UNL     1      28.623  -2.991 164.966  0.00  0.00    +0.000 C 
ATOM     30  C   UNL     1      29.322  -1.942 165.840  0.00  0.00    +0.000 C 
ATOM     31  C   UNL     1      28.021  -2.338 163.717  0.00  0.00    +0.000 C 
BRANCH  29  32
ATOM     32  O   UNL     1      27.518  -3.432 165.722  0.00  0.00    +0.000 OA
ATOM     33  H   UNL     1      26.887  -3.550 164.997  0.00  0.00    +0.000 HD
ENDBRANCH  29  32
ENDBRANCH  28  29
ENDBRANCH  27  28
ENDBRANCH  24  26
ENDBRANCH   2  24
TORSDOF 9
ENDMDL
MODEL 9
REMARK VINA RESULT:      -7.2      6.958     10.108
REMARK  Name = Calcitriol.pdbqt.pdb
REMARK  9 active torsions:
REMARK  status: ('A' for Active; 'I' for Inactive)
REMARK    1  A    between atoms: C_2  and  C_24
REMARK    2  A    between atoms: C_7  and  C_11
REMARK    3  A    between atoms: C_12  and  C_13
REMARK    4  A    between atoms: C_16  and  O_20
REMARK    5  A    between atoms: C_18  and  O_22
REMARK    6  A    between atoms: C_24  and  C_26
REMARK    7  A    between atoms: C_27  and  C_28
REMARK    8  A    between atoms: C_28  and  C_29
REMARK    9  A    between atoms: C_29  and  O_32
REMARK                            x       y       z     vdW  Elec       q    Type
REMARK                         _______ _______ _______ _____ _____    ______ ____
ROOT
ATOM      1  C   UNL     1      21.237  -0.691 196.352  0.00  0.00    +0.000 C 
ATOM      2  C   UNL     1      22.576  -0.233 196.923  0.00  0.00    +0.000 C 
ATOM      3  C   UNL     1      21.184   0.054 194.910  0.00  0.00    +0.000 C 
ATOM      4  C   UNL     1      23.286   0.518 195.940  0.00  0.00    +0.000 C 
ATOM      5  C   UNL     1      22.456   0.674 194.696  0.00  0.00    +0.000 C 
ATOM      6  C   UNL     1      20.062  -0.227 197.107  0.00  0.00    +0.000 C 
ATOM      7  C   UNL     1      19.947   0.684 194.432  0.00  0.00    +0.000 C 
ATOM      8  C   UNL     1      21.248  -2.219 196.065  0.00  0.00    +0.000 C 
ATOM      9  C   UNL     1      18.760   0.522 196.883  0.00  0.00    +0.000 C 
ATOM     10  C   UNL     1      18.939   0.859 195.417  0.00  0.00    +0.000 C 
ENDROOT
BRANCH   7  11
ATOM     11  C   UNL     1      19.792   1.192 193.250  0.00  0.00    +0.000 C 
ATOM     12  C   UNL     1      19.598   1.801 191.856  0.00  0.00    +0.000 C 
BRANCH  12  13
ATOM     13  C   UNL     1      19.430   2.324 190.680  0.00  0.00    +0.000 A 
ATOM     14  C   UNL     1      20.216   3.455 190.289  0.00  0.00    +0.000 A 
ATOM     15  C   UNL     1      18.428   1.906 189.649  0.00  0.00    +0.000 A 
ATOM     16  C   UNL     1      20.240   4.267 189.118  0.00  0.00    +0.000 A 
ATOM     17  C   UNL     1      19.241   3.766 188.236  0.00  0.00    +0.000 A 
ATOM     18  C   UNL     1      18.336   2.674 188.367  0.00  0.00    +0.000 A 
ATOM     19  C   UNL     1      17.609   0.854 189.831  0.00  0.00    +0.000 C 
BRANCH  16  20
ATOM     20  O   UNL     1      21.403   4.814 188.659  0.00  0.00    +0.000 OA
ATOM     21  H   UNL     1      21.371   5.785 188.686  0.00  0.00    +0.000 HD
ENDBRANCH  16  20
BRANCH  18  22
ATOM     22  O   UNL     1      17.442   2.333 187.381  0.00  0.00    +0.000 OA
ATOM     23  H   UNL     1      17.692   2.757 186.537  0.00  0.00    +0.000 HD
ENDBRANCH  18  22
ENDBRANCH  12  13
ENDBRANCH   7  11
BRANCH   2  24
ATOM     24  C   UNL     1      23.112  -0.633 198.186  0.00  0.00    +0.000 C 
ATOM     25  C   UNL     1      23.024   0.222 199.424  0.00  0.00    +0.000 C 
BRANCH  24  26
ATOM     26  C   UNL     1      23.932  -1.789 198.303  0.00  0.00    +0.000 C 
ATOM     27  C   UNL     1      24.803  -3.044 198.437  0.00  0.00    +0.000 C 
BRANCH  27  28
ATOM     28  C   UNL     1      25.665  -4.305 198.580  0.00  0.00    +0.000 C 
BRANCH  28  29
ATOM     29  C   UNL     1      26.484  -5.509 198.713  0.00  0.00    +0.000 C 
ATOM     30  C   UNL     1      25.776  -6.629 199.485  0.00  0.00    +0.000 C 
ATOM     31  C   UNL     1      27.015  -6.029 197.373  0.00  0.00    +0.000 C 
BRANCH  29  32
ATOM     32  O   UNL     1      27.633  -5.200 199.471  0.00  0.00    +0.000 OA
ATOM     33  H   UNL     1      28.129  -4.722 198.790  0.00  0.00    +0.000 HD
ENDBRANCH  29  32
ENDBRANCH  28  29
ENDBRANCH  27  28
ENDBRANCH  24  26
ENDBRANCH   2  24
TORSDOF 9
ENDMDL
