MODEL 1
REMARK VINA RESULT:      -9.6      0.000      0.000
REMARK  Name = 
REMARK  17 active torsions:
REMARK  status: ('A' for Active; 'I' for Inactive)
REMARK    1  A    between atoms: O_1  and  C_14
REMARK    2  A    between atoms: O_2  and  C_32
REMARK    3  A    between atoms: O_2  and  C_36
REMARK    4  A    between atoms: O_6  and  C_39
REMARK    5  A    between atoms: O_7  and  C_41
REMARK    6  A    between atoms: O_7  and  C_43
REMARK    7  A    between atoms: O_9  and  C_47
REMARK    8  A    between atoms: O_9  and  C_49
REMARK    9  A    between atoms: O_10  and  C_45
REMARK   10  A    between atoms: O_12  and  C_51
REMARK   11  A    between atoms: O_13  and  C_53
REMARK   12  A    between atoms: C_17  and  C_29
REMARK   13  A    between atoms: C_18  and  C_30
REMARK   14  A    between atoms: C_22  and  C_33
REMARK   15  A    between atoms: C_40  and  C_42
REMARK   16  A    between atoms: C_46  and  C_48
REMARK   17  A    between atoms: C_52  and  C_54
REMARK                            x       y       z     vdW  Elec       q    Type
REMARK                         _______ _______ _______ _____ _____    ______ ____
ROOT
ATOM      1  O   UNL     1      38.993   5.693 169.001  0.00  0.00    +0.000 OA
ATOM      2  C   UNL     1      38.362   6.366 170.087  0.00  0.00    +0.000 C 
ATOM      3  C   UNL     1      37.192   7.240 169.630  0.00  0.00    +0.000 C 
ATOM      4  C   UNL     1      36.843   6.985 168.172  0.00  0.00    +0.000 C 
ATOM      5  C   UNL     1      38.112   4.781 168.334  0.00  0.00    +0.000 C 
ATOM      6  C   UNL     1      36.855   5.493 167.779  0.00  0.00    +0.000 C 
ATOM      7  C   UNL     1      38.919   4.132 167.210  0.00  0.00    +0.000 C 
ENDROOT
BRANCH   4   8
ATOM      8  O   UNL     1      35.649   7.659 167.792  0.00  0.00    +0.000 OA
ATOM      9  H   UNL     1      35.478   7.413 166.859  0.00  0.00    +0.000 HD
ENDBRANCH   4   8
BRANCH   2  10
ATOM     10  O   UNL     1      39.293   7.118 170.866  0.00  0.00    +0.000 OA
BRANCH  10  29
ATOM     11  C   UNL     1      43.913   2.695 175.298  0.00  0.00    +0.000 C 
ATOM     12  C   UNL     1      42.943   3.538 174.427  0.00  0.00    +0.000 C 
ATOM     13  C   UNL     1      41.922   4.360 175.255  0.00  0.00    +0.000 C 
ATOM     14  C   UNL     1      44.584   3.488 176.456  0.00  0.00    +0.000 C 
ATOM     15  C   UNL     1      40.938   5.222 174.363  0.00  0.00    +0.000 C 
ATOM     16  C   UNL     1      40.309   4.329 173.243  0.00  0.00    +0.000 C 
ATOM     17  C   UNL     1      42.662   5.181 176.332  0.00  0.00    +0.000 C 
ATOM     18  C   UNL     1      43.523   4.299 177.237  0.00  0.00    +0.000 C 
ATOM     19  C   UNL     1      45.184   2.327 177.312  0.00  0.00    +0.000 C 
ATOM     20  C   UNL     1      42.217   2.665 173.392  0.00  0.00    +0.000 C 
ATOM     21  C   UNL     1      43.264   1.492 176.006  0.00  0.00    +0.000 C 
ATOM     22  C   UNL     1      41.358   3.513 172.467  0.00  0.00    +0.000 C 
ATOM     23  C   UNL     1      44.101   1.230 177.264  0.00  0.00    +0.000 C 
ATOM     24  C   UNL     1      41.652   6.444 173.720  0.00  0.00    +0.000 C 
ATOM     25  C   UNL     1      39.454   5.138 172.246  0.00  0.00    +0.000 C 
ATOM     26  C   UNL     1      45.692   4.436 175.953  0.00  0.00    +0.000 C 
ATOM     27  C   UNL     1      39.796   5.743 175.281  0.00  0.00    +0.000 C 
ATOM     28  C   UNL     1      40.777   7.220 172.736  0.00  0.00    +0.000 C 
ATOM     29  C   UNL     1      40.204   6.327 171.637  0.00  0.00    +0.000 C 
BRANCH  19  32
ATOM     30  O   UNL     1      47.214   3.260 180.314  0.00  0.00    +0.000 OA
ATOM     31  O   UNL     1      45.750   3.109 182.077  0.00  0.00    +0.000 OA
ATOM     32  C   UNL     1      45.689   2.678 178.686  0.00  0.00    +0.000 C 
ATOM     33  C   UNL     1      47.107   3.061 178.906  0.00  0.00    +0.000 C 
ATOM     34  C   UNL     1      45.049   2.642 179.855  0.00  0.00    +0.000 C 
ATOM     35  C   UNL     1      46.007   3.023 180.890  0.00  0.00    +0.000 C 
ENDBRANCH  19  32
BRANCH  11  36
ATOM     36  O   UNL     1      44.932   2.143 174.447  0.00  0.00    +0.000 OA
ATOM     37  H   UNL     1      45.686   2.757 174.428  0.00  0.00    +0.000 HD
ENDBRANCH  11  36
ENDBRANCH  10  29
ENDBRANCH   2  10
BRANCH   6  38
ATOM     38  O   UNL     1      35.674   4.699 167.923  0.00  0.00    +0.000 OA
BRANCH  38  40
ATOM     39  O   UNL     1      35.908   2.808 166.507  0.00  0.00    +0.000 OA
ATOM     40  C   UNL     1      35.090   3.902 166.902  0.00  0.00    +0.000 C 
ATOM     41  C   UNL     1      34.549   4.662 165.695  0.00  0.00    +0.000 C 
ATOM     42  C   UNL     1      34.645   3.852 164.405  0.00  0.00    +0.000 C 
ATOM     43  C   UNL     1      35.131   1.791 165.846  0.00  0.00    +0.000 C 
ATOM     44  C   UNL     1      34.432   2.334 164.573  0.00  0.00    +0.000 C 
ATOM     45  C   UNL     1      36.093   0.657 165.504  0.00  0.00    +0.000 C 
BRANCH  42  46
ATOM     46  O   UNL     1      33.801   4.403 163.396  0.00  0.00    +0.000 OA
ATOM     47  H   UNL     1      33.391   5.212 163.749  0.00  0.00    +0.000 HD
ENDBRANCH  42  46
BRANCH  44  48
ATOM     48  O   UNL     1      33.099   1.826 164.443  0.00  0.00    +0.000 OA
BRANCH  48  50
ATOM     49  O   UNL     1      31.588   0.093 164.922  0.00  0.00    +0.000 OA
ATOM     50  C   UNL     1      32.596   0.951 165.445  0.00  0.00    +0.000 C 
ATOM     51  C   UNL     1      31.982   1.837 166.534  0.00  0.00    +0.000 C 
ATOM     52  C   UNL     1      30.844   1.139 167.275  0.00  0.00    +0.000 C 
ATOM     53  C   UNL     1      31.171  -0.917 165.859  0.00  0.00    +0.000 C 
ATOM     54  C   UNL     1      31.046  -0.377 167.295  0.00  0.00    +0.000 C 
ATOM     55  C   UNL     1      29.835  -1.444 165.346  0.00  0.00    +0.000 C 
BRANCH  52  56
ATOM     56  O   UNL     1      30.804   1.626 168.622  0.00  0.00    +0.000 OA
ATOM     57  H   UNL     1      31.154   0.922 169.198  0.00  0.00    +0.000 HD
ENDBRANCH  52  56
BRANCH  54  58
ATOM     58  O   UNL     1      32.261  -0.659 168.012  0.00  0.00    +0.000 OA
ATOM     59  H   UNL     1      32.489   0.169 168.484  0.00  0.00    +0.000 HD
ENDBRANCH  54  58
ENDBRANCH  48  50
ENDBRANCH  44  48
ENDBRANCH  38  40
ENDBRANCH   6  38
TORSDOF 12
ENDMDL
MODEL 2
REMARK VINA RESULT:      -9.2     31.407     35.107
REMARK  Name = 
REMARK  17 active torsions:
REMARK  status: ('A' for Active; 'I' for Inactive)
REMARK    1  A    between atoms: O_1  and  C_14
REMARK    2  A    between atoms: O_2  and  C_32
REMARK    3  A    between atoms: O_2  and  C_36
REMARK    4  A    between atoms: O_6  and  C_39
REMARK    5  A    between atoms: O_7  and  C_41
REMARK    6  A    between atoms: O_7  and  C_43
REMARK    7  A    between atoms: O_9  and  C_47
REMARK    8  A    between atoms: O_9  and  C_49
REMARK    9  A    between atoms: O_10  and  C_45
REMARK   10  A    between atoms: O_12  and  C_51
REMARK   11  A    between atoms: O_13  and  C_53
REMARK   12  A    between atoms: C_17  and  C_29
REMARK   13  A    between atoms: C_18  and  C_30
REMARK   14  A    between atoms: C_22  and  C_33
REMARK   15  A    between atoms: C_40  and  C_42
REMARK   16  A    between atoms: C_46  and  C_48
REMARK   17  A    between atoms: C_52  and  C_54
REMARK                            x       y       z     vdW  Elec       q    Type
REMARK                         _______ _______ _______ _____ _____    ______ ____
ROOT
ATOM      1  O   UNL     1       8.911  -7.869 182.199  0.00  0.00    +0.000 OA
ATOM      2  C   UNL     1      10.034  -7.694 181.338  0.00  0.00    +0.000 C 
ATOM      3  C   UNL     1      10.414  -6.220 181.171  0.00  0.00    +0.000 C 
ATOM      4  C   UNL     1       9.658  -5.336 182.150  0.00  0.00    +0.000 C 
ATOM      5  C   UNL     1       9.168  -7.417 183.534  0.00  0.00    +0.000 C 
ATOM      6  C   UNL     1       9.561  -5.921 183.573  0.00  0.00    +0.000 C 
ATOM      7  C   UNL     1       7.894  -7.675 184.338  0.00  0.00    +0.000 C 
ENDROOT
BRANCH   4   8
ATOM      8  O   UNL     1      10.136  -3.995 182.122  0.00  0.00    +0.000 OA
ATOM      9  H   UNL     1       9.435  -3.444 182.531  0.00  0.00    +0.000 HD
ENDBRANCH   4   8
BRANCH   2  10
ATOM     10  O   UNL     1       9.842  -8.323 180.071  0.00  0.00    +0.000 OA
BRANCH  10  29
ATOM     11  C   UNL     1      12.791 -15.506 179.574  0.00  0.00    +0.000 C 
ATOM     12  C   UNL     1      12.260 -14.051 179.691  0.00  0.00    +0.000 C 
ATOM     13  C   UNL     1      12.749 -13.121 178.552  0.00  0.00    +0.000 C 
ATOM     14  C   UNL     1      12.610 -16.141 178.166  0.00  0.00    +0.000 C 
ATOM     15  C   UNL     1      12.201 -11.640 178.671  0.00  0.00    +0.000 C 
ATOM     16  C   UNL     1      12.445 -11.094 180.117  0.00  0.00    +0.000 C 
ATOM     17  C   UNL     1      12.468 -13.776 177.184  0.00  0.00    +0.000 C 
ATOM     18  C   UNL     1      13.100 -15.164 177.070  0.00  0.00    +0.000 C 
ATOM     19  C   UNL     1      13.526 -17.402 178.281  0.00  0.00    +0.000 C 
ATOM     20  C   UNL     1      12.591 -13.442 181.062  0.00  0.00    +0.000 C 
ATOM     21  C   UNL     1      14.295 -15.668 179.859  0.00  0.00    +0.000 C 
ATOM     22  C   UNL     1      11.968 -12.064 181.213  0.00  0.00    +0.000 C 
ATOM     23  C   UNL     1      14.752 -16.902 179.071  0.00  0.00    +0.000 C 
ATOM     24  C   UNL     1      10.688 -11.547 178.325  0.00  0.00    +0.000 C 
ATOM     25  C   UNL     1      11.803  -9.710 180.348  0.00  0.00    +0.000 C 
ATOM     26  C   UNL     1      11.147 -16.540 177.887  0.00  0.00    +0.000 C 
ATOM     27  C   UNL     1      12.994 -10.756 177.668  0.00  0.00    +0.000 C 
ATOM     28  C   UNL     1      10.086 -10.164 178.568  0.00  0.00    +0.000 C 
ATOM     29  C   UNL     1      10.313  -9.673 179.996  0.00  0.00    +0.000 C 
BRANCH  19  32
ATOM     30  O   UNL     1      15.046 -19.431 175.528  0.00  0.00    +0.000 OA
ATOM     31  O   UNL     1      13.569 -19.239 173.780  0.00  0.00    +0.000 OA
ATOM     32  C   UNL     1      13.834 -18.144 177.008  0.00  0.00    +0.000 C 
ATOM     33  C   UNL     1      15.082 -18.935 176.865  0.00  0.00    +0.000 C 
ATOM     34  C   UNL     1      13.156 -18.166 175.860  0.00  0.00    +0.000 C 
ATOM     35  C   UNL     1      13.913 -18.992 174.922  0.00  0.00    +0.000 C 
ENDBRANCH  19  32
BRANCH  11  36
ATOM     36  O   UNL     1      12.120 -16.319 180.552  0.00  0.00    +0.000 OA
ATOM     37  H   UNL     1      12.432 -17.235 180.460  0.00  0.00    +0.000 HD
ENDBRANCH  11  36
ENDBRANCH  10  29
ENDBRANCH   2  10
BRANCH   6  38
ATOM     38  O   UNL     1      10.584  -5.654 184.537  0.00  0.00    +0.000 OA
BRANCH  38  40
ATOM     39  O   UNL     1       9.016  -4.871 186.136  0.00  0.00    +0.000 OA
ATOM     40  C   UNL     1      10.387  -5.019 185.791  0.00  0.00    +0.000 C 
ATOM     41  C   UNL     1      11.162  -3.723 186.007  0.00  0.00    +0.000 C 
ATOM     42  C   UNL     1      10.421  -2.744 186.913  0.00  0.00    +0.000 C 
ATOM     43  C   UNL     1       8.857  -4.668 187.554  0.00  0.00    +0.000 C 
ATOM     44  C   UNL     1       9.600  -3.399 188.043  0.00  0.00    +0.000 C 
ATOM     45  C   UNL     1       7.357  -4.564 187.816  0.00  0.00    +0.000 C 
BRANCH  42  46
ATOM     46  O   UNL     1      11.306  -1.740 187.408  0.00  0.00    +0.000 OA
ATOM     47  H   UNL     1      12.136  -2.170 187.678  0.00  0.00    +0.000 HD
ENDBRANCH  42  46
BRANCH  44  48
ATOM     48  O   UNL     1      10.247  -3.614 189.303  0.00  0.00    +0.000 OA
BRANCH  48  50
ATOM     49  O   UNL     1       9.788  -2.195 191.117  0.00  0.00    +0.000 OA
ATOM     50  C   UNL     1       9.496  -3.443 190.499  0.00  0.00    +0.000 C 
ATOM     51  C   UNL     1       9.908  -4.578 191.443  0.00  0.00    +0.000 C 
ATOM     52  C   UNL     1       9.773  -4.187 192.912  0.00  0.00    +0.000 C 
ATOM     53  C   UNL     1       8.930  -1.911 192.238  0.00  0.00    +0.000 C 
ATOM     54  C   UNL     1       8.663  -3.152 193.108  0.00  0.00    +0.000 C 
ATOM     55  C   UNL     1       9.626  -0.814 193.035  0.00  0.00    +0.000 C 
BRANCH  52  56
ATOM     56  O   UNL     1       9.463  -5.359 193.675  0.00  0.00    +0.000 OA
ATOM     57  H   UNL     1      10.166  -6.012 193.507  0.00  0.00    +0.000 HD
ENDBRANCH  52  56
BRANCH  54  58
ATOM     58  O   UNL     1       7.417  -3.750 192.707  0.00  0.00    +0.000 OA
ATOM     59  H   UNL     1       6.725  -3.091 192.922  0.00  0.00    +0.000 HD
ENDBRANCH  54  58
ENDBRANCH  48  50
ENDBRANCH  44  48
ENDBRANCH  38  40
ENDBRANCH   6  38
TORSDOF 12
ENDMDL
MODEL 3
REMARK VINA RESULT:      -8.9     25.583     29.089
REMARK  Name = 
REMARK  17 active torsions:
REMARK  status: ('A' for Active; 'I' for Inactive)
REMARK    1  A    between atoms: O_1  and  C_14
REMARK    2  A    between atoms: O_2  and  C_32
REMARK    3  A    between atoms: O_2  and  C_36
REMARK    4  A    between atoms: O_6  and  C_39
REMARK    5  A    between atoms: O_7  and  C_41
REMARK    6  A    between atoms: O_7  and  C_43
REMARK    7  A    between atoms: O_9  and  C_47
REMARK    8  A    between atoms: O_9  and  C_49
REMARK    9  A    between atoms: O_10  and  C_45
REMARK   10  A    between atoms: O_12  and  C_51
REMARK   11  A    between atoms: O_13  and  C_53
REMARK   12  A    between atoms: C_17  and  C_29
REMARK   13  A    between atoms: C_18  and  C_30
REMARK   14  A    between atoms: C_22  and  C_33
REMARK   15  A    between atoms: C_40  and  C_42
REMARK   16  A    between atoms: C_46  and  C_48
REMARK   17  A    between atoms: C_52  and  C_54
REMARK                            x       y       z     vdW  Elec       q    Type
REMARK                         _______ _______ _______ _____ _____    ______ ____
ROOT
ATOM      1  O   UNL     1      36.798 -25.959 176.734  0.00  0.00    +0.000 OA
ATOM      2  C   UNL     1      38.189 -26.238 176.605  0.00  0.00    +0.000 C 
ATOM      3  C   UNL     1      38.554 -27.630 177.127  0.00  0.00    +0.000 C 
ATOM      4  C   UNL     1      37.312 -28.455 177.427  0.00  0.00    +0.000 C 
ATOM      5  C   UNL     1      35.985 -26.850 175.960  0.00  0.00    +0.000 C 
ATOM      6  C   UNL     1      36.207 -28.328 176.360  0.00  0.00    +0.000 C 
ATOM      7  C   UNL     1      34.534 -26.428 176.185  0.00  0.00    +0.000 C 
ENDROOT
BRANCH   4   8
ATOM      8  O   UNL     1      37.642 -29.804 177.741  0.00  0.00    +0.000 OA
ATOM      9  H   UNL     1      38.568 -29.937 177.447  0.00  0.00    +0.000 HD
ENDBRANCH   4   8
BRANCH   2  10
ATOM     10  O   UNL     1      38.998 -25.231 177.215  0.00  0.00    +0.000 OA
BRANCH  10  29
ATOM     11  C   UNL     1      42.311 -20.337 172.154  0.00  0.00    +0.000 C 
ATOM     12  C   UNL     1      41.609 -21.268 173.180  0.00  0.00    +0.000 C 
ATOM     13  C   UNL     1      40.207 -21.746 172.724  0.00  0.00    +0.000 C 
ATOM     14  C   UNL     1      42.311 -20.879 170.696  0.00  0.00    +0.000 C 
ATOM     15  C   UNL     1      39.498 -22.699 173.770  0.00  0.00    +0.000 C 
ATOM     16  C   UNL     1      39.541 -22.056 175.196  0.00  0.00    +0.000 C 
ATOM     17  C   UNL     1      40.295 -22.342 171.303  0.00  0.00    +0.000 C 
ATOM     18  C   UNL     1      40.892 -21.356 170.300  0.00  0.00    +0.000 C 
ATOM     19  C   UNL     1      42.748 -19.608 169.899  0.00  0.00    +0.000 C 
ATOM     20  C   UNL     1      41.528 -20.612 174.567  0.00  0.00    +0.000 C 
ATOM     21  C   UNL     1      41.689 -18.935 172.024  0.00  0.00    +0.000 C 
ATOM     22  C   UNL     1      40.947 -21.572 175.593  0.00  0.00    +0.000 C 
ATOM     23  C   UNL     1      42.007 -18.453 170.603  0.00  0.00    +0.000 C 
ATOM     24  C   UNL     1      40.149 -24.109 173.812  0.00  0.00    +0.000 C 
ATOM     25  C   UNL     1      38.998 -22.996 176.291  0.00  0.00    +0.000 C 
ATOM     26  C   UNL     1      43.317 -22.031 170.499  0.00  0.00    +0.000 C 
ATOM     27  C   UNL     1      38.011 -22.853 173.342  0.00  0.00    +0.000 C 
ATOM     28  C   UNL     1      39.589 -25.013 174.911  0.00  0.00    +0.000 C 
ATOM     29  C   UNL     1      39.675 -24.370 176.293  0.00  0.00    +0.000 C 
BRANCH  19  32
ATOM     30  O   UNL     1      41.635 -19.291 166.340  0.00  0.00    +0.000 OA
ATOM     31  O   UNL     1      43.173 -20.502 165.140  0.00  0.00    +0.000 OA
ATOM     32  C   UNL     1      42.601 -19.654 168.402  0.00  0.00    +0.000 C 
ATOM     33  C   UNL     1      41.466 -18.980 167.722  0.00  0.00    +0.000 C 
ATOM     34  C   UNL     1      43.340 -20.304 167.502  0.00  0.00    +0.000 C 
ATOM     35  C   UNL     1      42.740 -20.066 166.191  0.00  0.00    +0.000 C 
ENDBRANCH  19  32
BRANCH  11  36
ATOM     36  O   UNL     1      43.667 -20.123 172.582  0.00  0.00    +0.000 OA
ATOM     37  H   UNL     1      44.164 -19.723 171.848  0.00  0.00    +0.000 HD
ENDBRANCH  11  36
ENDBRANCH  10  29
ENDBRANCH   2  10
BRANCH   6  38
ATOM     38  O   UNL     1      36.189 -29.204 175.228  0.00  0.00    +0.000 OA
BRANCH  38  40
ATOM     39  O   UNL     1      35.724 -29.457 172.915  0.00  0.00    +0.000 OA
ATOM     40  C   UNL     1      36.540 -28.839 173.901  0.00  0.00    +0.000 C 
ATOM     41  C   UNL     1      38.021 -28.949 173.553  0.00  0.00    +0.000 C 
ATOM     42  C   UNL     1      38.251 -29.292 172.084  0.00  0.00    +0.000 C 
ATOM     43  C   UNL     1      35.785 -28.739 171.667  0.00  0.00    +0.000 C 
ATOM     44  C   UNL     1      37.228 -28.678 171.106  0.00  0.00    +0.000 C 
ATOM     45  C   UNL     1      34.849 -29.460 170.701  0.00  0.00    +0.000 C 
BRANCH  42  46
ATOM     46  O   UNL     1      39.595 -29.008 171.700  0.00  0.00    +0.000 OA
ATOM     47  H   UNL     1      39.791 -29.504 170.886  0.00  0.00    +0.000 HD
ENDBRANCH  42  46
BRANCH  44  48
ATOM     48  O   UNL     1      37.526 -27.393 170.546  0.00  0.00    +0.000 OA
BRANCH  48  50
ATOM     49  O   UNL     1      35.724 -26.543 169.302  0.00  0.00    +0.000 OA
ATOM     50  C   UNL     1      36.496 -26.413 170.490  0.00  0.00    +0.000 C 
ATOM     51  C   UNL     1      37.190 -25.046 170.490  0.00  0.00    +0.000 C 
ATOM     52  C   UNL     1      36.371 -23.982 169.763  0.00  0.00    +0.000 C 
ATOM     53  C   UNL     1      34.572 -25.679 169.285  0.00  0.00    +0.000 C 
ATOM     54  C   UNL     1      34.873 -24.280 169.854  0.00  0.00    +0.000 C 
ATOM     55  C   UNL     1      34.123 -25.601 167.831  0.00  0.00    +0.000 C 
BRANCH  52  56
ATOM     56  O   UNL     1      36.634 -22.708 170.364  0.00  0.00    +0.000 OA
ATOM     57  H   UNL     1      36.014 -22.603 171.109  0.00  0.00    +0.000 HD
ENDBRANCH  52  56
BRANCH  54  58
ATOM     58  O   UNL     1      34.491 -24.242 171.240  0.00  0.00    +0.000 OA
ATOM     59  H   UNL     1      35.325 -24.319 171.748  0.00  0.00    +0.000 HD
ENDBRANCH  54  58
ENDBRANCH  48  50
ENDBRANCH  44  48
ENDBRANCH  38  40
ENDBRANCH   6  38
TORSDOF 12
ENDMDL
MODEL 4
REMARK VINA RESULT:      -8.9     26.931     30.445
REMARK  Name = 
REMARK  17 active torsions:
REMARK  status: ('A' for Active; 'I' for Inactive)
REMARK    1  A    between atoms: O_1  and  C_14
REMARK    2  A    between atoms: O_2  and  C_32
REMARK    3  A    between atoms: O_2  and  C_36
REMARK    4  A    between atoms: O_6  and  C_39
REMARK    5  A    between atoms: O_7  and  C_41
REMARK    6  A    between atoms: O_7  and  C_43
REMARK    7  A    between atoms: O_9  and  C_47
REMARK    8  A    between atoms: O_9  and  C_49
REMARK    9  A    between atoms: O_10  and  C_45
REMARK   10  A    between atoms: O_12  and  C_51
REMARK   11  A    between atoms: O_13  and  C_53
REMARK   12  A    between atoms: C_17  and  C_29
REMARK   13  A    between atoms: C_18  and  C_30
REMARK   14  A    between atoms: C_22  and  C_33
REMARK   15  A    between atoms: C_40  and  C_42
REMARK   16  A    between atoms: C_46  and  C_48
REMARK   17  A    between atoms: C_52  and  C_54
REMARK                            x       y       z     vdW  Elec       q    Type
REMARK                         _______ _______ _______ _____ _____    ______ ____
ROOT
ATOM      1  O   UNL     1      37.607 -26.734 177.972  0.00  0.00    +0.000 OA
ATOM      2  C   UNL     1      38.199 -26.284 176.757  0.00  0.00    +0.000 C 
ATOM      3  C   UNL     1      37.883 -27.209 175.578  0.00  0.00    +0.000 C 
ATOM      4  C   UNL     1      36.825 -28.237 175.946  0.00  0.00    +0.000 C 
ATOM      5  C   UNL     1      36.175 -26.753 177.912  0.00  0.00    +0.000 C 
ATOM      6  C   UNL     1      35.656 -27.662 176.772  0.00  0.00    +0.000 C 
ATOM      7  C   UNL     1      35.684 -27.240 179.274  0.00  0.00    +0.000 C 
ENDROOT
BRANCH   4   8
ATOM      8  O   UNL     1      36.400 -28.982 174.810  0.00  0.00    +0.000 OA
ATOM      9  H   UNL     1      36.656 -28.454 174.024  0.00  0.00    +0.000 HD
ENDBRANCH   4   8
BRANCH   2  10
ATOM     10  O   UNL     1      39.605 -26.079 176.888  0.00  0.00    +0.000 OA
BRANCH  10  29
ATOM     11  C   UNL     1      42.132 -20.438 172.161  0.00  0.00    +0.000 C 
ATOM     12  C   UNL     1      41.578 -21.527 173.119  0.00  0.00    +0.000 C 
ATOM     13  C   UNL     1      40.337 -22.269 172.560  0.00  0.00    +0.000 C 
ATOM     14  C   UNL     1      42.335 -20.918 170.696  0.00  0.00    +0.000 C 
ATOM     15  C   UNL     1      39.778 -23.383 173.536  0.00  0.00    +0.000 C 
ATOM     16  C   UNL     1      39.599 -22.793 174.975  0.00  0.00    +0.000 C 
ATOM     17  C   UNL     1      40.633 -22.786 171.137  0.00  0.00    +0.000 C 
ATOM     18  C   UNL     1      41.073 -21.664 170.196  0.00  0.00    +0.000 C 
ATOM     19  C   UNL     1      42.546 -19.558 169.956  0.00  0.00    +0.000 C 
ATOM     20  C   UNL     1      41.277 -20.950 174.510  0.00  0.00    +0.000 C 
ATOM     21  C   UNL     1      41.242 -19.191 172.018  0.00  0.00    +0.000 C 
ATOM     22  C   UNL     1      40.846 -22.043 175.475  0.00  0.00    +0.000 C 
ATOM     23  C   UNL     1      41.539 -18.606 170.632  0.00  0.00    +0.000 C 
ATOM     24  C   UNL     1      40.705 -24.629 173.593  0.00  0.00    +0.000 C 
ATOM     25  C   UNL     1      39.197 -23.861 176.012  0.00  0.00    +0.000 C 
ATOM     26  C   UNL     1      43.568 -21.831 170.543  0.00  0.00    +0.000 C 
ATOM     27  C   UNL     1      38.385 -23.826 173.007  0.00  0.00    +0.000 C 
ATOM     28  C   UNL     1      40.279 -25.665 174.633  0.00  0.00    +0.000 C 
ATOM     29  C   UNL     1      40.144 -25.065 176.031  0.00  0.00    +0.000 C 
BRANCH  19  32
ATOM     30  O   UNL     1      41.653 -19.251 166.335  0.00  0.00    +0.000 OA
ATOM     31  O   UNL     1      43.358 -20.313 165.223  0.00  0.00    +0.000 OA
ATOM     32  C   UNL     1      42.504 -19.583 168.452  0.00  0.00    +0.000 C 
ATOM     33  C   UNL     1      41.368 -18.984 167.707  0.00  0.00    +0.000 C 
ATOM     34  C   UNL     1      43.350 -20.154 167.594  0.00  0.00    +0.000 C 
ATOM     35  C   UNL     1      42.823 -19.935 166.249  0.00  0.00    +0.000 C 
ENDBRANCH  19  32
BRANCH  11  36
ATOM     36  O   UNL     1      43.385 -19.963 172.683  0.00  0.00    +0.000 OA
ATOM     37  H   UNL     1      43.705 -20.599 173.346  0.00  0.00    +0.000 HD
ENDBRANCH  11  36
ENDBRANCH  10  29
ENDBRANCH   2  10
BRANCH   6  38
ATOM     38  O   UNL     1      34.510 -27.110 176.117  0.00  0.00    +0.000 OA
BRANCH  38  40
ATOM     39  O   UNL     1      33.591 -29.247 175.647  0.00  0.00    +0.000 OA
ATOM     40  C   UNL     1      33.547 -27.851 175.382  0.00  0.00    +0.000 C 
ATOM     41  C   UNL     1      33.493 -27.565 173.884  0.00  0.00    +0.000 C 
ATOM     42  C   UNL     1      33.075 -28.788 173.073  0.00  0.00    +0.000 C 
ATOM     43  C   UNL     1      32.355 -29.885 175.272  0.00  0.00    +0.000 C 
ATOM     44  C   UNL     1      32.046 -29.706 173.764  0.00  0.00    +0.000 C 
ATOM     45  C   UNL     1      32.497 -31.361 175.634  0.00  0.00    +0.000 C 
BRANCH  42  46
ATOM     46  O   UNL     1      32.659 -28.409 171.762  0.00  0.00    +0.000 OA
ATOM     47  H   UNL     1      33.017 -27.525 171.571  0.00  0.00    +0.000 HD
ENDBRANCH  42  46
BRANCH  44  48
ATOM     48  O   UNL     1      30.656 -29.447 173.534  0.00  0.00    +0.000 OA
BRANCH  48  50
ATOM     49  O   UNL     1      30.236 -31.666 172.890  0.00  0.00    +0.000 OA
ATOM     50  C   UNL     1      29.737 -30.531 173.589  0.00  0.00    +0.000 C 
ATOM     51  C   UNL     1      28.450 -30.051 172.909  0.00  0.00    +0.000 C 
ATOM     52  C   UNL     1      27.670 -31.198 172.271  0.00  0.00    +0.000 C 
ATOM     53  C   UNL     1      29.414 -32.835 173.061  0.00  0.00    +0.000 C 
ATOM     54  C   UNL     1      27.909 -32.512 173.019  0.00  0.00    +0.000 C 
ATOM     55  C   UNL     1      29.805 -33.795 171.943  0.00  0.00    +0.000 C 
BRANCH  52  56
ATOM     56  O   UNL     1      26.272 -30.884 172.310  0.00  0.00    +0.000 OA
ATOM     57  H   UNL     1      25.783 -31.726 172.329  0.00  0.00    +0.000 HD
ENDBRANCH  52  56
BRANCH  54  58
ATOM     58  O   UNL     1      27.422 -32.357 174.365  0.00  0.00    +0.000 OA
ATOM     59  H   UNL     1      27.833 -31.535 174.703  0.00  0.00    +0.000 HD
ENDBRANCH  54  58
ENDBRANCH  48  50
ENDBRANCH  44  48
ENDBRANCH  38  40
ENDBRANCH   6  38
TORSDOF 12
ENDMDL
MODEL 5
REMARK VINA RESULT:      -8.8      1.717      2.355
REMARK  Name = 
REMARK  17 active torsions:
REMARK  status: ('A' for Active; 'I' for Inactive)
REMARK    1  A    between atoms: O_1  and  C_14
REMARK    2  A    between atoms: O_2  and  C_32
REMARK    3  A    between atoms: O_2  and  C_36
REMARK    4  A    between atoms: O_6  and  C_39
REMARK    5  A    between atoms: O_7  and  C_41
REMARK    6  A    between atoms: O_7  and  C_43
REMARK    7  A    between atoms: O_9  and  C_47
REMARK    8  A    between atoms: O_9  and  C_49
REMARK    9  A    between atoms: O_10  and  C_45
REMARK   10  A    between atoms: O_12  and  C_51
REMARK   11  A    between atoms: O_13  and  C_53
REMARK   12  A    between atoms: C_17  and  C_29
REMARK   13  A    between atoms: C_18  and  C_30
REMARK   14  A    between atoms: C_22  and  C_33
REMARK   15  A    between atoms: C_40  and  C_42
REMARK   16  A    between atoms: C_46  and  C_48
REMARK   17  A    between atoms: C_52  and  C_54
REMARK                            x       y       z     vdW  Elec       q    Type
REMARK                         _______ _______ _______ _____ _____    ______ ____
ROOT
ATOM      1  O   UNL     1      37.946   6.866 168.839  0.00  0.00    +0.000 OA
ATOM      2  C   UNL     1      36.952   7.682 169.453  0.00  0.00    +0.000 C 
ATOM      3  C   UNL     1      36.892   9.085 168.841  0.00  0.00    +0.000 C 
ATOM      4  C   UNL     1      37.735   9.177 167.578  0.00  0.00    +0.000 C 
ATOM      5  C   UNL     1      37.684   6.633 167.450  0.00  0.00    +0.000 C 
ATOM      6  C   UNL     1      37.601   7.954 166.648  0.00  0.00    +0.000 C 
ATOM      7  C   UNL     1      38.813   5.743 166.932  0.00  0.00    +0.000 C 
ENDROOT
BRANCH   4   8
ATOM      8  O   UNL     1      37.542  10.419 166.909  0.00  0.00    +0.000 OA
ATOM      9  H   UNL     1      36.871  10.255 166.213  0.00  0.00    +0.000 HD
ENDBRANCH   4   8
BRANCH   2  10
ATOM     10  O   UNL     1      37.110   7.746 170.871  0.00  0.00    +0.000 OA
BRANCH  10  29
ATOM     11  C   UNL     1      42.463   3.046 174.002  0.00  0.00    +0.000 C 
ATOM     12  C   UNL     1      41.349   3.942 173.394  0.00  0.00    +0.000 C 
ATOM     13  C   UNL     1      40.486   4.664 174.460  0.00  0.00    +0.000 C 
ATOM     14  C   UNL     1      43.323   3.746 175.092  0.00  0.00    +0.000 C 
ATOM     15  C   UNL     1      39.356   5.581 173.837  0.00  0.00    +0.000 C 
ATOM     16  C   UNL     1      38.544   4.778 172.766  0.00  0.00    +0.000 C 
ATOM     17  C   UNL     1      41.399   5.401 175.462  0.00  0.00    +0.000 C 
ATOM     18  C   UNL     1      42.410   4.461 176.118  0.00  0.00    +0.000 C 
ATOM     19  C   UNL     1      44.070   2.526 175.720  0.00  0.00    +0.000 C 
ATOM     20  C   UNL     1      40.458   3.150 172.426  0.00  0.00    +0.000 C 
ATOM     21  C   UNL     1      41.955   1.770 174.698  0.00  0.00    +0.000 C 
ATOM     22  C   UNL     1      39.445   4.058 171.748  0.00  0.00    +0.000 C 
ATOM     23  C   UNL     1      43.002   1.414 175.761  0.00  0.00    +0.000 C 
ATOM     24  C   UNL     1      39.938   6.871 173.194  0.00  0.00    +0.000 C 
ATOM     25  C   UNL     1      37.522   5.654 172.013  0.00  0.00    +0.000 C 
ATOM     26  C   UNL     1      44.319   4.759 174.492  0.00  0.00    +0.000 C 
ATOM     27  C   UNL     1      38.390   5.992 174.984  0.00  0.00    +0.000 C 
ATOM     28  C   UNL     1      38.899   7.712 172.454  0.00  0.00    +0.000 C 
ATOM     29  C   UNL     1      38.147   6.909 171.395  0.00  0.00    +0.000 C 
BRANCH  19  32
ATOM     30  O   UNL     1      46.484   3.516 178.403  0.00  0.00    +0.000 OA
ATOM     31  O   UNL     1      45.663   2.541 180.313  0.00  0.00    +0.000 OA
ATOM     32  C   UNL     1      44.807   2.764 177.010  0.00  0.00    +0.000 C 
ATOM     33  C   UNL     1      46.058   3.563 177.042  0.00  0.00    +0.000 C 
ATOM     34  C   UNL     1      44.548   2.289 178.229  0.00  0.00    +0.000 C 
ATOM     35  C   UNL     1      45.601   2.774 179.120  0.00  0.00    +0.000 C 
ENDBRANCH  19  32
BRANCH  11  36
ATOM     36  O   UNL     1      43.319   2.594 172.938  0.00  0.00    +0.000 OA
ATOM     37  H   UNL     1      43.830   3.353 172.608  0.00  0.00    +0.000 HD
ENDBRANCH  11  36
ENDBRANCH  10  29
ENDBRANCH   2  10
BRANCH   6  38
ATOM     38  O   UNL     1      36.582   7.916 165.645  0.00  0.00    +0.000 OA
BRANCH  38  40
ATOM     39  O   UNL     1      36.385   5.817 164.556  0.00  0.00    +0.000 OA
ATOM     40  C   UNL     1      35.750   6.801 165.360  0.00  0.00    +0.000 C 
ATOM     41  C   UNL     1      34.353   7.131 164.843  0.00  0.00    +0.000 C 
ATOM     42  C   UNL     1      33.817   6.065 163.892  0.00  0.00    +0.000 C 
ATOM     43  C   UNL     1      35.722   4.543 164.673  0.00  0.00    +0.000 C 
ATOM     44  C   UNL     1      34.239   4.621 164.229  0.00  0.00    +0.000 C 
ATOM     45  C   UNL     1      36.505   3.559 163.808  0.00  0.00    +0.000 C 
BRANCH  42  46
ATOM     46  O   UNL     1      32.404   6.187 163.736  0.00  0.00    +0.000 OA
ATOM     47  H   UNL     1      32.224   6.546 162.850  0.00  0.00    +0.000 HD
ENDBRANCH  42  46
BRANCH  44  48
ATOM     48  O   UNL     1      33.386   3.857 165.090  0.00  0.00    +0.000 OA
BRANCH  48  50
ATOM     49  O   UNL     1      33.362   1.761 164.032  0.00  0.00    +0.000 OA
ATOM     50  C   UNL     1      33.631   2.464 165.239  0.00  0.00    +0.000 C 
ATOM     51  C   UNL     1      32.678   1.965 166.331  0.00  0.00    +0.000 C 
ATOM     52  C   UNL     1      32.302   0.497 166.145  0.00  0.00    +0.000 C 
ATOM     53  C   UNL     1      33.753   0.377 164.090  0.00  0.00    +0.000 C 
ATOM     54  C   UNL     1      33.422  -0.275 165.445  0.00  0.00    +0.000 C 
ATOM     55  C   UNL     1      33.022  -0.318 162.947  0.00  0.00    +0.000 C 
BRANCH  52  56
ATOM     56  O   UNL     1      32.064  -0.085 167.432  0.00  0.00    +0.000 OA
ATOM     57  H   UNL     1      32.426  -0.989 167.416  0.00  0.00    +0.000 HD
ENDBRANCH  52  56
BRANCH  54  58
ATOM     58  O   UNL     1      34.589  -0.235 166.286  0.00  0.00    +0.000 OA
ATOM     59  H   UNL     1      35.334   0.000 165.695  0.00  0.00    +0.000 HD
ENDBRANCH  54  58
ENDBRANCH  48  50
ENDBRANCH  44  48
ENDBRANCH  38  40
ENDBRANCH   6  38
TORSDOF 12
ENDMDL
MODEL 6
REMARK VINA RESULT:      -8.8     31.604     35.118
REMARK  Name = 
REMARK  17 active torsions:
REMARK  status: ('A' for Active; 'I' for Inactive)
REMARK    1  A    between atoms: O_1  and  C_14
REMARK    2  A    between atoms: O_2  and  C_32
REMARK    3  A    between atoms: O_2  and  C_36
REMARK    4  A    between atoms: O_6  and  C_39
REMARK    5  A    between atoms: O_7  and  C_41
REMARK    6  A    between atoms: O_7  and  C_43
REMARK    7  A    between atoms: O_9  and  C_47
REMARK    8  A    between atoms: O_9  and  C_49
REMARK    9  A    between atoms: O_10  and  C_45
REMARK   10  A    between atoms: O_12  and  C_51
REMARK   11  A    between atoms: O_13  and  C_53
REMARK   12  A    between atoms: C_17  and  C_29
REMARK   13  A    between atoms: C_18  and  C_30
REMARK   14  A    between atoms: C_22  and  C_33
REMARK   15  A    between atoms: C_40  and  C_42
REMARK   16  A    between atoms: C_46  and  C_48
REMARK   17  A    between atoms: C_52  and  C_54
REMARK                            x       y       z     vdW  Elec       q    Type
REMARK                         _______ _______ _______ _____ _____    ______ ____
ROOT
ATOM      1  O   UNL     1       8.909  -8.280 181.770  0.00  0.00    +0.000 OA
ATOM      2  C   UNL     1       9.684  -7.636 180.762  0.00  0.00    +0.000 C 
ATOM      3  C   UNL     1       9.319  -6.158 180.604  0.00  0.00    +0.000 C 
ATOM      4  C   UNL     1       8.399  -5.689 181.721  0.00  0.00    +0.000 C 
ATOM      5  C   UNL     1       9.130  -7.722 183.071  0.00  0.00    +0.000 C 
ATOM      6  C   UNL     1       8.796  -6.211 183.117  0.00  0.00    +0.000 C 
ATOM      7  C   UNL     1       8.252  -8.510 184.043  0.00  0.00    +0.000 C 
ENDROOT
BRANCH   4   8
ATOM      8  O   UNL     1       8.201  -4.280 181.681  0.00  0.00    +0.000 OA
ATOM      9  H   UNL     1       9.066  -3.887 181.438  0.00  0.00    +0.000 HD
ENDBRANCH   4   8
BRANCH   2  10
ATOM     10  O   UNL     1       9.612  -8.320 179.511  0.00  0.00    +0.000 OA
BRANCH  10  29
ATOM     11  C   UNL     1      12.769 -15.432 179.534  0.00  0.00    +0.000 C 
ATOM     12  C   UNL     1      12.195 -13.989 179.547  0.00  0.00    +0.000 C 
ATOM     13  C   UNL     1      12.694 -13.114 178.369  0.00  0.00    +0.000 C 
ATOM     14  C   UNL     1      12.650 -16.154 178.162  0.00  0.00    +0.000 C 
ATOM     15  C   UNL     1      12.102 -11.645 178.384  0.00  0.00    +0.000 C 
ATOM     16  C   UNL     1      12.286 -11.007 179.801  0.00  0.00    +0.000 C 
ATOM     17  C   UNL     1      12.474 -13.857 177.035  0.00  0.00    +0.000 C 
ATOM     18  C   UNL     1      13.146 -15.230 177.023  0.00  0.00    +0.000 C 
ATOM     19  C   UNL     1      13.595 -17.379 178.379  0.00  0.00    +0.000 C 
ATOM     20  C   UNL     1      12.467 -13.291 180.888  0.00  0.00    +0.000 C 
ATOM     21  C   UNL     1      14.267 -15.534 179.872  0.00  0.00    +0.000 C 
ATOM     22  C   UNL     1      11.802 -11.924 180.938  0.00  0.00    +0.000 C 
ATOM     23  C   UNL     1      14.782 -16.798 179.174  0.00  0.00    +0.000 C 
ATOM     24  C   UNL     1      10.600 -11.617 177.987  0.00  0.00    +0.000 C 
ATOM     25  C   UNL     1      11.601  -9.632 179.929  0.00  0.00    +0.000 C 
ATOM     26  C   UNL     1      11.208 -16.612 177.863  0.00  0.00    +0.000 C 
ATOM     27  C   UNL     1      12.903 -10.799 177.353  0.00  0.00    +0.000 C 
ATOM     28  C   UNL     1       9.953 -10.239 178.129  0.00  0.00    +0.000 C 
ATOM     29  C   UNL     1      10.122  -9.658 179.531  0.00  0.00    +0.000 C 
BRANCH  19  32
ATOM     30  O   UNL     1      15.262 -19.509 175.792  0.00  0.00    +0.000 OA
ATOM     31  O   UNL     1      13.818 -19.493 174.007  0.00  0.00    +0.000 OA
ATOM     32  C   UNL     1      13.963 -18.185 177.162  0.00  0.00    +0.000 C 
ATOM     33  C   UNL     1      15.246 -18.929 177.096  0.00  0.00    +0.000 C 
ATOM     34  C   UNL     1      13.312 -18.310 176.005  0.00  0.00    +0.000 C 
ATOM     35  C   UNL     1      14.124 -19.160 175.137  0.00  0.00    +0.000 C 
ENDBRANCH  19  32
BRANCH  11  36
ATOM     36  O   UNL     1      12.090 -16.205 180.538  0.00  0.00    +0.000 OA
ATOM     37  H   UNL     1      12.184 -15.752 181.394  0.00  0.00    +0.000 HD
ENDBRANCH  11  36
ENDBRANCH  10  29
ENDBRANCH   2  10
BRANCH   6  38
ATOM     38  O   UNL     1       9.717  -5.477 183.929  0.00  0.00    +0.000 OA
BRANCH  38  40
ATOM     39  O   UNL     1      10.524  -4.716 186.027  0.00  0.00    +0.000 OA
ATOM     40  C   UNL     1       9.403  -4.848 185.163  0.00  0.00    +0.000 C 
ATOM     41  C   UNL     1       8.189  -5.404 185.901  0.00  0.00    +0.000 C 
ATOM     42  C   UNL     1       8.321  -5.281 187.416  0.00  0.00    +0.000 C 
ATOM     43  C   UNL     1      10.296  -3.699 187.021  0.00  0.00    +0.000 C 
ATOM     44  C   UNL     1       9.063  -4.020 187.904  0.00  0.00    +0.000 C 
ATOM     45  C   UNL     1      11.567  -3.614 187.862  0.00  0.00    +0.000 C 
BRANCH  42  46
ATOM     46  O   UNL     1       7.053  -5.436 188.051  0.00  0.00    +0.000 OA
ATOM     47  H   UNL     1       6.662  -6.275 187.750  0.00  0.00    +0.000 HD
ENDBRANCH  42  46
BRANCH  44  48
ATOM     48  O   UNL     1       8.284  -2.848 188.175  0.00  0.00    +0.000 OA
BRANCH  48  50
ATOM     49  O   UNL     1       8.363  -2.650 190.514  0.00  0.00    +0.000 OA
ATOM     50  C   UNL     1       8.651  -2.019 189.271  0.00  0.00    +0.000 C 
ATOM     51  C   UNL     1       7.814  -0.740 189.153  0.00  0.00    +0.000 C 
ATOM     52  C   UNL     1       7.548  -0.095 190.512  0.00  0.00    +0.000 C 
ATOM     53  C   UNL     1       8.868  -1.916 191.645  0.00  0.00    +0.000 C 
ATOM     54  C   UNL     1       8.680  -0.395 191.497  0.00  0.00    +0.000 C 
ATOM     55  C   UNL     1       8.124  -2.451 192.863  0.00  0.00    +0.000 C 
BRANCH  52  56
ATOM     56  O   UNL     1       7.442   1.323 190.336  0.00  0.00    +0.000 OA
ATOM     57  H   UNL     1       7.754   1.743 191.157  0.00  0.00    +0.000 HD
ENDBRANCH  52  56
BRANCH  54  58
ATOM     58  O   UNL     1       9.891   0.182 190.978  0.00  0.00    +0.000 OA
ATOM     59  H   UNL     1       9.867   1.126 191.237  0.00  0.00    +0.000 HD
ENDBRANCH  54  58
ENDBRANCH  48  50
ENDBRANCH  44  48
ENDBRANCH  38  40
ENDBRANCH   6  38
TORSDOF 12
ENDMDL
MODEL 7
REMARK VINA RESULT:      -8.4     26.780     30.904
REMARK  Name = 
REMARK  17 active torsions:
REMARK  status: ('A' for Active; 'I' for Inactive)
REMARK    1  A    between atoms: O_1  and  C_14
REMARK    2  A    between atoms: O_2  and  C_32
REMARK    3  A    between atoms: O_2  and  C_36
REMARK    4  A    between atoms: O_6  and  C_39
REMARK    5  A    between atoms: O_7  and  C_41
REMARK    6  A    between atoms: O_7  and  C_43
REMARK    7  A    between atoms: O_9  and  C_47
REMARK    8  A    between atoms: O_9  and  C_49
REMARK    9  A    between atoms: O_10  and  C_45
REMARK   10  A    between atoms: O_12  and  C_51
REMARK   11  A    between atoms: O_13  and  C_53
REMARK   12  A    between atoms: C_17  and  C_29
REMARK   13  A    between atoms: C_18  and  C_30
REMARK   14  A    between atoms: C_22  and  C_33
REMARK   15  A    between atoms: C_40  and  C_42
REMARK   16  A    between atoms: C_46  and  C_48
REMARK   17  A    between atoms: C_52  and  C_54
REMARK                            x       y       z     vdW  Elec       q    Type
REMARK                         _______ _______ _______ _____ _____    ______ ____
ROOT
ATOM      1  O   UNL     1      41.735 -25.368 171.348  0.00  0.00    +0.000 OA
ATOM      2  C   UNL     1      42.630 -25.412 172.456  0.00  0.00    +0.000 C 
ATOM      3  C   UNL     1      44.093 -25.531 172.018  0.00  0.00    +0.000 C 
ATOM      4  C   UNL     1      44.243 -25.330 170.518  0.00  0.00    +0.000 C 
ATOM      5  C   UNL     1      41.949 -24.222 170.515  0.00  0.00    +0.000 C 
ATOM      6  C   UNL     1      43.391 -24.174 169.956  0.00  0.00    +0.000 C 
ATOM      7  C   UNL     1      40.921 -24.301 169.387  0.00  0.00    +0.000 C 
ENDROOT
BRANCH   4   8
ATOM      8  O   UNL     1      45.611 -25.262 170.133  0.00  0.00    +0.000 OA
ATOM      9  H   UNL     1      45.934 -24.380 170.417  0.00  0.00    +0.000 HD
ENDBRANCH   4   8
BRANCH   2  10
ATOM     10  O   UNL     1      42.286 -26.441 173.384  0.00  0.00    +0.000 OA
BRANCH  10  29
ATOM     11  C   UNL     1      34.776 -27.286 175.237  0.00  0.00    +0.000 C 
ATOM     12  C   UNL     1      36.290 -27.133 174.927  0.00  0.00    +0.000 C 
ATOM     13  C   UNL     1      37.041 -28.486 174.832  0.00  0.00    +0.000 C 
ATOM     14  C   UNL     1      34.039 -28.315 174.333  0.00  0.00    +0.000 C 
ATOM     15  C   UNL     1      38.583 -28.326 174.510  0.00  0.00    +0.000 C 
ATOM     16  C   UNL     1      39.228 -27.282 175.482  0.00  0.00    +0.000 C 
ATOM     17  C   UNL     1      36.301 -29.428 173.861  0.00  0.00    +0.000 C 
ATOM     18  C   UNL     1      34.840 -29.637 174.262  0.00  0.00    +0.000 C 
ATOM     19  C   UNL     1      32.690 -28.485 175.103  0.00  0.00    +0.000 C 
ATOM     20  C   UNL     1      36.978 -26.206 175.940  0.00  0.00    +0.000 C 
ATOM     21  C   UNL     1      34.454 -27.757 176.666  0.00  0.00    +0.000 C 
ATOM     22  C   UNL     1      38.432 -25.968 175.563  0.00  0.00    +0.000 C 
ATOM     23  C   UNL     1      33.105 -28.481 176.588  0.00  0.00    +0.000 C 
ATOM     24  C   UNL     1      38.831 -27.894 173.038  0.00  0.00    +0.000 C 
ATOM     25  C   UNL     1      40.696 -26.968 175.130  0.00  0.00    +0.000 C 
ATOM     26  C   UNL     1      33.801 -27.778 172.907  0.00  0.00    +0.000 C 
ATOM     27  C   UNL     1      39.264 -29.705 174.743  0.00  0.00    +0.000 C 
ATOM     28  C   UNL     1      40.296 -27.587 172.725  0.00  0.00    +0.000 C 
ATOM     29  C   UNL     1      40.886 -26.543 173.671  0.00  0.00    +0.000 C 
BRANCH  19  32
ATOM     30  O   UNL     1      31.128 -31.809 174.382  0.00  0.00    +0.000 OA
ATOM     31  O   UNL     1      29.224 -31.312 173.199  0.00  0.00    +0.000 OA
ATOM     32  C   UNL     1      31.800 -29.624 174.682  0.00  0.00    +0.000 C 
ATOM     33  C   UNL     1      32.167 -31.032 174.976  0.00  0.00    +0.000 C 
ATOM     34  C   UNL     1      30.671 -29.594 173.972  0.00  0.00    +0.000 C 
ATOM     35  C   UNL     1      30.233 -30.976 173.790  0.00  0.00    +0.000 C 
ENDBRANCH  19  32
BRANCH  11  36
ATOM     36  O   UNL     1      34.148 -25.999 175.101  0.00  0.00    +0.000 OA
ATOM     37  H   UNL     1      34.809 -25.311 175.288  0.00  0.00    +0.000 HD
ENDBRANCH  11  36
ENDBRANCH  10  29
ENDBRANCH   2  10
BRANCH   6  38
ATOM     38  O   UNL     1      43.913 -22.842 169.918  0.00  0.00    +0.000 OA
BRANCH  38  40
ATOM     39  O   UNL     1      43.130 -20.628 170.256  0.00  0.00    +0.000 OA
ATOM     40  C   UNL     1      43.622 -21.818 170.857  0.00  0.00    +0.000 C 
ATOM     41  C   UNL     1      44.721 -21.519 171.873  0.00  0.00    +0.000 C 
ATOM     42  C   UNL     1      44.729 -20.057 172.310  0.00  0.00    +0.000 C 
ATOM     43  C   UNL     1      42.427 -19.815 171.216  0.00  0.00    +0.000 C 
ATOM     44  C   UNL     1      43.338 -19.397 172.397  0.00  0.00    +0.000 C 
ATOM     45  C   UNL     1      41.910 -18.593 170.460  0.00  0.00    +0.000 C 
BRANCH  42  46
ATOM     46  O   UNL     1      45.477 -19.890 173.513  0.00  0.00    +0.000 OA
ATOM     47  H   UNL     1      45.092 -20.469 174.195  0.00  0.00    +0.000 HD
ENDBRANCH  42  46
BRANCH  44  48
ATOM     48  O   UNL     1      42.645 -19.457 173.650  0.00  0.00    +0.000 OA
BRANCH  48  50
ATOM     49  O   UNL     1      40.490 -19.802 174.517  0.00  0.00    +0.000 OA
ATOM     50  C   UNL     1      41.573 -20.380 173.797  0.00  0.00    +0.000 C 
ATOM     51  C   UNL     1      42.123 -21.570 174.591  0.00  0.00    +0.000 C 
ATOM     52  C   UNL     1      41.041 -22.268 175.412  0.00  0.00    +0.000 C 
ATOM     53  C   UNL     1      39.323 -20.644 174.545  0.00  0.00    +0.000 C 
ATOM     54  C   UNL     1      39.670 -22.130 174.748  0.00  0.00    +0.000 C 
ATOM     55  C   UNL     1      38.449 -20.119 175.678  0.00  0.00    +0.000 C 
BRANCH  52  56
ATOM     56  O   UNL     1      41.372 -23.658 175.522  0.00  0.00    +0.000 OA
ATOM     57  H   UNL     1      42.289 -23.766 175.212  0.00  0.00    +0.000 HD
ENDBRANCH  52  56
BRANCH  54  58
ATOM     58  O   UNL     1      39.724 -22.781 173.466  0.00  0.00    +0.000 OA
ATOM     59  H   UNL     1      38.825 -22.695 173.086  0.00  0.00    +0.000 HD
ENDBRANCH  54  58
ENDBRANCH  48  50
ENDBRANCH  44  48
ENDBRANCH  38  40
ENDBRANCH   6  38
TORSDOF 12
ENDMDL
MODEL 8
REMARK VINA RESULT:      -8.4     27.574     30.919
REMARK  Name = 
REMARK  17 active torsions:
REMARK  status: ('A' for Active; 'I' for Inactive)
REMARK    1  A    between atoms: O_1  and  C_14
REMARK    2  A    between atoms: O_2  and  C_32
REMARK    3  A    between atoms: O_2  and  C_36
REMARK    4  A    between atoms: O_6  and  C_39
REMARK    5  A    between atoms: O_7  and  C_41
REMARK    6  A    between atoms: O_7  and  C_43
REMARK    7  A    between atoms: O_9  and  C_47
REMARK    8  A    between atoms: O_9  and  C_49
REMARK    9  A    between atoms: O_10  and  C_45
REMARK   10  A    between atoms: O_12  and  C_51
REMARK   11  A    between atoms: O_13  and  C_53
REMARK   12  A    between atoms: C_17  and  C_29
REMARK   13  A    between atoms: C_18  and  C_30
REMARK   14  A    between atoms: C_22  and  C_33
REMARK   15  A    between atoms: C_40  and  C_42
REMARK   16  A    between atoms: C_46  and  C_48
REMARK   17  A    between atoms: C_52  and  C_54
REMARK                            x       y       z     vdW  Elec       q    Type
REMARK                         _______ _______ _______ _____ _____    ______ ____
ROOT
ATOM      1  O   UNL     1      42.135 -25.549 171.973  0.00  0.00    +0.000 OA
ATOM      2  C   UNL     1      43.333 -25.728 172.724  0.00  0.00    +0.000 C 
ATOM      3  C   UNL     1      44.568 -25.856 171.828  0.00  0.00    +0.000 C 
ATOM      4  C   UNL     1      44.242 -25.520 170.380  0.00  0.00    +0.000 C 
ATOM      5  C   UNL     1      42.143 -24.338 171.207  0.00  0.00    +0.000 C 
ATOM      6  C   UNL     1      43.330 -24.287 170.216  0.00  0.00    +0.000 C 
ATOM      7  C   UNL     1      40.805 -24.275 170.470  0.00  0.00    +0.000 C 
ENDROOT
BRANCH   4   8
ATOM      8  O   UNL     1      45.417 -25.463 169.579  0.00  0.00    +0.000 OA
ATOM      9  H   UNL     1      46.118 -25.928 170.083  0.00  0.00    +0.000 HD
ENDBRANCH   4   8
BRANCH   2  10
ATOM     10  O   UNL     1      43.239 -26.826 173.631  0.00  0.00    +0.000 OA
BRANCH  10  29
ATOM     11  C   UNL     1      36.414 -27.823 177.232  0.00  0.00    +0.000 C 
ATOM     12  C   UNL     1      37.800 -27.599 176.567  0.00  0.00    +0.000 C 
ATOM     13  C   UNL     1      38.891 -28.580 177.066  0.00  0.00    +0.000 C 
ATOM     14  C   UNL     1      35.934 -29.302 177.227  0.00  0.00    +0.000 C 
ATOM     15  C   UNL     1      40.300 -28.352 176.382  0.00  0.00    +0.000 C 
ATOM     16  C   UNL     1      40.693 -26.838 176.455  0.00  0.00    +0.000 C 
ATOM     17  C   UNL     1      38.379 -30.031 176.960  0.00  0.00    +0.000 C 
ATOM     18  C   UNL     1      37.067 -30.236 177.718  0.00  0.00    +0.000 C 
ATOM     19  C   UNL     1      34.744 -29.241 178.237  0.00  0.00    +0.000 C 
ATOM     20  C   UNL     1      38.269 -26.145 176.727  0.00  0.00    +0.000 C 
ATOM     21  C   UNL     1      36.337 -27.419 178.715  0.00  0.00    +0.000 C 
ATOM     22  C   UNL     1      39.568 -25.904 175.975  0.00  0.00    +0.000 C 
ATOM     23  C   UNL     1      35.243 -28.290 179.344  0.00  0.00    +0.000 C 
ATOM     24  C   UNL     1      40.315 -28.826 174.902  0.00  0.00    +0.000 C 
ATOM     25  C   UNL     1      41.986 -26.519 175.677  0.00  0.00    +0.000 C 
ATOM     26  C   UNL     1      35.457 -29.759 175.833  0.00  0.00    +0.000 C 
ATOM     27  C   UNL     1      41.354 -29.174 177.176  0.00  0.00    +0.000 C 
ATOM     28  C   UNL     1      41.610 -28.491 174.161  0.00  0.00    +0.000 C 
ATOM     29  C   UNL     1      41.948 -27.003 174.224  0.00  0.00    +0.000 C 
BRANCH  19  32
ATOM     30  O   UNL     1      33.797 -32.311 180.155  0.00  0.00    +0.000 OA
ATOM     31  O   UNL     1      32.616 -33.591 178.659  0.00  0.00    +0.000 OA
ATOM     32  C   UNL     1      34.182 -30.552 178.714  0.00  0.00    +0.000 C 
ATOM     33  C   UNL     1      34.426 -31.032 180.098  0.00  0.00    +0.000 C 
ATOM     34  C   UNL     1      33.495 -31.473 178.036  0.00  0.00    +0.000 C 
ATOM     35  C   UNL     1      33.236 -32.585 178.949  0.00  0.00    +0.000 C 
ENDBRANCH  19  32
BRANCH  11  36
ATOM     36  O   UNL     1      35.443 -27.006 176.556  0.00  0.00    +0.000 OA
ATOM     37  H   UNL     1      35.864 -26.165 176.309  0.00  0.00    +0.000 HD
ENDBRANCH  11  36
ENDBRANCH  10  29
ENDBRANCH   2  10
BRANCH   6  38
ATOM     38  O   UNL     1      43.895 -22.977 170.114  0.00  0.00    +0.000 OA
BRANCH  38  40
ATOM     39  O   UNL     1      43.071 -20.755 170.230  0.00  0.00    +0.000 OA
ATOM     40  C   UNL     1      43.572 -21.875 170.948  0.00  0.00    +0.000 C 
ATOM     41  C   UNL     1      44.646 -21.464 171.951  0.00  0.00    +0.000 C 
ATOM     42  C   UNL     1      44.624 -19.967 172.248  0.00  0.00    +0.000 C 
ATOM     43  C   UNL     1      42.338 -19.868 171.097  0.00  0.00    +0.000 C 
ATOM     44  C   UNL     1      43.221 -19.325 172.250  0.00  0.00    +0.000 C 
ATOM     45  C   UNL     1      41.817 -18.731 170.222  0.00  0.00    +0.000 C 
BRANCH  42  46
ATOM     46  O   UNL     1      45.347 -19.676 173.443  0.00  0.00    +0.000 OA
ATOM     47  H   UNL     1      45.484 -18.714 173.490  0.00  0.00    +0.000 HD
ENDBRANCH  42  46
BRANCH  44  48
ATOM     48  O   UNL     1      42.506 -19.281 173.491  0.00  0.00    +0.000 OA
BRANCH  48  50
ATOM     49  O   UNL     1      40.401 -19.686 174.448  0.00  0.00    +0.000 OA
ATOM     50  C   UNL     1      41.495 -20.251 173.736  0.00  0.00    +0.000 C 
ATOM     51  C   UNL     1      42.137 -21.348 174.591  0.00  0.00    +0.000 C 
ATOM     52  C   UNL     1      41.122 -22.048 175.493  0.00  0.00    +0.000 C 
ATOM     53  C   UNL     1      39.287 -20.589 174.572  0.00  0.00    +0.000 C 
ATOM     54  C   UNL     1      39.727 -22.035 174.865  0.00  0.00    +0.000 C 
ATOM     55  C   UNL     1      38.416 -20.036 175.695  0.00  0.00    +0.000 C 
BRANCH  52  56
ATOM     56  O   UNL     1      41.538 -23.405 175.687  0.00  0.00    +0.000 OA
ATOM     57  H   UNL     1      41.911 -23.721 174.845  0.00  0.00    +0.000 HD
ENDBRANCH  52  56
BRANCH  54  58
ATOM     58  O   UNL     1      39.783 -22.771 173.630  0.00  0.00    +0.000 OA
ATOM     59  H   UNL     1      39.566 -22.125 172.926  0.00  0.00    +0.000 HD
ENDBRANCH  54  58
ENDBRANCH  48  50
ENDBRANCH  44  48
ENDBRANCH  38  40
ENDBRANCH   6  38
TORSDOF 12
ENDMDL
MODEL 9
REMARK VINA RESULT:      -8.4     32.105     34.768
REMARK  Name = 
REMARK  17 active torsions:
REMARK  status: ('A' for Active; 'I' for Inactive)
REMARK    1  A    between atoms: O_1  and  C_14
REMARK    2  A    between atoms: O_2  and  C_32
REMARK    3  A    between atoms: O_2  and  C_36
REMARK    4  A    between atoms: O_6  and  C_39
REMARK    5  A    between atoms: O_7  and  C_41
REMARK    6  A    between atoms: O_7  and  C_43
REMARK    7  A    between atoms: O_9  and  C_47
REMARK    8  A    between atoms: O_9  and  C_49
REMARK    9  A    between atoms: O_10  and  C_45
REMARK   10  A    between atoms: O_12  and  C_51
REMARK   11  A    between atoms: O_13  and  C_53
REMARK   12  A    between atoms: C_17  and  C_29
REMARK   13  A    between atoms: C_18  and  C_30
REMARK   14  A    between atoms: C_22  and  C_33
REMARK   15  A    between atoms: C_40  and  C_42
REMARK   16  A    between atoms: C_46  and  C_48
REMARK   17  A    between atoms: C_52  and  C_54
REMARK                            x       y       z     vdW  Elec       q    Type
REMARK                         _______ _______ _______ _____ _____    ______ ____
ROOT
ATOM      1  O   UNL     1       9.397  -9.624 178.260  0.00  0.00    +0.000 OA
ATOM      2  C   UNL     1       9.944 -10.861 178.708  0.00  0.00    +0.000 C 
ATOM      3  C   UNL     1      11.207 -10.668 179.551  0.00  0.00    +0.000 C 
ATOM      4  C   UNL     1      11.425  -9.204 179.900  0.00  0.00    +0.000 C 
ATOM      5  C   UNL     1       8.974  -8.786 179.342  0.00  0.00    +0.000 C 
ATOM      6  C   UNL     1      10.137  -8.462 180.311  0.00  0.00    +0.000 C 
ATOM      7  C   UNL     1       8.406  -7.513 178.717  0.00  0.00    +0.000 C 
ENDROOT
BRANCH   4   8
ATOM      8  O   UNL     1      12.492  -9.039 180.828  0.00  0.00    +0.000 OA
ATOM      9  H   UNL     1      13.035  -8.294 180.493  0.00  0.00    +0.000 HD
ENDBRANCH   4   8
BRANCH   2  10
ATOM     10  O   UNL     1      10.178 -11.768 177.630  0.00  0.00    +0.000 OA
BRANCH  10  29
ATOM     11  C   UNL     1      14.211 -18.204 179.322  0.00  0.00    +0.000 C 
ATOM     12  C   UNL     1      13.460 -16.892 178.964  0.00  0.00    +0.000 C 
ATOM     13  C   UNL     1      13.295 -16.670 177.439  0.00  0.00    +0.000 C 
ATOM     14  C   UNL     1      13.674 -19.467 178.590  0.00  0.00    +0.000 C 
ATOM     15  C   UNL     1      12.524 -15.335 177.079  0.00  0.00    +0.000 C 
ATOM     16  C   UNL     1      13.150 -14.129 177.855  0.00  0.00    +0.000 C 
ATOM     17  C   UNL     1      12.686 -17.930 176.790  0.00  0.00    +0.000 C 
ATOM     18  C   UNL     1      13.515 -19.183 177.077  0.00  0.00    +0.000 C 
ATOM     19  C   UNL     1      14.816 -20.494 178.878  0.00  0.00    +0.000 C 
ATOM     20  C   UNL     1      14.125 -15.670 179.617  0.00  0.00    +0.000 C 
ATOM     21  C   UNL     1      15.713 -18.198 178.990  0.00  0.00    +0.000 C 
ATOM     22  C   UNL     1      13.319 -14.407 179.360  0.00  0.00    +0.000 C 
ATOM     23  C   UNL     1      16.108 -19.661 178.752  0.00  0.00    +0.000 C 
ATOM     24  C   UNL     1      11.006 -15.432 177.399  0.00  0.00    +0.000 C 
ATOM     25  C   UNL     1      12.356 -12.820 177.666  0.00  0.00    +0.000 C 
ATOM     26  C   UNL     1      12.330 -19.954 179.168  0.00  0.00    +0.000 C 
ATOM     27  C   UNL     1      12.694 -15.083 175.554  0.00  0.00    +0.000 C 
ATOM     28  C   UNL     1      10.251 -14.117 177.202  0.00  0.00    +0.000 C 
ATOM     29  C   UNL     1      10.868 -12.968 177.998  0.00  0.00    +0.000 C 
BRANCH  19  32
ATOM     30  O   UNL     1      15.581 -23.775 177.249  0.00  0.00    +0.000 OA
ATOM     31  O   UNL     1      13.765 -24.196 175.908  0.00  0.00    +0.000 OA
ATOM     32  C   UNL     1      14.795 -21.779 178.096  0.00  0.00    +0.000 C 
ATOM     33  C   UNL     1      15.938 -22.726 178.147  0.00  0.00    +0.000 C 
ATOM     34  C   UNL     1      13.879 -22.230 177.238  0.00  0.00    +0.000 C 
ATOM     35  C   UNL     1      14.365 -23.502 176.708  0.00  0.00    +0.000 C 
ENDBRANCH  19  32
BRANCH  11  36
ATOM     36  O   UNL     1      14.127 -18.407 180.743  0.00  0.00    +0.000 OA
ATOM     37  H   UNL     1      13.295 -18.018 181.063  0.00  0.00    +0.000 HD
ENDBRANCH  11  36
ENDBRANCH  10  29
ENDBRANCH   2  10
BRANCH   6  38
ATOM     38  O   UNL     1       9.715  -8.449 181.678  0.00  0.00    +0.000 OA
BRANCH  38  40
ATOM     39  O   UNL     1       8.879  -7.332 183.598  0.00  0.00    +0.000 OA
ATOM     40  C   UNL     1       9.864  -7.357 182.574  0.00  0.00    +0.000 C 
ATOM     41  C   UNL     1      10.034  -5.986 181.926  0.00  0.00    +0.000 C 
ATOM     42  C   UNL     1       9.455  -4.862 182.779  0.00  0.00    +0.000 C 
ATOM     43  C   UNL     1       9.313  -6.532 184.715  0.00  0.00    +0.000 C 
ATOM     44  C   UNL     1       9.592  -5.064 184.302  0.00  0.00    +0.000 C 
ATOM     45  C   UNL     1       8.206  -6.607 185.764  0.00  0.00    +0.000 C 
BRANCH  42  46
ATOM     46  O   UNL     1       9.959  -3.595 182.360  0.00  0.00    +0.000 OA
ATOM     47  H   UNL     1      10.292  -3.685 181.450  0.00  0.00    +0.000 HD
ENDBRANCH  42  46
BRANCH  44  48
ATOM     48  O   UNL     1      10.764  -4.546 184.944  0.00  0.00    +0.000 OA
BRANCH  48  50
ATOM     49  O   UNL     1      10.535  -4.350 187.272  0.00  0.00    +0.000 OA
ATOM     50  C   UNL     1      10.608  -3.649 186.037  0.00  0.00    +0.000 C 
ATOM     51  C   UNL     1       9.290  -2.901 185.807  0.00  0.00    +0.000 C 
ATOM     52  C   UNL     1       8.638  -2.462 187.116  0.00  0.00    +0.000 C 
ATOM     53  C   UNL     1      10.544  -3.474 188.415  0.00  0.00    +0.000 C 
ATOM     54  C   UNL     1       9.689  -2.212 188.199  0.00  0.00    +0.000 C 
ATOM     55  C   UNL     1      10.026  -4.301 189.586  0.00  0.00    +0.000 C 
BRANCH  52  56
ATOM     56  O   UNL     1       7.906  -1.252 186.883  0.00  0.00    +0.000 OA
ATOM     57  H   UNL     1       7.182  -1.219 187.534  0.00  0.00    +0.000 HD
ENDBRANCH  52  56
BRANCH  54  58
ATOM     58  O   UNL     1      10.538  -1.136 187.761  0.00  0.00    +0.000 OA
ATOM     59  H   UNL     1      11.377  -1.557 187.481  0.00  0.00    +0.000 HD
ENDBRANCH  54  58
ENDBRANCH  48  50
ENDBRANCH  44  48
ENDBRANCH  38  40
ENDBRANCH   6  38
TORSDOF 12
ENDMDL
