MODEL 1
REMARK VINA RESULT:      -8.6      0.000      0.000
REMARK  Name = CHEMBL35349.pdbqt.pdb
REMARK  2 active torsions:
REMARK  status: ('A' for Active; 'I' for Inactive)
REMARK    1  A    between atoms: C_2  and  C_11
REMARK    2  A    between atoms: C_5  and  O_21
REMARK                            x       y       z     vdW  Elec       q    Type
REMARK                         _______ _______ _______ _____ _____    ______ ____
ROOT
ATOM      1  N   UNL     1      17.557   0.916 191.125  0.00  0.00    +0.000 N 
ATOM      2  C   UNL     1      19.063   2.036 189.915  0.00  0.00    +0.000 A 
ATOM      3  C   UNL     1      19.566   1.856 191.251  0.00  0.00    +0.000 A 
ATOM      4  C   UNL     1      18.604   1.157 191.977  0.00  0.00    +0.000 A 
ATOM      5  C   UNL     1      17.812   1.436 189.884  0.00  0.00    +0.000 A 
ATOM      6  C   UNL     1      20.755   2.228 191.909  0.00  0.00    +0.000 A 
ATOM      7  C   UNL     1      18.762   0.807 193.322  0.00  0.00    +0.000 A 
ATOM      8  C   UNL     1      20.935   1.889 193.252  0.00  0.00    +0.000 A 
ATOM      9  C   UNL     1      19.952   1.190 193.942  0.00  0.00    +0.000 A 
ATOM     10  H   UNL     1      16.708   0.426 191.366  0.00  0.00    +0.000 HD
ENDROOT
BRANCH   2  11
ATOM     11  C   UNL     1      19.729   2.708 188.822  0.00  0.00    +0.000 C 
ATOM     12  N   UNL     1      19.893   2.149 187.651  0.00  0.00    +0.000 NA
ATOM     13  C   UNL     1      20.572   3.091 186.852  0.00  0.00    +0.000 A 
ATOM     14  C   UNL     1      20.859   4.286 187.507  0.00  0.00    +0.000 A 
ATOM     15  C   UNL     1      20.957   2.928 185.534  0.00  0.00    +0.000 A 
ATOM     16  C   UNL     1      20.324   4.112 188.842  0.00  0.00    +0.000 C 
ATOM     17  C   UNL     1      21.516   5.349 186.927  0.00  0.00    +0.000 A 
ATOM     18  O   UNL     1      20.331   4.879 189.776  0.00  0.00    +0.000 OA
ATOM     19  C   UNL     1      21.902   5.180 185.598  0.00  0.00    +0.000 A 
ATOM     20  C   UNL     1      21.627   3.986 184.910  0.00  0.00    +0.000 A 
ENDBRANCH   2  11
BRANCH   5  21
ATOM     21  O   UNL     1      16.882   1.278 188.950  0.00  0.00    +0.000 OA
ATOM     22  H   UNL     1      17.261   0.814 188.169  0.00  0.00    +0.000 HD
ENDBRANCH   5  21
TORSDOF 2
ENDMDL
MODEL 2
REMARK VINA RESULT:      -8.3      1.908      2.330
REMARK  Name = CHEMBL35349.pdbqt.pdb
REMARK  2 active torsions:
REMARK  status: ('A' for Active; 'I' for Inactive)
REMARK    1  A    between atoms: C_2  and  C_11
REMARK    2  A    between atoms: C_5  and  O_21
REMARK                            x       y       z     vdW  Elec       q    Type
REMARK                         _______ _______ _______ _____ _____    ______ ____
ROOT
ATOM      1  N   UNL     1      18.091   1.028 191.533  0.00  0.00    +0.000 N 
ATOM      2  C   UNL     1      19.903   2.232 191.030  0.00  0.00    +0.000 A 
ATOM      3  C   UNL     1      19.983   1.802 192.401  0.00  0.00    +0.000 A 
ATOM      4  C   UNL     1      18.840   1.056 192.680  0.00  0.00    +0.000 A 
ATOM      5  C   UNL     1      18.711   1.727 190.532  0.00  0.00    +0.000 A 
ATOM      6  C   UNL     1      20.927   1.982 193.431  0.00  0.00    +0.000 A 
ATOM      7  C   UNL     1      18.586   0.480 193.930  0.00  0.00    +0.000 A 
ATOM      8  C   UNL     1      20.696   1.416 194.686  0.00  0.00    +0.000 A 
ATOM      9  C   UNL     1      19.542   0.678 194.927  0.00  0.00    +0.000 A 
ATOM     10  H   UNL     1      17.203   0.560 191.425  0.00  0.00    +0.000 HD
ENDROOT
BRANCH   2  11
ATOM     11  C   UNL     1      20.873   3.030 190.315  0.00  0.00    +0.000 C 
ATOM     12  N   UNL     1      22.162   2.845 190.438  0.00  0.00    +0.000 NA
ATOM     13  C   UNL     1      22.782   3.795 189.601  0.00  0.00    +0.000 A 
ATOM     14  C   UNL     1      21.889   4.616 188.918  0.00  0.00    +0.000 A 
ATOM     15  C   UNL     1      24.141   3.966 189.414  0.00  0.00    +0.000 A 
ATOM     16  C   UNL     1      20.578   4.168 189.341  0.00  0.00    +0.000 C 
ATOM     17  C   UNL     1      22.265   5.615 188.046  0.00  0.00    +0.000 A 
ATOM     18  O   UNL     1      19.486   4.577 189.020  0.00  0.00    +0.000 OA
ATOM     19  C   UNL     1      23.635   5.784 187.862  0.00  0.00    +0.000 A 
ATOM     20  C   UNL     1      24.563   4.971 188.537  0.00  0.00    +0.000 A 
ENDBRANCH   2  11
BRANCH   5  21
ATOM     21  O   UNL     1      18.099   1.786 189.355  0.00  0.00    +0.000 OA
ATOM     22  H   UNL     1      17.364   1.132 189.322  0.00  0.00    +0.000 HD
ENDBRANCH   5  21
TORSDOF 2
ENDMDL
MODEL 3
REMARK VINA RESULT:      -8.2      2.399      6.395
REMARK  Name = CHEMBL35349.pdbqt.pdb
REMARK  2 active torsions:
REMARK  status: ('A' for Active; 'I' for Inactive)
REMARK    1  A    between atoms: C_2  and  C_11
REMARK    2  A    between atoms: C_5  and  O_21
REMARK                            x       y       z     vdW  Elec       q    Type
REMARK                         _______ _______ _______ _____ _____    ______ ____
ROOT
ATOM      1  N   UNL     1      21.551   5.682 187.886  0.00  0.00    +0.000 N 
ATOM      2  C   UNL     1      21.384   4.203 189.551  0.00  0.00    +0.000 A 
ATOM      3  C   UNL     1      22.760   4.308 189.145  0.00  0.00    +0.000 A 
ATOM      4  C   UNL     1      22.828   5.236 188.108  0.00  0.00    +0.000 A 
ATOM      5  C   UNL     1      20.670   5.074 188.741  0.00  0.00    +0.000 A 
ATOM      6  C   UNL     1      23.956   3.695 189.567  0.00  0.00    +0.000 A 
ATOM      7  C   UNL     1      24.022   5.586 187.468  0.00  0.00    +0.000 A 
ATOM      8  C   UNL     1      25.161   4.030 188.944  0.00  0.00    +0.000 A 
ATOM      9  C   UNL     1      25.187   4.961 187.912  0.00  0.00    +0.000 A 
ATOM     10  H   UNL     1      21.281   6.363 187.192  0.00  0.00    +0.000 HD
ENDROOT
BRANCH   2  11
ATOM     11  C   UNL     1      20.851   3.358 190.596  0.00  0.00    +0.000 C 
ATOM     12  N   UNL     1      21.459   3.192 191.742  0.00  0.00    +0.000 NA
ATOM     13  C   UNL     1      20.654   2.314 192.496  0.00  0.00    +0.000 A 
ATOM     14  C   UNL     1      19.501   1.896 191.836  0.00  0.00    +0.000 A 
ATOM     15  C   UNL     1      20.908   1.857 193.776  0.00  0.00    +0.000 A 
ATOM     16  C   UNL     1      19.555   2.554 190.547  0.00  0.00    +0.000 C 
ATOM     17  C   UNL     1      18.567   1.039 192.376  0.00  0.00    +0.000 A 
ATOM     18  O   UNL     1      18.775   2.500 189.625  0.00  0.00    +0.000 OA
ATOM     19  C   UNL     1      18.827   0.582 193.666  0.00  0.00    +0.000 A 
ATOM     20  C   UNL     1      19.982   0.984 194.358  0.00  0.00    +0.000 A 
ENDBRANCH   2  11
BRANCH   5  21
ATOM     21  O   UNL     1      19.389   5.410 188.643  0.00  0.00    +0.000 OA
ATOM     22  H   UNL     1      18.820   4.619 188.781  0.00  0.00    +0.000 HD
ENDBRANCH   5  21
TORSDOF 2
ENDMDL
MODEL 4
REMARK VINA RESULT:      -8.1      2.259      6.721
REMARK  Name = CHEMBL35349.pdbqt.pdb
REMARK  2 active torsions:
REMARK  status: ('A' for Active; 'I' for Inactive)
REMARK    1  A    between atoms: C_2  and  C_11
REMARK    2  A    between atoms: C_5  and  O_21
REMARK                            x       y       z     vdW  Elec       q    Type
REMARK                         _______ _______ _______ _____ _____    ______ ____
ROOT
ATOM      1  N   UNL     1      22.519   1.445 187.899  0.00  0.00    +0.000 N 
ATOM      2  C   UNL     1      21.223   1.437 189.717  0.00  0.00    +0.000 A 
ATOM      3  C   UNL     1      20.518   2.068 188.634  0.00  0.00    +0.000 A 
ATOM      4  C   UNL     1      21.353   2.057 187.519  0.00  0.00    +0.000 A 
ATOM      5  C   UNL     1      22.461   1.066 189.214  0.00  0.00    +0.000 A 
ATOM      6  C   UNL     1      19.242   2.651 188.502  0.00  0.00    +0.000 A 
ATOM      7  C   UNL     1      20.987   2.594 186.280  0.00  0.00    +0.000 A 
ATOM      8  C   UNL     1      18.854   3.192 187.275  0.00  0.00    +0.000 A 
ATOM      9  C   UNL     1      19.716   3.162 186.184  0.00  0.00    +0.000 A 
ATOM     10  H   UNL     1      23.319   1.289 187.304  0.00  0.00    +0.000 HD
ENDROOT
BRANCH   2  11
ATOM     11  C   UNL     1      20.737   1.230 191.063  0.00  0.00    +0.000 C 
ATOM     12  N   UNL     1      21.420   1.591 192.119  0.00  0.00    +0.000 NA
ATOM     13  C   UNL     1      20.641   1.235 193.238  0.00  0.00    +0.000 A 
ATOM     14  C   UNL     1      19.429   0.629 192.914  0.00  0.00    +0.000 A 
ATOM     15  C   UNL     1      20.970   1.429 194.566  0.00  0.00    +0.000 A 
ATOM     16  C   UNL     1      19.413   0.587 191.466  0.00  0.00    +0.000 C 
ATOM     17  C   UNL     1      18.507   0.197 193.841  0.00  0.00    +0.000 A 
ATOM     18  O   UNL     1      18.567   0.152 190.721  0.00  0.00    +0.000 OA
ATOM     19  C   UNL     1      18.843   0.395 195.179  0.00  0.00    +0.000 A 
ATOM     20  C   UNL     1      20.059   1.002 195.539  0.00  0.00    +0.000 A 
ENDBRANCH   2  11
BRANCH   5  21
ATOM     21  O   UNL     1      23.526   0.457 189.724  0.00  0.00    +0.000 OA
ATOM     22  H   UNL     1      24.146   0.200 189.005  0.00  0.00    +0.000 HD
ENDBRANCH   5  21
TORSDOF 2
ENDMDL
MODEL 5
REMARK VINA RESULT:      -8.0      1.634      6.170
REMARK  Name = CHEMBL35349.pdbqt.pdb
REMARK  2 active torsions:
REMARK  status: ('A' for Active; 'I' for Inactive)
REMARK    1  A    between atoms: C_2  and  C_11
REMARK    2  A    between atoms: C_5  and  O_21
REMARK                            x       y       z     vdW  Elec       q    Type
REMARK                         _______ _______ _______ _____ _____    ______ ____
ROOT
ATOM      1  N   UNL     1      18.885   3.045 187.105  0.00  0.00    +0.000 N 
ATOM      2  C   UNL     1      19.470   2.691 189.231  0.00  0.00    +0.000 A 
ATOM      3  C   UNL     1      20.428   3.568 188.615  0.00  0.00    +0.000 A 
ATOM      4  C   UNL     1      20.035   3.767 187.293  0.00  0.00    +0.000 A 
ATOM      5  C   UNL     1      18.530   2.392 188.255  0.00  0.00    +0.000 A 
ATOM      6  C   UNL     1      21.599   4.212 189.063  0.00  0.00    +0.000 A 
ATOM      7  C   UNL     1      20.743   4.573 186.394  0.00  0.00    +0.000 A 
ATOM      8  C   UNL     1      22.322   5.022 188.185  0.00  0.00    +0.000 A 
ATOM      9  C   UNL     1      21.896   5.196 186.873  0.00  0.00    +0.000 A 
ATOM     10  H   UNL     1      18.362   2.992 186.244  0.00  0.00    +0.000 HD
ENDROOT
BRANCH   2  11
ATOM     11  C   UNL     1      19.483   2.215 190.596  0.00  0.00    +0.000 C 
ATOM     12  N   UNL     1      20.528   2.341 191.373  0.00  0.00    +0.000 NA
ATOM     13  C   UNL     1      20.175   1.769 192.612  0.00  0.00    +0.000 A 
ATOM     14  C   UNL     1      18.880   1.259 192.650  0.00  0.00    +0.000 A 
ATOM     15  C   UNL     1      20.974   1.680 193.736  0.00  0.00    +0.000 A 
ATOM     16  C   UNL     1      18.342   1.518 191.330  0.00  0.00    +0.000 C 
ATOM     17  C   UNL     1      18.317   0.655 193.753  0.00  0.00    +0.000 A 
ATOM     18  O   UNL     1      17.249   1.257 190.882  0.00  0.00    +0.000 OA
ATOM     19  C   UNL     1      19.127   0.566 194.884  0.00  0.00    +0.000 A 
ATOM     20  C   UNL     1      20.439   1.072 194.877  0.00  0.00    +0.000 A 
ENDBRANCH   2  11
BRANCH   5  21
ATOM     21  O   UNL     1      17.430   1.648 188.223  0.00  0.00    +0.000 OA
ATOM     22  H   UNL     1      17.083   1.517 189.135  0.00  0.00    +0.000 HD
ENDBRANCH   5  21
TORSDOF 2
ENDMDL
MODEL 6
REMARK VINA RESULT:      -7.9      2.445      3.655
REMARK  Name = CHEMBL35349.pdbqt.pdb
REMARK  2 active torsions:
REMARK  status: ('A' for Active; 'I' for Inactive)
REMARK    1  A    between atoms: C_2  and  C_11
REMARK    2  A    between atoms: C_5  and  O_21
REMARK                            x       y       z     vdW  Elec       q    Type
REMARK                         _______ _______ _______ _____ _____    ______ ____
ROOT
ATOM      1  N   UNL     1      22.204   1.961 194.146  0.00  0.00    +0.000 N 
ATOM      2  C   UNL     1      21.149   1.959 192.178  0.00  0.00    +0.000 A 
ATOM      3  C   UNL     1      20.291   1.380 193.177  0.00  0.00    +0.000 A 
ATOM      4  C   UNL     1      20.979   1.396 194.389  0.00  0.00    +0.000 A 
ATOM      5  C   UNL     1      22.326   2.305 192.826  0.00  0.00    +0.000 A 
ATOM      6  C   UNL     1      18.990   0.841 193.159  0.00  0.00    +0.000 A 
ATOM      7  C   UNL     1      20.440   0.905 195.583  0.00  0.00    +0.000 A 
ATOM      8  C   UNL     1      18.431   0.345 194.339  0.00  0.00    +0.000 A 
ATOM      9  C   UNL     1      19.149   0.379 195.529  0.00  0.00    +0.000 A 
ATOM     10  H   UNL     1      22.927   2.109 194.835  0.00  0.00    +0.000 HD
ENDROOT
BRANCH   2  11
ATOM     11  C   UNL     1      20.844   2.145 190.777  0.00  0.00    +0.000 C 
ATOM     12  N   UNL     1      19.727   2.688 190.368  0.00  0.00    +0.000 NA
ATOM     13  C   UNL     1      19.784   2.702 188.959  0.00  0.00    +0.000 A 
ATOM     14  C   UNL     1      20.954   2.161 188.435  0.00  0.00    +0.000 A 
ATOM     15  C   UNL     1      18.816   3.188 188.101  0.00  0.00    +0.000 A 
ATOM     16  C   UNL     1      21.727   1.760 189.593  0.00  0.00    +0.000 C 
ATOM     17  C   UNL     1      21.231   2.068 187.088  0.00  0.00    +0.000 A 
ATOM     18  O   UNL     1      22.817   1.239 189.646  0.00  0.00    +0.000 OA
ATOM     19  C   UNL     1      20.251   2.559 186.227  0.00  0.00    +0.000 A 
ATOM     20  C   UNL     1      19.059   3.112 186.725  0.00  0.00    +0.000 A 
ENDBRANCH   2  11
BRANCH   5  21
ATOM     21  O   UNL     1      23.466   2.867 192.442  0.00  0.00    +0.000 OA
ATOM     22  H   UNL     1      24.039   3.040 193.223  0.00  0.00    +0.000 HD
ENDBRANCH   5  21
TORSDOF 2
ENDMDL
MODEL 7
REMARK VINA RESULT:      -7.9      1.910      6.098
REMARK  Name = CHEMBL35349.pdbqt.pdb
REMARK  2 active torsions:
REMARK  status: ('A' for Active; 'I' for Inactive)
REMARK    1  A    between atoms: C_2  and  C_11
REMARK    2  A    between atoms: C_5  and  O_21
REMARK                            x       y       z     vdW  Elec       q    Type
REMARK                         _______ _______ _______ _____ _____    ______ ____
ROOT
ATOM      1  N   UNL     1      17.484   1.959 188.845  0.00  0.00    +0.000 N 
ATOM      2  C   UNL     1      19.133   1.443 190.258  0.00  0.00    +0.000 A 
ATOM      3  C   UNL     1      19.695   1.997 189.056  0.00  0.00    +0.000 A 
ATOM      4  C   UNL     1      18.641   2.307 188.198  0.00  0.00    +0.000 A 
ATOM      5  C   UNL     1      17.757   1.439 190.081  0.00  0.00    +0.000 A 
ATOM      6  C   UNL     1      21.008   2.262 188.618  0.00  0.00    +0.000 A 
ATOM      7  C   UNL     1      18.824   2.867 186.929  0.00  0.00    +0.000 A 
ATOM      8  C   UNL     1      21.215   2.822 187.355  0.00  0.00    +0.000 A 
ATOM      9  C   UNL     1      20.137   3.117 186.528  0.00  0.00    +0.000 A 
ATOM     10  H   UNL     1      16.551   2.066 188.473  0.00  0.00    +0.000 HD
ENDROOT
BRANCH   2  11
ATOM     11  C   UNL     1      19.859   0.981 191.420  0.00  0.00    +0.000 C 
ATOM     12  N   UNL     1      19.880  -0.276 191.781  0.00  0.00    +0.000 NA
ATOM     13  C   UNL     1      20.676  -0.344 192.942  0.00  0.00    +0.000 A 
ATOM     14  C   UNL     1      21.187   0.885 193.351  0.00  0.00    +0.000 A 
ATOM     15  C   UNL     1      20.976  -1.480 193.670  0.00  0.00    +0.000 A 
ATOM     16  C   UNL     1      20.684   1.835 192.379  0.00  0.00    +0.000 C 
ATOM     17  C   UNL     1      21.990   1.062 194.456  0.00  0.00    +0.000 A 
ATOM     18  O   UNL     1      20.857   3.030 192.313  0.00  0.00    +0.000 OA
ATOM     19  C   UNL     1      22.289  -0.086 195.187  0.00  0.00    +0.000 A 
ATOM     20  C   UNL     1      21.788  -1.342 194.800  0.00  0.00    +0.000 A 
ENDBRANCH   2  11
BRANCH   5  21
ATOM     21  O   UNL     1      16.727   1.056 190.827  0.00  0.00    +0.000 OA
ATOM     22  H   UNL     1      15.914   0.996 190.276  0.00  0.00    +0.000 HD
ENDBRANCH   5  21
TORSDOF 2
ENDMDL
MODEL 8
REMARK VINA RESULT:      -7.5      2.465      2.923
REMARK  Name = CHEMBL35349.pdbqt.pdb
REMARK  2 active torsions:
REMARK  status: ('A' for Active; 'I' for Inactive)
REMARK    1  A    between atoms: C_2  and  C_11
REMARK    2  A    between atoms: C_5  and  O_21
REMARK                            x       y       z     vdW  Elec       q    Type
REMARK                         _______ _______ _______ _____ _____    ______ ____
ROOT
ATOM      1  N   UNL     1      22.102   0.155 191.263  0.00  0.00    +0.000 N 
ATOM      2  C   UNL     1      21.751   1.580 189.580  0.00  0.00    +0.000 A 
ATOM      3  C   UNL     1      20.613   1.595 190.460  0.00  0.00    +0.000 A 
ATOM      4  C   UNL     1      20.865   0.697 191.496  0.00  0.00    +0.000 A 
ATOM      5  C   UNL     1      22.649   0.670 190.118  0.00  0.00    +0.000 A 
ATOM      6  C   UNL     1      19.389   2.293 190.469  0.00  0.00    +0.000 A 
ATOM      7  C   UNL     1      19.964   0.457 192.539  0.00  0.00    +0.000 A 
ATOM      8  C   UNL     1      18.475   2.070 191.500  0.00  0.00    +0.000 A 
ATOM      9  C   UNL     1      18.762   1.166 192.516  0.00  0.00    +0.000 A 
ATOM     10  H   UNL     1      22.559  -0.532 191.845  0.00  0.00    +0.000 HD
ENDROOT
BRANCH   2  11
ATOM     11  C   UNL     1      21.923   2.357 188.374  0.00  0.00    +0.000 C 
ATOM     12  N   UNL     1      21.144   2.218 187.331  0.00  0.00    +0.000 NA
ATOM     13  C   UNL     1      21.610   3.129 186.362  0.00  0.00    +0.000 A 
ATOM     14  C   UNL     1      22.710   3.878 186.771  0.00  0.00    +0.000 A 
ATOM     15  C   UNL     1      21.085   3.327 185.098  0.00  0.00    +0.000 A 
ATOM     16  C   UNL     1      22.987   3.421 188.118  0.00  0.00    +0.000 C 
ATOM     17  C   UNL     1      23.334   4.828 185.993  0.00  0.00    +0.000 A 
ATOM     18  O   UNL     1      23.851   3.776 188.886  0.00  0.00    +0.000 OA
ATOM     19  C   UNL     1      22.801   5.024 184.720  0.00  0.00    +0.000 A 
ATOM     20  C   UNL     1      21.691   4.283 184.277  0.00  0.00    +0.000 A 
ENDBRANCH   2  11
BRANCH   5  21
ATOM     21  O   UNL     1      23.853   0.235 189.765  0.00  0.00    +0.000 OA
ATOM     22  H   UNL     1      24.550   0.812 190.153  0.00  0.00    +0.000 HD
ENDBRANCH   5  21
TORSDOF 2
ENDMDL
MODEL 9
REMARK VINA RESULT:      -7.4      2.852      3.621
REMARK  Name = CHEMBL35349.pdbqt.pdb
REMARK  2 active torsions:
REMARK  status: ('A' for Active; 'I' for Inactive)
REMARK    1  A    between atoms: C_2  and  C_11
REMARK    2  A    between atoms: C_5  and  O_21
REMARK                            x       y       z     vdW  Elec       q    Type
REMARK                         _______ _______ _______ _____ _____    ______ ____
ROOT
ATOM      1  N   UNL     1      22.174  -1.234 192.240  0.00  0.00    +0.000 N 
ATOM      2  C   UNL     1      21.812   0.785 191.358  0.00  0.00    +0.000 A 
ATOM      3  C   UNL     1      20.770   0.486 192.303  0.00  0.00    +0.000 A 
ATOM      4  C   UNL     1      21.025  -0.778 192.832  0.00  0.00    +0.000 A 
ATOM      5  C   UNL     1      22.661  -0.312 191.352  0.00  0.00    +0.000 A 
ATOM      6  C   UNL     1      19.628   1.177 192.757  0.00  0.00    +0.000 A 
ATOM      7  C   UNL     1      20.207  -1.390 193.788  0.00  0.00    +0.000 A 
ATOM      8  C   UNL     1      18.797   0.586 193.711  0.00  0.00    +0.000 A 
ATOM      9  C   UNL     1      19.086  -0.676 194.215  0.00  0.00    +0.000 A 
ATOM     10  H   UNL     1      22.612  -2.125 192.422  0.00  0.00    +0.000 HD
ENDROOT
BRANCH   2  11
ATOM     11  C   UNL     1      21.947   1.990 190.571  0.00  0.00    +0.000 C 
ATOM     12  N   UNL     1      23.076   2.644 190.478  0.00  0.00    +0.000 NA
ATOM     13  C   UNL     1      22.829   3.749 189.638  0.00  0.00    +0.000 A 
ATOM     14  C   UNL     1      21.519   3.823 189.173  0.00  0.00    +0.000 A 
ATOM     15  C   UNL     1      23.741   4.716 189.260  0.00  0.00    +0.000 A 
ATOM     16  C   UNL     1      20.855   2.674 189.755  0.00  0.00    +0.000 C 
ATOM     17  C   UNL     1      21.047   4.814 188.341  0.00  0.00    +0.000 A 
ATOM     18  O   UNL     1      19.707   2.313 189.641  0.00  0.00    +0.000 OA
ATOM     19  C   UNL     1      21.969   5.788 187.962  0.00  0.00    +0.000 A 
ATOM     20  C   UNL     1      23.300   5.741 188.415  0.00  0.00    +0.000 A 
ENDBRANCH   2  11
BRANCH   5  21
ATOM     21  O   UNL     1      23.776  -0.619 190.699  0.00  0.00    +0.000 OA
ATOM     22  H   UNL     1      23.654  -0.472 189.733  0.00  0.00    +0.000 HD
ENDBRANCH   5  21
TORSDOF 2
ENDMDL
