MODEL 1
REMARK VINA RESULT:      -8.3      0.000      0.000
REMARK  Name = Chlortetracycline.pdbqt.pdb
REMARK  7 active torsions:
REMARK  status: ('A' for Active; 'I' for Inactive)
REMARK    1  A    between atoms: C_7  and  O_30
REMARK    2  A    between atoms: C_8  and  N_32
REMARK    3  A    between atoms: C_9  and  O_37
REMARK    4  A    between atoms: C_12  and  O_28
REMARK    5  A    between atoms: C_15  and  O_35
REMARK    6  A    between atoms: C_16  and  C_23
REMARK    7  A    between atoms: C_20  and  O_39
REMARK                            x       y       z     vdW  Elec       q    Type
REMARK                         _______ _______ _______ _____ _____    ______ ____
ROOT
ATOM      1 CL   UNL     1      24.609   4.779 188.702  0.00  0.00    +0.000 Cl
ATOM      2  O   UNL     1      18.946  -0.126 190.978  0.00  0.00    +0.000 OA
ATOM      3  O   UNL     1      22.205   1.441 195.969  0.00  0.00    +0.000 OA
ATOM      4  C   UNL     1      22.096  -0.255 192.973  0.00  0.00    +0.000 C 
ATOM      5  C   UNL     1      22.188   1.562 191.062  0.00  0.00    +0.000 C 
ATOM      6  C   UNL     1      22.632   0.702 192.086  0.00  0.00    +0.000 C 
ATOM      7  C   UNL     1      20.626  -0.509 192.743  0.00  0.00    +0.000 C 
ATOM      8  C   UNL     1      22.538  -0.270 194.357  0.00  0.00    +0.000 C 
ATOM      9  C   UNL     1      23.032   2.405 190.147  0.00  0.00    +0.000 C 
ATOM     10  C   UNL     1      20.774   1.396 190.801  0.00  0.00    +0.000 C 
ATOM     11  C   UNL     1      20.032   0.234 191.454  0.00  0.00    +0.000 C 
ATOM     12  C   UNL     1      19.752  -0.114 193.938  0.00  0.00    +0.000 C 
ATOM     13  C   UNL     1      22.251   3.492 189.426  0.00  0.00    +0.000 A 
ATOM     14  C   UNL     1      21.708   0.581 195.255  0.00  0.00    +0.000 C 
ATOM     15  C   UNL     1      20.129   2.235 189.970  0.00  0.00    +0.000 C 
ATOM     16  C   UNL     1      20.230   0.411 195.091  0.00  0.00    +0.000 C 
ATOM     17  C   UNL     1      20.825   3.417 189.372  0.00  0.00    +0.000 A 
ATOM     18  C   UNL     1      23.752   1.470 189.154  0.00  0.00    +0.000 C 
ATOM     19  C   UNL     1      22.893   4.583 188.792  0.00  0.00    +0.000 A 
ATOM     20  C   UNL     1      20.122   4.473 188.752  0.00  0.00    +0.000 A 
ATOM     21  C   UNL     1      22.164   5.587 188.162  0.00  0.00    +0.000 A 
ATOM     22  C   UNL     1      20.783   5.542 188.154  0.00  0.00    +0.000 A 
ENDROOT
BRANCH  16  23
ATOM     23  C   UNL     1      19.356   0.736 196.253  0.00  0.00    +0.000 C 
ATOM     24  O   UNL     1      18.188   1.076 196.113  0.00  0.00    +0.000 OA
ATOM     25  N   UNL     1      19.917   0.657 197.490  0.00  0.00    +0.000 N 
ATOM     26  H   UNL     1      20.926   0.656 197.592  0.00  0.00    +0.000 HD
ATOM     27  H   UNL     1      19.362   0.991 198.265  0.00  0.00    +0.000 HD
ENDBRANCH  16  23
BRANCH   8  28
ATOM     28  N   UNL     1      23.242  -1.395 194.911  0.00  0.00    +0.000 NA
ATOM     29  C   UNL     1      24.692  -1.279 194.842  0.00  0.00    +0.000 C 
ATOM     30  C   UNL     1      22.882  -1.695 196.282  0.00  0.00    +0.000 C 
ENDBRANCH   8  28
BRANCH  12  31
ATOM     31  O   UNL     1      18.392  -0.404 193.800  0.00  0.00    +0.000 OA
ATOM     32  H   UNL     1      18.122  -0.193 192.876  0.00  0.00    +0.000 HD
ENDBRANCH  12  31
BRANCH   7  33
ATOM     33  O   UNL     1      20.435  -1.918 192.606  0.00  0.00    +0.000 OA
ATOM     34  H   UNL     1      19.980  -2.082 191.760  0.00  0.00    +0.000 HD
ENDBRANCH   7  33
BRANCH  15  35
ATOM     35  O   UNL     1      18.813   2.060 189.599  0.00  0.00    +0.000 OA
ATOM     36  H   UNL     1      18.219   2.552 190.204  0.00  0.00    +0.000 HD
ENDBRANCH  15  35
BRANCH   9  37
ATOM     37  O   UNL     1      24.038   2.975 190.961  0.00  0.00    +0.000 OA
ATOM     38  H   UNL     1      23.707   3.886 191.063  0.00  0.00    +0.000 HD
ENDBRANCH   9  37
BRANCH  20  39
ATOM     39  O   UNL     1      18.754   4.519 188.753  0.00  0.00    +0.000 OA
ATOM     40  H   UNL     1      18.456   5.307 189.240  0.00  0.00    +0.000 HD
ENDBRANCH  20  39
TORSDOF 7
ENDMDL
MODEL 2
REMARK VINA RESULT:      -7.8      3.551      5.113
REMARK  Name = Chlortetracycline.pdbqt.pdb
REMARK  7 active torsions:
REMARK  status: ('A' for Active; 'I' for Inactive)
REMARK    1  A    between atoms: C_7  and  O_30
REMARK    2  A    between atoms: C_8  and  N_32
REMARK    3  A    between atoms: C_9  and  O_37
REMARK    4  A    between atoms: C_12  and  O_28
REMARK    5  A    between atoms: C_15  and  O_35
REMARK    6  A    between atoms: C_16  and  C_23
REMARK    7  A    between atoms: C_20  and  O_39
REMARK                            x       y       z     vdW  Elec       q    Type
REMARK                         _______ _______ _______ _____ _____    ______ ____
ROOT
ATOM      1 CL   UNL     1      21.289   2.986 185.510  0.00  0.00    +0.000 Cl
ATOM      2  O   UNL     1      22.804  -0.689 192.256  0.00  0.00    +0.000 OA
ATOM      3  O   UNL     1      27.175   3.571 191.403  0.00  0.00    +0.000 OA
ATOM      4  C   UNL     1      25.781   0.585 190.403  0.00  0.00    +0.000 C 
ATOM      5  C   UNL     1      23.513   1.168 189.187  0.00  0.00    +0.000 C 
ATOM      6  C   UNL     1      24.899   1.009 189.388  0.00  0.00    +0.000 C 
ATOM      7  C   UNL     1      25.062   0.080 191.631  0.00  0.00    +0.000 C 
ATOM      8  C   UNL     1      27.006   1.330 190.640  0.00  0.00    +0.000 C 
ATOM      9  C   UNL     1      22.810   1.518 187.905  0.00  0.00    +0.000 C 
ATOM     10  C   UNL     1      22.754   0.730 190.339  0.00  0.00    +0.000 C 
ATOM     11  C   UNL     1      23.472  -0.013 191.461  0.00  0.00    +0.000 C 
ATOM     12  C   UNL     1      25.337   0.926 192.879  0.00  0.00    +0.000 C 
ATOM     13  C   UNL     1      21.377   1.986 188.104  0.00  0.00    +0.000 A 
ATOM     14  C   UNL     1      26.854   2.417 191.647  0.00  0.00    +0.000 C 
ATOM     15  C   UNL     1      21.427   0.946 190.405  0.00  0.00    +0.000 C 
ATOM     16  C   UNL     1      26.138   2.017 192.900  0.00  0.00    +0.000 C 
ATOM     17  C   UNL     1      20.718   1.728 189.345  0.00  0.00    +0.000 A 
ATOM     18  C   UNL     1      22.883   0.298 186.965  0.00  0.00    +0.000 C 
ATOM     19  C   UNL     1      20.662   2.666 187.089  0.00  0.00    +0.000 A 
ATOM     20  C   UNL     1      19.410   2.231 189.526  0.00  0.00    +0.000 A 
ATOM     21  C   UNL     1      19.361   3.115 187.296  0.00  0.00    +0.000 A 
ATOM     22  C   UNL     1      18.741   2.913 188.514  0.00  0.00    +0.000 A 
ENDROOT
BRANCH  16  23
ATOM     23  C   UNL     1      26.423   2.786 194.144  0.00  0.00    +0.000 C 
ATOM     24  O   UNL     1      26.784   2.239 195.177  0.00  0.00    +0.000 OA
ATOM     25  N   UNL     1      26.248   4.134 194.091  0.00  0.00    +0.000 N 
ATOM     26  H   UNL     1      25.692   4.546 193.350  0.00  0.00    +0.000 HD
ATOM     27  H   UNL     1      26.326   4.638 194.964  0.00  0.00    +0.000 HD
ENDBRANCH  16  23
BRANCH   8  28
ATOM     28  N   UNL     1      28.300   0.735 190.439  0.00  0.00    +0.000 NA
ATOM     29  C   UNL     1      29.082   1.361 189.382  0.00  0.00    +0.000 C 
ATOM     30  C   UNL     1      29.118   0.693 191.634  0.00  0.00    +0.000 C 
ENDBRANCH   8  28
BRANCH  12  31
ATOM     31  O   UNL     1      24.754   0.451 194.057  0.00  0.00    +0.000 OA
ATOM     32  H   UNL     1      25.435   0.470 194.768  0.00  0.00    +0.000 HD
ENDBRANCH  12  31
BRANCH   7  33
ATOM     33  O   UNL     1      25.581  -1.212 191.949  0.00  0.00    +0.000 OA
ATOM     34  H   UNL     1      26.549  -1.137 192.038  0.00  0.00    +0.000 HD
ENDBRANCH   7  33
BRANCH  15  35
ATOM     35  O   UNL     1      20.637   0.454 191.422  0.00  0.00    +0.000 OA
ATOM     36  H   UNL     1      21.136   0.438 192.265  0.00  0.00    +0.000 HD
ENDBRANCH  15  35
BRANCH   9  37
ATOM     37  O   UNL     1      23.584   2.536 187.301  0.00  0.00    +0.000 OA
ATOM     38  H   UNL     1      24.172   2.011 186.728  0.00  0.00    +0.000 HD
ENDBRANCH   9  37
BRANCH  20  39
ATOM     39  O   UNL     1      18.757   2.112 190.723  0.00  0.00    +0.000 OA
ATOM     40  H   UNL     1      19.211   2.648 191.395  0.00  0.00    +0.000 HD
ENDBRANCH  20  39
TORSDOF 7
ENDMDL
MODEL 3
REMARK VINA RESULT:      -7.4      3.451      5.651
REMARK  Name = Chlortetracycline.pdbqt.pdb
REMARK  7 active torsions:
REMARK  status: ('A' for Active; 'I' for Inactive)
REMARK    1  A    between atoms: C_7  and  O_30
REMARK    2  A    between atoms: C_8  and  N_32
REMARK    3  A    between atoms: C_9  and  O_37
REMARK    4  A    between atoms: C_12  and  O_28
REMARK    5  A    between atoms: C_15  and  O_35
REMARK    6  A    between atoms: C_16  and  C_23
REMARK    7  A    between atoms: C_20  and  O_39
REMARK                            x       y       z     vdW  Elec       q    Type
REMARK                         _______ _______ _______ _____ _____    ______ ____
ROOT
ATOM      1 CL   UNL     1      19.369   3.542 188.798  0.00  0.00    +0.000 Cl
ATOM      2  O   UNL     1      24.196  -1.609 192.185  0.00  0.00    +0.000 OA
ATOM      3  O   UNL     1      26.420   4.040 193.242  0.00  0.00    +0.000 OA
ATOM      4  C   UNL     1      25.786   1.538 190.963  0.00  0.00    +0.000 C 
ATOM      5  C   UNL     1      23.178   1.507 190.566  0.00  0.00    +0.000 C 
ATOM      6  C   UNL     1      24.522   1.918 190.467  0.00  0.00    +0.000 C 
ATOM      7  C   UNL     1      25.734   0.280 191.797  0.00  0.00    +0.000 C 
ATOM      8  C   UNL     1      26.715   2.561 191.409  0.00  0.00    +0.000 C 
ATOM      9  C   UNL     1      22.004   2.029 189.785  0.00  0.00    +0.000 C 
ATOM     10  C   UNL     1      23.042   0.317 191.378  0.00  0.00    +0.000 C 
ATOM     11  C   UNL     1      24.299  -0.433 191.810  0.00  0.00    +0.000 C 
ATOM     12  C   UNL     1      26.140   0.508 193.256  0.00  0.00    +0.000 C 
ATOM     13  C   UNL     1      20.658   1.659 190.389  0.00  0.00    +0.000 A 
ATOM     14  C   UNL     1      26.585   2.893 192.856  0.00  0.00    +0.000 C 
ATOM     15  C   UNL     1      21.824  -0.142 191.721  0.00  0.00    +0.000 C 
ATOM     16  C   UNL     1      26.511   1.706 193.766  0.00  0.00    +0.000 C 
ATOM     17  C   UNL     1      20.585   0.615 191.361  0.00  0.00    +0.000 A 
ATOM     18  C   UNL     1      22.129   1.530 188.332  0.00  0.00    +0.000 C 
ATOM     19  C   UNL     1      19.461   2.314 190.012  0.00  0.00    +0.000 A 
ATOM     20  C   UNL     1      19.333   0.337 191.953  0.00  0.00    +0.000 A 
ATOM     21  C   UNL     1      18.240   1.987 190.595  0.00  0.00    +0.000 A 
ATOM     22  C   UNL     1      18.176   1.013 191.573  0.00  0.00    +0.000 A 
ENDROOT
BRANCH  16  23
ATOM     23  C   UNL     1      26.950   1.882 195.180  0.00  0.00    +0.000 C 
ATOM     24  O   UNL     1      27.883   1.248 195.654  0.00  0.00    +0.000 OA
ATOM     25  N   UNL     1      26.253   2.772 195.937  0.00  0.00    +0.000 N 
ATOM     26  H   UNL     1      25.331   3.076 195.645  0.00  0.00    +0.000 HD
ATOM     27  H   UNL     1      26.474   2.803 196.923  0.00  0.00    +0.000 HD
ENDBRANCH  16  23
BRANCH   8  28
ATOM     28  N   UNL     1      27.978   2.771 190.752  0.00  0.00    +0.000 NA
ATOM     29  C   UNL     1      29.131   2.346 191.533  0.00  0.00    +0.000 C 
ATOM     30  C   UNL     1      28.069   2.151 189.446  0.00  0.00    +0.000 C 
ENDBRANCH   8  28
BRANCH  12  31
ATOM     31  O   UNL     1      26.182  -0.643 194.048  0.00  0.00    +0.000 OA
ATOM     32  H   UNL     1      26.579  -0.407 194.917  0.00  0.00    +0.000 HD
ENDBRANCH  12  31
BRANCH   7  33
ATOM     33  O   UNL     1      26.710  -0.631 191.289  0.00  0.00    +0.000 OA
ATOM     34  H   UNL     1      27.324  -0.130 190.720  0.00  0.00    +0.000 HD
ENDBRANCH   7  33
BRANCH  15  35
ATOM     35  O   UNL     1      21.632  -1.328 192.397  0.00  0.00    +0.000 OA
ATOM     36  H   UNL     1      22.389  -1.508 192.994  0.00  0.00    +0.000 HD
ENDBRANCH  15  35
BRANCH   9  37
ATOM     37  O   UNL     1      22.158   3.434 189.741  0.00  0.00    +0.000 OA
ATOM     38  H   UNL     1      22.355   3.632 190.675  0.00  0.00    +0.000 HD
ENDBRANCH   9  37
BRANCH  20  39
ATOM     39  O   UNL     1      19.206  -0.578 192.963  0.00  0.00    +0.000 OA
ATOM     40  H   UNL     1      19.470  -0.170 193.805  0.00  0.00    +0.000 HD
ENDBRANCH  20  39
TORSDOF 7
ENDMDL
MODEL 4
REMARK VINA RESULT:      -7.0     16.254     19.318
REMARK  Name = Chlortetracycline.pdbqt.pdb
REMARK  7 active torsions:
REMARK  status: ('A' for Active; 'I' for Inactive)
REMARK    1  A    between atoms: C_7  and  O_30
REMARK    2  A    between atoms: C_8  and  N_32
REMARK    3  A    between atoms: C_9  and  O_37
REMARK    4  A    between atoms: C_12  and  O_28
REMARK    5  A    between atoms: C_15  and  O_35
REMARK    6  A    between atoms: C_16  and  C_23
REMARK    7  A    between atoms: C_20  and  O_39
REMARK                            x       y       z     vdW  Elec       q    Type
REMARK                         _______ _______ _______ _____ _____    ______ ____
ROOT
ATOM      1 CL   UNL     1      35.361 -11.031 195.032  0.00  0.00    +0.000 Cl
ATOM      2  O   UNL     1      29.179 -15.628 196.430  0.00  0.00    +0.000 OA
ATOM      3  O   UNL     1      31.336 -13.663 201.858  0.00  0.00    +0.000 OA
ATOM      4  C   UNL     1      31.819 -15.620 199.067  0.00  0.00    +0.000 C 
ATOM      5  C   UNL     1      32.382 -13.985 197.073  0.00  0.00    +0.000 C 
ATOM      6  C   UNL     1      32.565 -14.756 198.239  0.00  0.00    +0.000 C 
ATOM      7  C   UNL     1      30.425 -15.873 198.544  0.00  0.00    +0.000 C 
ATOM      8  C   UNL     1      31.951 -15.516 200.509  0.00  0.00    +0.000 C 
ATOM      9  C   UNL     1      33.431 -13.241 196.296  0.00  0.00    +0.000 C 
ATOM     10  C   UNL     1      31.052 -14.154 196.526  0.00  0.00    +0.000 C 
ATOM     11  C   UNL     1      30.148 -15.241 197.099  0.00  0.00    +0.000 C 
ATOM     12  C   UNL     1      29.329 -15.359 199.482  0.00  0.00    +0.000 C 
ATOM     13  C   UNL     1      32.861 -12.212 195.332  0.00  0.00    +0.000 A 
ATOM     14  C   UNL     1      30.977 -14.576 201.129  0.00  0.00    +0.000 C 
ATOM     15  C   UNL     1      30.630 -13.384 195.506  0.00  0.00    +0.000 C 
ATOM     16  C   UNL     1      29.564 -14.739 200.662  0.00  0.00    +0.000 C 
ATOM     17  C   UNL     1      31.479 -12.272 194.976  0.00  0.00    +0.000 A 
ATOM     18  C   UNL     1      34.316 -14.272 195.567  0.00  0.00    +0.000 C 
ATOM     19  C   UNL     1      33.661 -11.193 194.763  0.00  0.00    +0.000 A 
ATOM     20  C   UNL     1      30.961 -11.266 194.130  0.00  0.00    +0.000 A 
ATOM     21  C   UNL     1      33.119 -10.240 193.906  0.00  0.00    +0.000 A 
ATOM     22  C   UNL     1      31.772 -10.265 193.601  0.00  0.00    +0.000 A 
ENDROOT
BRANCH  16  23
ATOM     23  C   UNL     1      28.471 -14.297 201.575  0.00  0.00    +0.000 C 
ATOM     24  O   UNL     1      27.745 -15.095 202.154  0.00  0.00    +0.000 OA
ATOM     25  N   UNL     1      28.297 -12.957 201.728  0.00  0.00    +0.000 N 
ATOM     26  H   UNL     1      28.692 -12.312 201.052  0.00  0.00    +0.000 HD
ATOM     27  H   UNL     1      27.485 -12.659 202.250  0.00  0.00    +0.000 HD
ENDBRANCH  16  23
BRANCH   8  28
ATOM     28  N   UNL     1      32.482 -16.597 201.297  0.00  0.00    +0.000 NA
ATOM     29  C   UNL     1      31.475 -17.332 202.050  0.00  0.00    +0.000 C 
ATOM     30  C   UNL     1      33.257 -17.553 200.534  0.00  0.00    +0.000 C 
ENDBRANCH   8  28
BRANCH  12  31
ATOM     31  O   UNL     1      28.021 -15.640 199.077  0.00  0.00    +0.000 OA
ATOM     32  H   UNL     1      27.441 -14.898 199.364  0.00  0.00    +0.000 HD
ENDBRANCH  12  31
BRANCH   7  33
ATOM     33  O   UNL     1      30.221 -17.286 198.490  0.00  0.00    +0.000 OA
ATOM     34  H   UNL     1      29.633 -17.535 199.227  0.00  0.00    +0.000 HD
ENDBRANCH   7  33
BRANCH  15  35
ATOM     35  O   UNL     1      29.420 -13.574 194.874  0.00  0.00    +0.000 OA
ATOM     36  H   UNL     1      29.401 -14.446 194.428  0.00  0.00    +0.000 HD
ENDBRANCH  15  35
BRANCH   9  37
ATOM     37  O   UNL     1      34.257 -12.614 197.258  0.00  0.00    +0.000 OA
ATOM     38  H   UNL     1      34.600 -11.857 196.749  0.00  0.00    +0.000 HD
ENDBRANCH   9  37
BRANCH  20  39
ATOM     39  O   UNL     1      29.628 -11.200 193.828  0.00  0.00    +0.000 OA
ATOM     40  H   UNL     1      29.146 -11.870 194.343  0.00  0.00    +0.000 HD
ENDBRANCH  20  39
TORSDOF 7
ENDMDL
MODEL 5
REMARK VINA RESULT:      -6.8      7.576     11.196
REMARK  Name = Chlortetracycline.pdbqt.pdb
REMARK  7 active torsions:
REMARK  status: ('A' for Active; 'I' for Inactive)
REMARK    1  A    between atoms: C_7  and  O_30
REMARK    2  A    between atoms: C_8  and  N_32
REMARK    3  A    between atoms: C_9  and  O_37
REMARK    4  A    between atoms: C_12  and  O_28
REMARK    5  A    between atoms: C_15  and  O_35
REMARK    6  A    between atoms: C_16  and  C_23
REMARK    7  A    between atoms: C_20  and  O_39
REMARK                            x       y       z     vdW  Elec       q    Type
REMARK                         _______ _______ _______ _____ _____    ______ ____
ROOT
ATOM      1 CL   UNL     1      29.310  -2.011 195.205  0.00  0.00    +0.000 Cl
ATOM      2  O   UNL     1      28.023   3.892 190.225  0.00  0.00    +0.000 OA
ATOM      3  O   UNL     1      33.579   1.540 188.969  0.00  0.00    +0.000 OA
ATOM      4  C   UNL     1      31.590   3.307 191.154  0.00  0.00    +0.000 C 
ATOM      5  C   UNL     1      29.957   1.567 192.280  0.00  0.00    +0.000 C 
ATOM      6  C   UNL     1      31.139   2.287 192.017  0.00  0.00    +0.000 C 
ATOM      7  C   UNL     1      30.489   3.867 190.285  0.00  0.00    +0.000 C 
ATOM      8  C   UNL     1      32.897   3.190 190.532  0.00  0.00    +0.000 C 
ATOM      9  C   UNL     1      29.709   0.594 193.400  0.00  0.00    +0.000 C 
ATOM     10  C   UNL     1      28.857   2.030 191.461  0.00  0.00    +0.000 C 
ATOM     11  C   UNL     1      29.032   3.301 190.635  0.00  0.00    +0.000 C 
ATOM     12  C   UNL     1      30.722   3.627 188.790  0.00  0.00    +0.000 C 
ATOM     13  C   UNL     1      28.488  -0.286 193.183  0.00  0.00    +0.000 A 
ATOM     14  C   UNL     1      32.868   2.504 189.211  0.00  0.00    +0.000 C 
ATOM     15  C   UNL     1      27.686   1.367 191.451  0.00  0.00    +0.000 C 
ATOM     16  C   UNL     1      31.797   2.981 188.280  0.00  0.00    +0.000 C 
ATOM     17  C   UNL     1      27.517   0.085 192.203  0.00  0.00    +0.000 A 
ATOM     18  C   UNL     1      29.610   1.389 194.718  0.00  0.00    +0.000 C 
ATOM     19  C   UNL     1      28.273  -1.466 193.933  0.00  0.00    +0.000 A 
ATOM     20  C   UNL     1      26.427  -0.784 191.978  0.00  0.00    +0.000 A 
ATOM     21  C   UNL     1      27.166  -2.279 193.704  0.00  0.00    +0.000 A 
ATOM     22  C   UNL     1      26.253  -1.949 192.720  0.00  0.00    +0.000 A 
ENDROOT
BRANCH  16  23
ATOM     23  C   UNL     1      32.017   2.811 186.816  0.00  0.00    +0.000 C 
ATOM     24  O   UNL     1      31.147   2.373 186.074  0.00  0.00    +0.000 OA
ATOM     25  N   UNL     1      33.243   3.147 186.332  0.00  0.00    +0.000 N 
ATOM     26  H   UNL     1      34.033   3.234 186.962  0.00  0.00    +0.000 HD
ATOM     27  H   UNL     1      33.429   2.920 185.364  0.00  0.00    +0.000 HD
ENDBRANCH  16  23
BRANCH   8  28
ATOM     28  N   UNL     1      33.951   4.128 190.812  0.00  0.00    +0.000 NA
ATOM     29  C   UNL     1      33.922   5.320 189.976  0.00  0.00    +0.000 C 
ATOM     30  C   UNL     1      34.005   4.554 192.196  0.00  0.00    +0.000 C 
ENDBRANCH   8  28
BRANCH  12  31
ATOM     31  O   UNL     1      29.768   4.196 187.942  0.00  0.00    +0.000 OA
ATOM     32  H   UNL     1      29.212   4.813 188.471  0.00  0.00    +0.000 HD
ENDBRANCH  12  31
BRANCH   7  33
ATOM     33  O   UNL     1      30.491   5.289 190.427  0.00  0.00    +0.000 OA
ATOM     34  H   UNL     1      29.686   5.546 190.913  0.00  0.00    +0.000 HD
ENDBRANCH   7  33
BRANCH  15  35
ATOM     35  O   UNL     1      26.572   1.823 190.778  0.00  0.00    +0.000 OA
ATOM     36  H   UNL     1      26.748   2.700 190.379  0.00  0.00    +0.000 HD
ENDBRANCH  15  35
BRANCH   9  37
ATOM     37  O   UNL     1      30.879  -0.195 193.495  0.00  0.00    +0.000 OA
ATOM     38  H   UNL     1      30.504  -1.094 193.460  0.00  0.00    +0.000 HD
ENDBRANCH   9  37
BRANCH  20  39
ATOM     39  O   UNL     1      25.515  -0.546 190.986  0.00  0.00    +0.000 OA
ATOM     40  H   UNL     1      25.852  -0.896 190.144  0.00  0.00    +0.000 HD
ENDBRANCH  20  39
TORSDOF 7
ENDMDL
MODEL 6
REMARK VINA RESULT:      -6.6     33.883     37.271
REMARK  Name = Chlortetracycline.pdbqt.pdb
REMARK  7 active torsions:
REMARK  status: ('A' for Active; 'I' for Inactive)
REMARK    1  A    between atoms: C_7  and  O_30
REMARK    2  A    between atoms: C_8  and  N_32
REMARK    3  A    between atoms: C_9  and  O_37
REMARK    4  A    between atoms: C_12  and  O_28
REMARK    5  A    between atoms: C_15  and  O_35
REMARK    6  A    between atoms: C_16  and  C_23
REMARK    7  A    between atoms: C_20  and  O_39
REMARK                            x       y       z     vdW  Elec       q    Type
REMARK                         _______ _______ _______ _____ _____    ______ ____
ROOT
ATOM      1 CL   UNL     1      38.314  -5.513 167.395  0.00  0.00    +0.000 Cl
ATOM      2  O   UNL     1      43.173  -9.803 163.004  0.00  0.00    +0.000 OA
ATOM      3  O   UNL     1      41.473  -4.893 159.690  0.00  0.00    +0.000 OA
ATOM      4  C   UNL     1      40.573  -7.885 161.137  0.00  0.00    +0.000 C 
ATOM      5  C   UNL     1      40.455  -7.471 163.741  0.00  0.00    +0.000 C 
ATOM      6  C   UNL     1      40.072  -7.459 162.385  0.00  0.00    +0.000 C 
ATOM      7  C   UNL     1      41.872  -8.646 161.257  0.00  0.00    +0.000 C 
ATOM      8  C   UNL     1      40.448  -7.014 159.982  0.00  0.00    +0.000 C 
ATOM      9  C   UNL     1      39.630  -7.057 164.927  0.00  0.00    +0.000 C 
ATOM     10  C   UNL     1      41.713  -8.162 163.933  0.00  0.00    +0.000 C 
ATOM     11  C   UNL     1      42.317  -8.940 162.768  0.00  0.00    +0.000 C 
ATOM     12  C   UNL     1      43.046  -7.945 160.566  0.00  0.00    +0.000 C 
ATOM     13  C   UNL     1      40.448  -6.827 166.188  0.00  0.00    +0.000 A 
ATOM     14  C   UNL     1      41.612  -6.103 159.796  0.00  0.00    +0.000 C 
ATOM     15  C   UNL     1      42.324  -8.147 165.132  0.00  0.00    +0.000 C 
ATOM     16  C   UNL     1      42.950  -6.764 159.911  0.00  0.00    +0.000 C 
ATOM     17  C   UNL     1      41.780  -7.339 166.267  0.00  0.00    +0.000 A 
ATOM     18  C   UNL     1      38.533  -8.118 165.148  0.00  0.00    +0.000 C 
ATOM     19  C   UNL     1      39.928  -6.126 167.302  0.00  0.00    +0.000 A 
ATOM     20  C   UNL     1      42.539  -7.055 167.423  0.00  0.00    +0.000 A 
ATOM     21  C   UNL     1      40.698  -5.896 168.438  0.00  0.00    +0.000 A 
ATOM     22  C   UNL     1      42.004  -6.345 168.495  0.00  0.00    +0.000 A 
ENDROOT
BRANCH  16  23
ATOM     23  C   UNL     1      44.103  -6.135 159.206  0.00  0.00    +0.000 C 
ATOM     24  O   UNL     1      44.591  -6.623 158.195  0.00  0.00    +0.000 OA
ATOM     25  N   UNL     1      44.610  -4.994 159.746  0.00  0.00    +0.000 N 
ATOM     26  H   UNL     1      44.404  -4.752 160.709  0.00  0.00    +0.000 HD
ATOM     27  H   UNL     1      45.463  -4.636 159.338  0.00  0.00    +0.000 HD
ENDBRANCH  16  23
BRANCH   8  28
ATOM     28  N   UNL     1      39.659  -7.387 158.839  0.00  0.00    +0.000 NA
ATOM     29  C   UNL     1      40.445  -7.742 157.666  0.00  0.00    +0.000 C 
ATOM     30  C   UNL     1      38.727  -8.466 159.096  0.00  0.00    +0.000 C 
ENDBRANCH   8  28
BRANCH  12  31
ATOM     31  O   UNL     1      44.253  -8.650 160.584  0.00  0.00    +0.000 OA
ATOM     32  H   UNL     1      44.633  -8.590 161.490  0.00  0.00    +0.000 HD
ENDBRANCH  12  31
BRANCH   7  33
ATOM     33  O   UNL     1      41.728  -9.883 160.557  0.00  0.00    +0.000 OA
ATOM     34  H   UNL     1      42.620 -10.222 160.355  0.00  0.00    +0.000 HD
ENDBRANCH   7  33
BRANCH  15  35
ATOM     35  O   UNL     1      43.462  -8.877 165.403  0.00  0.00    +0.000 OA
ATOM     36  H   UNL     1      43.792  -9.310 164.588  0.00  0.00    +0.000 HD
ENDBRANCH  15  35
BRANCH   9  37
ATOM     37  O   UNL     1      38.966  -5.869 164.543  0.00  0.00    +0.000 OA
ATOM     38  H   UNL     1      38.555  -6.144 163.704  0.00  0.00    +0.000 HD
ENDBRANCH   9  37
BRANCH  20  39
ATOM     39  O   UNL     1      43.853  -7.424 167.525  0.00  0.00    +0.000 OA
ATOM     40  H   UNL     1      44.077  -8.029 166.798  0.00  0.00    +0.000 HD
ENDBRANCH  20  39
TORSDOF 7
ENDMDL
MODEL 7
REMARK VINA RESULT:      -6.6     27.748     30.266
REMARK  Name = Chlortetracycline.pdbqt.pdb
REMARK  7 active torsions:
REMARK  status: ('A' for Active; 'I' for Inactive)
REMARK    1  A    between atoms: C_7  and  O_30
REMARK    2  A    between atoms: C_8  and  N_32
REMARK    3  A    between atoms: C_9  and  O_37
REMARK    4  A    between atoms: C_12  and  O_28
REMARK    5  A    between atoms: C_15  and  O_35
REMARK    6  A    between atoms: C_16  and  C_23
REMARK    7  A    between atoms: C_20  and  O_39
REMARK                            x       y       z     vdW  Elec       q    Type
REMARK                         _______ _______ _______ _____ _____    ______ ____
ROOT
ATOM      1 CL   UNL     1      26.169  -0.089 158.292  0.00  0.00    +0.000 Cl
ATOM      2  O   UNL     1      27.777  -3.161 165.312  0.00  0.00    +0.000 OA
ATOM      3  O   UNL     1      32.324   0.743 163.873  0.00  0.00    +0.000 OA
ATOM      4  C   UNL     1      30.735  -2.245 163.231  0.00  0.00    +0.000 C 
ATOM      5  C   UNL     1      28.450  -1.657 162.048  0.00  0.00    +0.000 C 
ATOM      6  C   UNL     1      29.833  -1.873 162.212  0.00  0.00    +0.000 C 
ATOM      7  C   UNL     1      30.043  -2.585 164.530  0.00  0.00    +0.000 C 
ATOM      8  C   UNL     1      32.005  -1.550 163.347  0.00  0.00    +0.000 C 
ATOM      9  C   UNL     1      27.712  -1.397 160.765  0.00  0.00    +0.000 C 
ATOM     10  C   UNL     1      27.719  -1.936 163.266  0.00  0.00    +0.000 C 
ATOM     11  C   UNL     1      28.445  -2.605 164.429  0.00  0.00    +0.000 C 
ATOM     12  C   UNL     1      30.415  -1.637 165.675  0.00  0.00    +0.000 C 
ATOM     13  C   UNL     1      26.315  -0.832 160.969  0.00  0.00    +0.000 A 
ATOM     14  C   UNL     1      31.954  -0.362 164.244  0.00  0.00    +0.000 C 
ATOM     15  C   UNL     1      26.409  -1.641 163.359  0.00  0.00    +0.000 C 
ATOM     16  C   UNL     1      31.272  -0.596 165.556  0.00  0.00    +0.000 C 
ATOM     17  C   UNL     1      25.697  -0.929 162.253  0.00  0.00    +0.000 A 
ATOM     18  C   UNL     1      27.682  -2.706 159.950  0.00  0.00    +0.000 C 
ATOM     19  C   UNL     1      25.594  -0.216 159.918  0.00  0.00    +0.000 A 
ATOM     20  C   UNL     1      24.427  -0.338 162.431  0.00  0.00    +0.000 A 
ATOM     21  C   UNL     1      24.328   0.324 160.126  0.00  0.00    +0.000 A 
ATOM     22  C   UNL     1      23.751   0.277 161.381  0.00  0.00    +0.000 A 
ENDROOT
BRANCH  16  23
ATOM     23  C   UNL     1      31.650   0.274 166.705  0.00  0.00    +0.000 C 
ATOM     24  O   UNL     1      32.054  -0.187 167.764  0.00  0.00    +0.000 OA
ATOM     25  N   UNL     1      31.510   1.617 166.536  0.00  0.00    +0.000 N 
ATOM     26  H   UNL     1      30.923   1.978 165.791  0.00  0.00    +0.000 HD
ATOM     27  H   UNL     1      31.651   2.197 167.351  0.00  0.00    +0.000 HD
ENDBRANCH  16  23
BRANCH   8  28
ATOM     28  N   UNL     1      33.257  -2.233 163.158  0.00  0.00    +0.000 NA
ATOM     29  C   UNL     1      33.119  -3.634 162.789  0.00  0.00    +0.000 C 
ATOM     30  C   UNL     1      34.131  -1.599 162.192  0.00  0.00    +0.000 C 
ENDBRANCH   8  28
BRANCH  12  31
ATOM     31  O   UNL     1      29.859  -1.960 166.916  0.00  0.00    +0.000 OA
ATOM     32  H   UNL     1      30.261  -2.804 167.225  0.00  0.00    +0.000 HD
ENDBRANCH  12  31
BRANCH   7  33
ATOM     33  O   UNL     1      30.507  -3.866 164.957  0.00  0.00    +0.000 OA
ATOM     34  H   UNL     1      30.063  -4.085 165.797  0.00  0.00    +0.000 HD
ENDBRANCH   7  33
BRANCH  15  35
ATOM     35  O   UNL     1      25.638  -1.985 164.449  0.00  0.00    +0.000 OA
ATOM     36  H   UNL     1      24.686  -1.930 164.225  0.00  0.00    +0.000 HD
ENDBRANCH  15  35
BRANCH   9  37
ATOM     37  O   UNL     1      28.512  -0.489 160.033  0.00  0.00    +0.000 OA
ATOM     38  H   UNL     1      29.326  -0.477 160.570  0.00  0.00    +0.000 HD
ENDBRANCH   9  37
BRANCH  20  39
ATOM     39  O   UNL     1      23.819  -0.302 163.657  0.00  0.00    +0.000 OA
ATOM     40  H   UNL     1      23.862   0.602 164.013  0.00  0.00    +0.000 HD
ENDBRANCH  20  39
TORSDOF 7
ENDMDL
MODEL 8
REMARK VINA RESULT:      -6.5     13.796     16.009
REMARK  Name = Chlortetracycline.pdbqt.pdb
REMARK  7 active torsions:
REMARK  status: ('A' for Active; 'I' for Inactive)
REMARK    1  A    between atoms: C_7  and  O_30
REMARK    2  A    between atoms: C_8  and  N_32
REMARK    3  A    between atoms: C_9  and  O_37
REMARK    4  A    between atoms: C_12  and  O_28
REMARK    5  A    between atoms: C_15  and  O_35
REMARK    6  A    between atoms: C_16  and  C_23
REMARK    7  A    between atoms: C_20  and  O_39
REMARK                            x       y       z     vdW  Elec       q    Type
REMARK                         _______ _______ _______ _____ _____    ______ ____
ROOT
ATOM      1 CL   UNL     1       3.422  -7.432 186.688  0.00  0.00    +0.000 Cl
ATOM      2  O   UNL     1      10.419  -3.918 186.687  0.00  0.00    +0.000 OA
ATOM      3  O   UNL     1       8.392  -4.086 192.504  0.00  0.00    +0.000 OA
ATOM      4  C   UNL     1       8.042  -2.790 189.333  0.00  0.00    +0.000 C 
ATOM      5  C   UNL     1       7.037  -4.711 187.828  0.00  0.00    +0.000 C 
ATOM      6  C   UNL     1       7.089  -3.665 188.772  0.00  0.00    +0.000 C 
ATOM      7  C   UNL     1       9.412  -2.943 188.716  0.00  0.00    +0.000 C 
ATOM      8  C   UNL     1       8.011  -2.522 190.760  0.00  0.00    +0.000 C 
ATOM      9  C   UNL     1       5.812  -5.401 187.297  0.00  0.00    +0.000 C 
ATOM     10  C   UNL     1       8.326  -4.937 187.211  0.00  0.00    +0.000 C 
ATOM     11  C   UNL     1       9.454  -3.940 187.464  0.00  0.00    +0.000 C 
ATOM     12  C   UNL     1      10.471  -3.422 189.714  0.00  0.00    +0.000 C 
ATOM     13  C   UNL     1       6.110  -6.719 186.598  0.00  0.00    +0.000 A 
ATOM     14  C   UNL     1       8.848  -3.459 191.560  0.00  0.00    +0.000 C 
ATOM     15  C   UNL     1       8.520  -5.993 186.399  0.00  0.00    +0.000 C 
ATOM     16  C   UNL     1      10.225  -3.687 191.018  0.00  0.00    +0.000 C 
ATOM     17  C   UNL     1       7.447  -7.014 186.191  0.00  0.00    +0.000 A 
ATOM     18  C   UNL     1       5.070  -4.421 186.365  0.00  0.00    +0.000 C 
ATOM     19  C   UNL     1       5.097  -7.670 186.328  0.00  0.00    +0.000 A 
ATOM     20  C   UNL     1       7.706  -8.272 185.604  0.00  0.00    +0.000 A 
ATOM     21  C   UNL     1       5.388  -8.885 185.716  0.00  0.00    +0.000 A 
ATOM     22  C   UNL     1       6.689  -9.194 185.368  0.00  0.00    +0.000 A 
ENDROOT
BRANCH  16  23
ATOM     23  C   UNL     1      11.292  -4.102 191.973  0.00  0.00    +0.000 C 
ATOM     24  O   UNL     1      12.221  -3.364 192.270  0.00  0.00    +0.000 OA
ATOM     25  N   UNL     1      11.201  -5.355 192.495  0.00  0.00    +0.000 N 
ATOM     26  H   UNL     1      10.614  -6.051 192.047  0.00  0.00    +0.000 HD
ATOM     27  H   UNL     1      11.984  -5.678 193.046  0.00  0.00    +0.000 HD
ENDBRANCH  16  23
BRANCH   8  28
ATOM     28  N   UNL     1       7.748  -1.204 191.273  0.00  0.00    +0.000 NA
ATOM     29  C   UNL     1       6.668  -1.152 192.249  0.00  0.00    +0.000 C 
ATOM     30  C   UNL     1       8.907  -0.559 191.855  0.00  0.00    +0.000 C 
ENDBRANCH   8  28
BRANCH  12  31
ATOM     31  O   UNL     1      11.771  -3.502 189.206  0.00  0.00    +0.000 OA
ATOM     32  H   UNL     1      11.786  -4.190 188.501  0.00  0.00    +0.000 HD
ENDBRANCH  12  31
BRANCH   7  33
ATOM     33  O   UNL     1       9.861  -1.650 188.306  0.00  0.00    +0.000 OA
ATOM     34  H   UNL     1       9.633  -1.534 187.365  0.00  0.00    +0.000 HD
ENDBRANCH   7  33
BRANCH  15  35
ATOM     35  O   UNL     1       9.690  -6.196 185.698  0.00  0.00    +0.000 OA
ATOM     36  H   UNL     1       9.548  -6.031 184.742  0.00  0.00    +0.000 HD
ENDBRANCH  15  35
BRANCH   9  37
ATOM     37  O   UNL     1       4.968  -5.610 188.412  0.00  0.00    +0.000 OA
ATOM     38  H   UNL     1       4.725  -6.546 188.293  0.00  0.00    +0.000 HD
ENDBRANCH   9  37
BRANCH  20  39
ATOM     39  O   UNL     1       8.977  -8.663 185.282  0.00  0.00    +0.000 OA
ATOM     40  H   UNL     1       9.606  -8.271 185.912  0.00  0.00    +0.000 HD
ENDBRANCH  20  39
TORSDOF 7
ENDMDL
MODEL 9
REMARK VINA RESULT:      -6.3     14.168     16.041
REMARK  Name = Chlortetracycline.pdbqt.pdb
REMARK  7 active torsions:
REMARK  status: ('A' for Active; 'I' for Inactive)
REMARK    1  A    between atoms: C_7  and  O_30
REMARK    2  A    between atoms: C_8  and  N_32
REMARK    3  A    between atoms: C_9  and  O_37
REMARK    4  A    between atoms: C_12  and  O_28
REMARK    5  A    between atoms: C_15  and  O_35
REMARK    6  A    between atoms: C_16  and  C_23
REMARK    7  A    between atoms: C_20  and  O_39
REMARK                            x       y       z     vdW  Elec       q    Type
REMARK                         _______ _______ _______ _____ _____    ______ ____
ROOT
ATOM      1 CL   UNL     1       1.253  -0.732 190.618  0.00  0.00    +0.000 Cl
ATOM      2  O   UNL     1       8.003   0.566 186.868  0.00  0.00    +0.000 OA
ATOM      3  O   UNL     1       8.867  -4.158 190.730  0.00  0.00    +0.000 OA
ATOM      4  C   UNL     1       8.311  -0.783 190.334  0.00  0.00    +0.000 C 
ATOM      5  C   UNL     1       5.797  -0.505 189.580  0.00  0.00    +0.000 C 
ATOM      6  C   UNL     1       6.905  -0.714 190.426  0.00  0.00    +0.000 C 
ATOM      7  C   UNL     1       8.822  -0.483 188.945  0.00  0.00    +0.000 C 
ATOM      8  C   UNL     1       9.023  -1.814 191.068  0.00  0.00    +0.000 C 
ATOM      9  C   UNL     1       4.359  -0.334 189.984  0.00  0.00    +0.000 C 
ATOM     10  C   UNL     1       6.208  -0.238 188.218  0.00  0.00    +0.000 C 
ATOM     11  C   UNL     1       7.686  -0.000 187.924  0.00  0.00    +0.000 C 
ATOM     12  C   UNL     1       9.540  -1.672 188.298  0.00  0.00    +0.000 C 
ATOM     13  C   UNL     1       3.378  -0.511 188.836  0.00  0.00    +0.000 A 
ATOM     14  C   UNL     1       9.215  -3.072 190.293  0.00  0.00    +0.000 C 
ATOM     15  C   UNL     1       5.297  -0.167 187.230  0.00  0.00    +0.000 C 
ATOM     16  C   UNL     1       9.708  -2.876 188.892  0.00  0.00    +0.000 C 
ATOM     17  C   UNL     1       3.853  -0.460 187.489  0.00  0.00    +0.000 A 
ATOM     18  C   UNL     1       4.206   1.047 190.653  0.00  0.00    +0.000 C 
ATOM     19  C   UNL     1       1.996  -0.719 189.056  0.00  0.00    +0.000 A 
ATOM     20  C   UNL     1       2.931  -0.693 186.445  0.00  0.00    +0.000 A 
ATOM     21  C   UNL     1       1.113  -0.911 187.997  0.00  0.00    +0.000 A 
ATOM     22  C   UNL     1       1.580  -0.913 186.696  0.00  0.00    +0.000 A 
ENDROOT
BRANCH  16  23
ATOM     23  C   UNL     1      10.457  -3.995 188.253  0.00  0.00    +0.000 C 
ATOM     24  O   UNL     1      11.653  -3.917 188.003  0.00  0.00    +0.000 OA
ATOM     25  N   UNL     1       9.749  -5.112 187.938  0.00  0.00    +0.000 N 
ATOM     26  H   UNL     1       8.737  -5.074 187.880  0.00  0.00    +0.000 HD
ATOM     27  H   UNL     1      10.229  -5.820 187.399  0.00  0.00    +0.000 HD
ENDBRANCH  16  23
BRANCH   8  28
ATOM     28  N   UNL     1       9.955  -1.487 192.114  0.00  0.00    +0.000 NA
ATOM     29  C   UNL     1       9.331  -0.961 193.320  0.00  0.00    +0.000 C 
ATOM     30  C   UNL     1      10.815  -2.587 192.498  0.00  0.00    +0.000 C 
ENDBRANCH   8  28
BRANCH  12  31
ATOM     31  O   UNL     1      10.099  -1.416 187.043  0.00  0.00    +0.000 OA
ATOM     32  H   UNL     1      11.031  -1.125 187.172  0.00  0.00    +0.000 HD
ENDBRANCH  12  31
BRANCH   7  33
ATOM     33  O   UNL     1       9.824   0.530 189.051  0.00  0.00    +0.000 OA
ATOM     34  H   UNL     1       9.521   1.189 189.703  0.00  0.00    +0.000 HD
ENDBRANCH   7  33
BRANCH  15  35
ATOM     35  O   UNL     1       5.617   0.194 185.939  0.00  0.00    +0.000 OA
ATOM     36  H   UNL     1       5.000  -0.228 185.304  0.00  0.00    +0.000 HD
ENDBRANCH  15  35
BRANCH   9  37
ATOM     37  O   UNL     1       4.121  -1.296 190.993  0.00  0.00    +0.000 OA
ATOM     38  H   UNL     1       4.729  -0.992 191.692  0.00  0.00    +0.000 HD
ENDBRANCH   9  37
BRANCH  20  39
ATOM     39  O   UNL     1       3.332  -0.760 185.138  0.00  0.00    +0.000 OA
ATOM     40  H   UNL     1       3.829  -1.584 184.993  0.00  0.00    +0.000 HD
ENDBRANCH  20  39
TORSDOF 7
ENDMDL
