MODEL 1
REMARK VINA RESULT:      -7.5      0.000      0.000
REMARK  Name = Ciclopirox.pdbqt.pdb
REMARK  2 active torsions:
REMARK  status: ('A' for Active; 'I' for Inactive)
REMARK    1  A    between atoms: N_2  and  O_15
REMARK    2  A    between atoms: C_3  and  C_9
REMARK                            x       y       z     vdW  Elec       q    Type
REMARK                         _______ _______ _______ _____ _____    ______ ____
ROOT
ATOM      1  O   UNL     1      16.875   1.178 190.301  0.00  0.00    +0.000 OA
ATOM      2  N   UNL     1      18.413   2.334 188.967  0.00  0.00    +0.000 N 
ATOM      3  C   UNL     1      19.704   2.862 188.825  0.00  0.00    +0.000 C 
ATOM      4  C   UNL     1      20.412   2.681 189.912  0.00  0.00    +0.000 C 
ATOM      5  C   UNL     1      20.221   2.111 191.204  0.00  0.00    +0.000 C 
ATOM      6  C   UNL     1      17.971   1.694 190.138  0.00  0.00    +0.000 C 
ATOM      7  C   UNL     1      18.996   1.680 191.157  0.00  0.00    +0.000 C 
ATOM      8  C   UNL     1      20.753   2.796 192.419  0.00  0.00    +0.000 C 
ENDROOT
BRANCH   3   9
ATOM      9  C   UNL     1      20.205   3.504 187.644  0.00  0.00    +0.000 A 
ATOM     10  C   UNL     1      20.297   2.860 186.354  0.00  0.00    +0.000 A 
ATOM     11  C   UNL     1      21.027   3.297 185.063  0.00  0.00    +0.000 A 
ATOM     12  C   UNL     1      21.789   4.634 185.133  0.00  0.00    +0.000 A 
ATOM     13  C   UNL     1      21.750   5.400 186.468  0.00  0.00    +0.000 A 
ATOM     14  C   UNL     1      20.943   4.742 187.610  0.00  0.00    +0.000 A 
ENDBRANCH   3   9
BRANCH   2  15
ATOM     15  O   UNL     1      17.540   2.359 187.862  0.00  0.00    +0.000 OA
ATOM     16  H   UNL     1      18.138   2.595 187.123  0.00  0.00    +0.000 HD
ENDBRANCH   2  15
TORSDOF 2
ENDMDL
MODEL 2
REMARK VINA RESULT:      -6.9      2.086      5.266
REMARK  Name = Ciclopirox.pdbqt.pdb
REMARK  2 active torsions:
REMARK  status: ('A' for Active; 'I' for Inactive)
REMARK    1  A    between atoms: N_2  and  O_15
REMARK    2  A    between atoms: C_3  and  C_9
REMARK                            x       y       z     vdW  Elec       q    Type
REMARK                         _______ _______ _______ _____ _____    ______ ____
ROOT
ATOM      1  O   UNL     1      21.610   3.910 184.535  0.00  0.00    +0.000 OA
ATOM      2  N   UNL     1      20.563   3.506 186.591  0.00  0.00    +0.000 N 
ATOM      3  C   UNL     1      20.414   3.859 187.939  0.00  0.00    +0.000 C 
ATOM      4  C   UNL     1      21.223   4.836 188.266  0.00  0.00    +0.000 C 
ATOM      5  C   UNL     1      22.225   5.624 187.628  0.00  0.00    +0.000 C 
ATOM      6  C   UNL     1      21.471   4.145 185.727  0.00  0.00    +0.000 C 
ATOM      7  C   UNL     1      22.226   5.169 186.411  0.00  0.00    +0.000 C 
ATOM      8  C   UNL     1      23.501   5.941 188.335  0.00  0.00    +0.000 C 
ENDROOT
BRANCH   3   9
ATOM      9  C   UNL     1      19.489   3.251 188.851  0.00  0.00    +0.000 A 
ATOM     10  C   UNL     1      19.655   3.250 190.286  0.00  0.00    +0.000 A 
ATOM     11  C   UNL     1      18.917   2.447 191.382  0.00  0.00    +0.000 A 
ATOM     12  C   UNL     1      17.820   1.483 190.895  0.00  0.00    +0.000 A 
ATOM     13  C   UNL     1      17.564   1.412 189.378  0.00  0.00    +0.000 A 
ATOM     14  C   UNL     1      18.444   2.325 188.495  0.00  0.00    +0.000 A 
ENDBRANCH   3   9
BRANCH   2  15
ATOM     15  O   UNL     1      19.707   2.532 186.041  0.00  0.00    +0.000 OA
ATOM     16  H   UNL     1      19.352   2.984 185.248  0.00  0.00    +0.000 HD
ENDBRANCH   2  15
TORSDOF 2
ENDMDL
MODEL 3
REMARK VINA RESULT:      -6.5      2.220      2.553
REMARK  Name = Ciclopirox.pdbqt.pdb
REMARK  2 active torsions:
REMARK  status: ('A' for Active; 'I' for Inactive)
REMARK    1  A    between atoms: N_2  and  O_15
REMARK    2  A    between atoms: C_3  and  C_9
REMARK                            x       y       z     vdW  Elec       q    Type
REMARK                         _______ _______ _______ _____ _____    ______ ____
ROOT
ATOM      1  O   UNL     1      21.795   0.340 191.295  0.00  0.00    +0.000 OA
ATOM      2  N   UNL     1      21.348   1.770 189.496  0.00  0.00    +0.000 N 
ATOM      3  C   UNL     1      20.428   2.594 188.832  0.00  0.00    +0.000 C 
ATOM      4  C   UNL     1      19.260   2.575 189.424  0.00  0.00    +0.000 C 
ATOM      5  C   UNL     1      18.666   1.930 190.548  0.00  0.00    +0.000 C 
ATOM      6  C   UNL     1      21.024   1.036 190.651  0.00  0.00    +0.000 C 
ATOM      7  C   UNL     1      19.643   1.223 191.031  0.00  0.00    +0.000 C 
ATOM      8  C   UNL     1      17.283   1.377 190.457  0.00  0.00    +0.000 C 
ENDROOT
BRANCH   3   9
ATOM      9  C   UNL     1      20.718   3.375 187.665  0.00  0.00    +0.000 A 
ATOM     10  C   UNL     1      20.624   2.872 186.314  0.00  0.00    +0.000 A 
ATOM     11  C   UNL     1      21.128   3.471 184.981  0.00  0.00    +0.000 A 
ATOM     12  C   UNL     1      21.853   4.826 185.077  0.00  0.00    +0.000 A 
ATOM     13  C   UNL     1      22.004   5.450 186.477  0.00  0.00    +0.000 A 
ATOM     14  C   UNL     1      21.406   4.642 187.651  0.00  0.00    +0.000 A 
ENDBRANCH   3   9
BRANCH   2  15
ATOM     15  O   UNL     1      22.683   1.739 189.050  0.00  0.00    +0.000 OA
ATOM     16  H   UNL     1      22.596   1.961 188.101  0.00  0.00    +0.000 HD
ENDBRANCH   2  15
TORSDOF 2
ENDMDL
MODEL 4
REMARK VINA RESULT:      -6.4      2.022      4.544
REMARK  Name = Ciclopirox.pdbqt.pdb
REMARK  2 active torsions:
REMARK  status: ('A' for Active; 'I' for Inactive)
REMARK    1  A    between atoms: N_2  and  O_15
REMARK    2  A    between atoms: C_3  and  C_9
REMARK                            x       y       z     vdW  Elec       q    Type
REMARK                         _______ _______ _______ _____ _____    ______ ____
ROOT
ATOM      1  O   UNL     1      16.899   0.974 189.486  0.00  0.00    +0.000 OA
ATOM      2  N   UNL     1      19.113   1.460 190.073  0.00  0.00    +0.000 N 
ATOM      3  C   UNL     1      20.290   2.167 189.792  0.00  0.00    +0.000 C 
ATOM      4  C   UNL     1      20.167   2.878 188.699  0.00  0.00    +0.000 C 
ATOM      5  C   UNL     1      19.168   3.112 187.709  0.00  0.00    +0.000 C 
ATOM      6  C   UNL     1      17.964   1.532 189.265  0.00  0.00    +0.000 C 
ATOM      7  C   UNL     1      18.169   2.393 188.124  0.00  0.00    +0.000 C 
ATOM      8  C   UNL     1      19.535   3.166 186.263  0.00  0.00    +0.000 C 
ENDROOT
BRANCH   3   9
ATOM      9  C   UNL     1      21.478   2.140 190.596  0.00  0.00    +0.000 A 
ATOM     10  C   UNL     1      21.922   3.243 191.415  0.00  0.00    +0.000 A 
ATOM     11  C   UNL     1      23.272   3.485 192.129  0.00  0.00    +0.000 A 
ATOM     12  C   UNL     1      24.337   2.386 191.958  0.00  0.00    +0.000 A 
ATOM     13  C   UNL     1      23.959   1.163 191.101  0.00  0.00    +0.000 A 
ATOM     14  C   UNL     1      22.537   1.167 190.497  0.00  0.00    +0.000 A 
ENDBRANCH   3   9
BRANCH   2  15
ATOM     15  O   UNL     1      19.034   0.710 191.263  0.00  0.00    +0.000 OA
ATOM     16  H   UNL     1      19.889   0.233 191.271  0.00  0.00    +0.000 HD
ENDBRANCH   2  15
TORSDOF 2
ENDMDL
MODEL 5
REMARK VINA RESULT:      -6.4      2.954      5.814
REMARK  Name = Ciclopirox.pdbqt.pdb
REMARK  2 active torsions:
REMARK  status: ('A' for Active; 'I' for Inactive)
REMARK    1  A    between atoms: N_2  and  O_15
REMARK    2  A    between atoms: C_3  and  C_9
REMARK                            x       y       z     vdW  Elec       q    Type
REMARK                         _______ _______ _______ _____ _____    ______ ____
ROOT
ATOM      1  O   UNL     1      24.199   5.913 187.785  0.00  0.00    +0.000 OA
ATOM      2  N   UNL     1      22.341   4.488 187.807  0.00  0.00    +0.000 N 
ATOM      3  C   UNL     1      21.453   3.680 187.084  0.00  0.00    +0.000 C 
ATOM      4  C   UNL     1      21.712   3.722 185.801  0.00  0.00    +0.000 C 
ATOM      5  C   UNL     1      22.639   4.380 184.940  0.00  0.00    +0.000 C 
ATOM      6  C   UNL     1      23.371   5.229 187.201  0.00  0.00    +0.000 C 
ATOM      7  C   UNL     1      23.368   5.069 185.765  0.00  0.00    +0.000 C 
ATOM      8  C   UNL     1      22.184   4.959 183.641  0.00  0.00    +0.000 C 
ENDROOT
BRANCH   3   9
ATOM      9  C   UNL     1      20.403   2.892 187.660  0.00  0.00    +0.000 A 
ATOM     10  C   UNL     1      19.010   3.012 187.293  0.00  0.00    +0.000 A 
ATOM     11  C   UNL     1      17.741   2.445 187.968  0.00  0.00    +0.000 A 
ATOM     12  C   UNL     1      17.965   1.610 189.243  0.00  0.00    +0.000 A 
ATOM     13  C   UNL     1      19.418   1.420 189.717  0.00  0.00    +0.000 A 
ATOM     14  C   UNL     1      20.510   2.095 188.857  0.00  0.00    +0.000 A 
ENDBRANCH   3   9
BRANCH   2  15
ATOM     15  O   UNL     1      22.268   4.494 189.214  0.00  0.00    +0.000 OA
ATOM     16  H   UNL     1      23.059   5.013 189.466  0.00  0.00    +0.000 HD
ENDBRANCH   2  15
TORSDOF 2
ENDMDL
MODEL 6
REMARK VINA RESULT:      -6.2      3.570      4.269
REMARK  Name = Ciclopirox.pdbqt.pdb
REMARK  2 active torsions:
REMARK  status: ('A' for Active; 'I' for Inactive)
REMARK    1  A    between atoms: N_2  and  O_15
REMARK    2  A    between atoms: C_3  and  C_9
REMARK                            x       y       z     vdW  Elec       q    Type
REMARK                         _______ _______ _______ _____ _____    ______ ____
ROOT
ATOM      1  O   UNL     1      25.111   3.656 192.089  0.00  0.00    +0.000 OA
ATOM      2  N   UNL     1      23.532   3.461 190.371  0.00  0.00    +0.000 N 
ATOM      3  C   UNL     1      22.188   3.303 190.002  0.00  0.00    +0.000 C 
ATOM      4  C   UNL     1      21.421   3.171 191.055  0.00  0.00    +0.000 C 
ATOM      5  C   UNL     1      21.582   3.126 192.471  0.00  0.00    +0.000 C 
ATOM      6  C   UNL     1      23.963   3.477 191.710  0.00  0.00    +0.000 C 
ATOM      7  C   UNL     1      22.862   3.286 192.626  0.00  0.00    +0.000 C 
ATOM      8  C   UNL     1      20.823   2.132 193.287  0.00  0.00    +0.000 C 
ENDROOT
BRANCH   3   9
ATOM      9  C   UNL     1      21.700   3.301 188.654  0.00  0.00    +0.000 A 
ATOM     10  C   UNL     1      21.715   4.458 187.789  0.00  0.00    +0.000 A 
ATOM     11  C   UNL     1      21.018   4.707 186.432  0.00  0.00    +0.000 A 
ATOM     12  C   UNL     1      20.162   3.549 185.886  0.00  0.00    +0.000 A 
ATOM     13  C   UNL     1      20.084   2.267 186.735  0.00  0.00    +0.000 A 
ATOM     14  C   UNL     1      20.880   2.276 188.059  0.00  0.00    +0.000 A 
ENDBRANCH   3   9
BRANCH   2  15
ATOM     15  O   UNL     1      24.491   3.707 189.369  0.00  0.00    +0.000 OA
ATOM     16  H   UNL     1      24.023   3.431 188.554  0.00  0.00    +0.000 HD
ENDBRANCH   2  15
TORSDOF 2
ENDMDL
MODEL 7
REMARK VINA RESULT:      -5.9      3.122      5.460
REMARK  Name = Ciclopirox.pdbqt.pdb
REMARK  2 active torsions:
REMARK  status: ('A' for Active; 'I' for Inactive)
REMARK    1  A    between atoms: N_2  and  O_15
REMARK    2  A    between atoms: C_3  and  C_9
REMARK                            x       y       z     vdW  Elec       q    Type
REMARK                         _______ _______ _______ _____ _____    ______ ____
ROOT
ATOM      1  O   UNL     1      24.842   1.557 189.047  0.00  0.00    +0.000 OA
ATOM      2  N   UNL     1      22.577   1.999 189.449  0.00  0.00    +0.000 N 
ATOM      3  C   UNL     1      21.488   2.867 189.290  0.00  0.00    +0.000 C 
ATOM      4  C   UNL     1      21.842   3.961 188.661  0.00  0.00    +0.000 C 
ATOM      5  C   UNL     1      23.035   4.515 188.113  0.00  0.00    +0.000 C 
ATOM      6  C   UNL     1      23.869   2.294 188.976  0.00  0.00    +0.000 C 
ATOM      7  C   UNL     1      23.921   3.593 188.345  0.00  0.00    +0.000 C 
ATOM      8  C   UNL     1      23.355   5.960 188.304  0.00  0.00    +0.000 C 
ENDROOT
BRANCH   3   9
ATOM      9  C   UNL     1      20.152   2.601 189.737  0.00  0.00    +0.000 A 
ATOM     10  C   UNL     1      19.760   2.561 191.127  0.00  0.00    +0.000 A 
ATOM     11  C   UNL     1      18.460   2.051 191.790  0.00  0.00    +0.000 A 
ATOM     12  C   UNL     1      17.387   1.489 190.838  0.00  0.00    +0.000 A 
ATOM     13  C   UNL     1      17.709   1.490 189.332  0.00  0.00    +0.000 A 
ATOM     14  C   UNL     1      19.088   2.059 188.929  0.00  0.00    +0.000 A 
ENDBRANCH   3   9
BRANCH   2  15
ATOM     15  O   UNL     1      22.363   0.732 190.025  0.00  0.00    +0.000 OA
ATOM     16  H   UNL     1      23.135   0.635 190.620  0.00  0.00    +0.000 HD
ENDBRANCH   2  15
TORSDOF 2
ENDMDL
MODEL 8
REMARK VINA RESULT:      -5.9     31.222     33.476
REMARK  Name = Ciclopirox.pdbqt.pdb
REMARK  2 active torsions:
REMARK  status: ('A' for Active; 'I' for Inactive)
REMARK    1  A    between atoms: N_2  and  O_15
REMARK    2  A    between atoms: C_3  and  C_9
REMARK                            x       y       z     vdW  Elec       q    Type
REMARK                         _______ _______ _______ _____ _____    ______ ____
ROOT
ATOM      1  O   UNL     1      38.662  -5.545 167.114  0.00  0.00    +0.000 OA
ATOM      2  N   UNL     1      40.087  -6.832 165.774  0.00  0.00    +0.000 N 
ATOM      3  C   UNL     1      41.299  -7.526 165.650  0.00  0.00    +0.000 C 
ATOM      4  C   UNL     1      42.018  -7.420 166.739  0.00  0.00    +0.000 C 
ATOM      5  C   UNL     1      41.913  -6.776 168.006  0.00  0.00    +0.000 C 
ATOM      6  C   UNL     1      39.722  -6.128 166.935  0.00  0.00    +0.000 C 
ATOM      7  C   UNL     1      40.752  -6.195 167.945  0.00  0.00    +0.000 C 
ATOM      8  C   UNL     1      43.093  -6.084 168.603  0.00  0.00    +0.000 C 
ENDROOT
BRANCH   3   9
ATOM      9  C   UNL     1      41.704  -8.272 164.495  0.00  0.00    +0.000 A 
ATOM     10  C   UNL     1      41.220  -9.597 164.180  0.00  0.00    +0.000 A 
ATOM     11  C   UNL     1      41.723 -10.631 163.147  0.00  0.00    +0.000 A 
ATOM     12  C   UNL     1      42.937 -10.208 162.299  0.00  0.00    +0.000 A 
ATOM     13  C   UNL     1      43.527  -8.810 162.557  0.00  0.00    +0.000 A 
ATOM     14  C   UNL     1      42.833  -7.968 163.652  0.00  0.00    +0.000 A 
ENDBRANCH   3   9
BRANCH   2  15
ATOM     15  O   UNL     1      39.145  -6.911 164.730  0.00  0.00    +0.000 OA
ATOM     16  H   UNL     1      38.401  -7.389 165.151  0.00  0.00    +0.000 HD
ENDBRANCH   2  15
TORSDOF 2
ENDMDL
MODEL 9
REMARK VINA RESULT:      -5.8      3.788      4.784
REMARK  Name = Ciclopirox.pdbqt.pdb
REMARK  2 active torsions:
REMARK  status: ('A' for Active; 'I' for Inactive)
REMARK    1  A    between atoms: N_2  and  O_15
REMARK    2  A    between atoms: C_3  and  C_9
REMARK                            x       y       z     vdW  Elec       q    Type
REMARK                         _______ _______ _______ _____ _____    ______ ____
ROOT
ATOM      1  O   UNL     1      25.726   1.021 189.017  0.00  0.00    +0.000 OA
ATOM      2  N   UNL     1      23.441   1.499 188.838  0.00  0.00    +0.000 N 
ATOM      3  C   UNL     1      22.353   2.280 189.253  0.00  0.00    +0.000 C 
ATOM      4  C   UNL     1      22.707   3.130 190.184  0.00  0.00    +0.000 C 
ATOM      5  C   UNL     1      23.892   3.463 190.902  0.00  0.00    +0.000 C 
ATOM      6  C   UNL     1      24.734   1.642 189.372  0.00  0.00    +0.000 C 
ATOM      7  C   UNL     1      24.778   2.658 190.397  0.00  0.00    +0.000 C 
ATOM      8  C   UNL     1      23.837   3.729 192.370  0.00  0.00    +0.000 C 
ENDROOT
BRANCH   3   9
ATOM      9  C   UNL     1      21.023   2.184 188.725  0.00  0.00    +0.000 A 
ATOM     10  C   UNL     1      20.617   2.746 187.457  0.00  0.00    +0.000 A 
ATOM     11  C   UNL     1      19.207   2.959 186.858  0.00  0.00    +0.000 A 
ATOM     12  C   UNL     1      18.023   2.507 187.733  0.00  0.00    +0.000 A 
ATOM     13  C   UNL     1      18.352   1.891 189.105  0.00  0.00    +0.000 A 
ATOM     14  C   UNL     1      19.851   1.790 189.465  0.00  0.00    +0.000 A 
ENDBRANCH   3   9
BRANCH   2  15
ATOM     15  O   UNL     1      23.264   0.590 187.777  0.00  0.00    +0.000 OA
ATOM     16  H   UNL     1      23.875  -0.137 188.016  0.00  0.00    +0.000 HD
ENDBRANCH   2  15
TORSDOF 2
ENDMDL
