MODEL 1
REMARK VINA RESULT:      -8.4      0.000      0.000
REMARK  Name = 
REMARK  5 active torsions:
REMARK  status: ('A' for Active; 'I' for Inactive)
REMARK    1  A    between atoms: O_5  and  C_10
REMARK    2  A    between atoms: N_9  and  C_20
REMARK    3  A    between atoms: N_9  and  C_25
REMARK    4  A    between atoms: C_10  and  C_11
REMARK    5  A    between atoms: C_18  and  C_19
REMARK                            x       y       z     vdW  Elec       q    Type
REMARK                         _______ _______ _______ _____ _____    ______ ____
ROOT
ATOM      1  F   UNL     1      22.273   3.511 187.236  0.00  0.00    +0.000 F 
ATOM      2  F   UNL     1      20.288   3.229 185.427  0.00  0.00    +0.000 F 
ATOM      3  C   UNL     1      19.453   2.807 189.426  0.00  0.00    +0.000 A 
ATOM      4  C   UNL     1      20.783   3.094 189.047  0.00  0.00    +0.000 A 
ATOM      5  C   UNL     1      18.422   2.677 188.479  0.00  0.00    +0.000 A 
ATOM      6  C   UNL     1      21.038   3.223 187.675  0.00  0.00    +0.000 A 
ATOM      7  C   UNL     1      18.711   2.821 187.125  0.00  0.00    +0.000 A 
ATOM      8  C   UNL     1      20.016   3.093 186.734  0.00  0.00    +0.000 A 
ENDROOT
BRANCH   3  14
ATOM      9  O   UNL     1      19.257   3.575 191.621  0.00  0.00    +0.000 OA
ATOM     10  N   UNL     1      18.757   1.358 191.252  0.00  0.00    +0.000 N 
ATOM     11  C   UNL     1      19.661  -0.286 192.167  0.00  0.00    +0.000 C 
ATOM     12  C   UNL     1      19.215   0.075 190.721  0.00  0.00    +0.000 C 
ATOM     13  C   UNL     1      18.734   0.876 192.632  0.00  0.00    +0.000 C 
ATOM     14  C   UNL     1      19.131   2.623 190.857  0.00  0.00    +0.000 C 
BRANCH  11  16
ATOM     15  N   UNL     1      21.261   0.291 193.972  0.00  0.00    +0.000 NA
ATOM     16  C   UNL     1      21.150  -0.036 192.527  0.00  0.00    +0.000 C 
ATOM     17  C   UNL     1      22.021  -1.266 192.218  0.00  0.00    +0.000 C 
ATOM     18  C   UNL     1      23.479  -1.015 192.602  0.00  0.00    +0.000 C 
ATOM     19  C   UNL     1      22.647   0.652 194.300  0.00  0.00    +0.000 C 
ATOM     20  C   UNL     1      23.596  -0.515 194.038  0.00  0.00    +0.000 C 
ATOM     21  H   UNL     1      21.041  -0.556 194.502  0.00  0.00    +0.000 HD
ENDBRANCH  11  16
BRANCH  11  22
ATOM     22  O   UNL     1      19.252  -1.609 192.621  0.00  0.00    +0.000 OA
ATOM     23  H   UNL     1      18.485  -1.810 192.052  0.00  0.00    +0.000 HD
ENDBRANCH  11  22
ENDBRANCH   3  14
BRANCH   4  24
ATOM     24  N   UNL     1      21.797   3.154 190.028  0.00  0.00    +0.000 N 
ATOM     25  H   UNL     1      21.445   3.362 190.970  0.00  0.00    +0.000 HD
BRANCH  24  28
ATOM     26  I   UNL     1      27.780   1.177 189.973  0.00  0.00    +0.000 I 
ATOM     27  F   UNL     1      22.479   0.566 189.446  0.00  0.00    +0.000 F 
ATOM     28  C   UNL     1      23.150   2.766 190.021  0.00  0.00    +0.000 A 
ATOM     29  C   UNL     1      23.469   1.426 189.733  0.00  0.00    +0.000 A 
ATOM     30  C   UNL     1      24.209   3.631 190.312  0.00  0.00    +0.000 A 
ATOM     31  C   UNL     1      24.780   0.958 189.718  0.00  0.00    +0.000 A 
ATOM     32  C   UNL     1      25.535   3.175 190.302  0.00  0.00    +0.000 A 
ATOM     33  C   UNL     1      25.814   1.842 190.002  0.00  0.00    +0.000 A 
ENDBRANCH  24  28
ENDBRANCH   4  24
TORSDOF 5
ENDMDL
MODEL 2
REMARK VINA RESULT:      -8.1      3.309      6.853
REMARK  Name = 
REMARK  5 active torsions:
REMARK  status: ('A' for Active; 'I' for Inactive)
REMARK    1  A    between atoms: O_5  and  C_10
REMARK    2  A    between atoms: N_9  and  C_20
REMARK    3  A    between atoms: N_9  and  C_25
REMARK    4  A    between atoms: C_10  and  C_11
REMARK    5  A    between atoms: C_18  and  C_19
REMARK                            x       y       z     vdW  Elec       q    Type
REMARK                         _______ _______ _______ _____ _____    ______ ____
ROOT
ATOM      1  F   UNL     1      24.850  -0.514 190.826  0.00  0.00    +0.000 F 
ATOM      2  F   UNL     1      27.515  -0.291 190.458  0.00  0.00    +0.000 F 
ATOM      3  C   UNL     1      25.146   3.048 190.140  0.00  0.00    +0.000 A 
ATOM      4  C   UNL     1      24.526   1.814 190.438  0.00  0.00    +0.000 A 
ATOM      5  C   UNL     1      26.536   3.158 189.964  0.00  0.00    +0.000 A 
ATOM      6  C   UNL     1      25.360   0.692 190.531  0.00  0.00    +0.000 A 
ATOM      7  C   UNL     1      27.335   2.023 190.074  0.00  0.00    +0.000 A 
ATOM      8  C   UNL     1      26.741   0.799 190.356  0.00  0.00    +0.000 A 
ENDROOT
BRANCH   3  14
ATOM      9  O   UNL     1      23.696   4.679 190.968  0.00  0.00    +0.000 OA
ATOM     10  N   UNL     1      24.239   4.815 188.735  0.00  0.00    +0.000 N 
ATOM     11  C   UNL     1      22.905   4.793 187.130  0.00  0.00    +0.000 C 
ATOM     12  C   UNL     1      24.278   4.131 187.444  0.00  0.00    +0.000 C 
ATOM     13  C   UNL     1      23.231   5.777 188.293  0.00  0.00    +0.000 C 
ATOM     14  C   UNL     1      24.312   4.261 189.993  0.00  0.00    +0.000 C 
BRANCH  11  16
ATOM     15  N   UNL     1      20.825   4.604 188.467  0.00  0.00    +0.000 NA
ATOM     16  C   UNL     1      21.636   3.945 187.411  0.00  0.00    +0.000 C 
ATOM     17  C   UNL     1      20.777   3.777 186.145  0.00  0.00    +0.000 C 
ATOM     18  C   UNL     1      19.517   2.964 186.442  0.00  0.00    +0.000 C 
ATOM     19  C   UNL     1      19.685   3.751 188.831  0.00  0.00    +0.000 C 
ATOM     20  C   UNL     1      18.758   3.532 187.636  0.00  0.00    +0.000 C 
ATOM     21  H   UNL     1      20.438   5.466 188.073  0.00  0.00    +0.000 HD
ENDBRANCH  11  16
BRANCH  11  22
ATOM     22  O   UNL     1      22.812   5.414 185.815  0.00  0.00    +0.000 OA
ATOM     23  H   UNL     1      23.612   5.971 185.777  0.00  0.00    +0.000 HD
ENDBRANCH  11  22
ENDBRANCH   3  14
BRANCH   4  24
ATOM     24  N   UNL     1      23.120   1.740 190.544  0.00  0.00    +0.000 N 
ATOM     25  H   UNL     1      22.640   1.739 189.637  0.00  0.00    +0.000 HD
BRANCH  24  28
ATOM     26  I   UNL     1      19.091   0.385 195.195  0.00  0.00    +0.000 I 
ATOM     27  F   UNL     1      20.565   0.878 190.064  0.00  0.00    +0.000 F 
ATOM     28  C   UNL     1      22.263   1.442 191.620  0.00  0.00    +0.000 A 
ATOM     29  C   UNL     1      20.951   1.017 191.342  0.00  0.00    +0.000 A 
ATOM     30  C   UNL     1      22.626   1.571 192.963  0.00  0.00    +0.000 A 
ATOM     31  C   UNL     1      20.036   0.714 192.347  0.00  0.00    +0.000 A 
ATOM     32  C   UNL     1      21.717   1.272 193.987  0.00  0.00    +0.000 A 
ATOM     33  C   UNL     1      20.428   0.842 193.674  0.00  0.00    +0.000 A 
ENDBRANCH  24  28
ENDBRANCH   4  24
TORSDOF 5
ENDMDL
MODEL 3
REMARK VINA RESULT:      -7.6      3.370      6.178
REMARK  Name = 
REMARK  5 active torsions:
REMARK  status: ('A' for Active; 'I' for Inactive)
REMARK    1  A    between atoms: O_5  and  C_10
REMARK    2  A    between atoms: N_9  and  C_20
REMARK    3  A    between atoms: N_9  and  C_25
REMARK    4  A    between atoms: C_10  and  C_11
REMARK    5  A    between atoms: C_18  and  C_19
REMARK                            x       y       z     vdW  Elec       q    Type
REMARK                         _______ _______ _______ _____ _____    ______ ____
ROOT
ATOM      1  F   UNL     1      20.762   0.638 195.319  0.00  0.00    +0.000 F 
ATOM      2  F   UNL     1      18.324   0.673 194.160  0.00  0.00    +0.000 F 
ATOM      3  C   UNL     1      21.558   2.152 192.106  0.00  0.00    +0.000 A 
ATOM      4  C   UNL     1      21.767   1.642 193.407  0.00  0.00    +0.000 A 
ATOM      5  C   UNL     1      20.288   2.153 191.504  0.00  0.00    +0.000 A 
ATOM      6  C   UNL     1      20.642   1.153 194.086  0.00  0.00    +0.000 A 
ATOM      7  C   UNL     1      19.195   1.650 192.205  0.00  0.00    +0.000 A 
ATOM      8  C   UNL     1      19.381   1.154 193.489  0.00  0.00    +0.000 A 
ENDROOT
BRANCH   3  14
ATOM      9  O   UNL     1      23.031   3.879 191.565  0.00  0.00    +0.000 OA
ATOM     10  N   UNL     1      23.292   1.899 190.419  0.00  0.00    +0.000 N 
ATOM     11  C   UNL     1      23.216   1.645 188.349  0.00  0.00    +0.000 C 
ATOM     12  C   UNL     1      22.661   0.879 189.584  0.00  0.00    +0.000 C 
ATOM     13  C   UNL     1      24.182   2.348 189.349  0.00  0.00    +0.000 C 
ATOM     14  C   UNL     1      22.701   2.716 191.357  0.00  0.00    +0.000 C 
BRANCH  11  16
ATOM     15  N   UNL     1      22.768   2.956 186.292  0.00  0.00    +0.000 NA
ATOM     16  C   UNL     1      22.256   2.645 187.651  0.00  0.00    +0.000 C 
ATOM     17  C   UNL     1      20.831   2.075 187.537  0.00  0.00    +0.000 C 
ATOM     18  C   UNL     1      19.903   3.060 186.825  0.00  0.00    +0.000 C 
ATOM     19  C   UNL     1      21.938   3.996 185.668  0.00  0.00    +0.000 C 
ATOM     20  C   UNL     1      20.496   3.520 185.498  0.00  0.00    +0.000 C 
ATOM     21  H   UNL     1      22.669   2.114 185.720  0.00  0.00    +0.000 HD
ENDBRANCH  11  16
BRANCH  11  22
ATOM     22  O   UNL     1      23.875   0.807 187.354  0.00  0.00    +0.000 OA
ATOM     23  H   UNL     1      23.485   1.115 186.515  0.00  0.00    +0.000 HD
ENDBRANCH  11  22
ENDBRANCH   3  14
BRANCH   4  24
ATOM     24  N   UNL     1      23.049   1.720 193.996  0.00  0.00    +0.000 N 
ATOM     25  H   UNL     1      23.183   2.553 194.579  0.00  0.00    +0.000 HD
BRANCH  24  28
ATOM     26  I   UNL     1      27.854  -2.334 194.424  0.00  0.00    +0.000 I 
ATOM     27  F   UNL     1      25.513   2.251 192.925  0.00  0.00    +0.000 F 
ATOM     28  C   UNL     1      24.091   0.783 194.128  0.00  0.00    +0.000 A 
ATOM     29  C   UNL     1      25.342   1.077 193.554  0.00  0.00    +0.000 A 
ATOM     30  C   UNL     1      23.954  -0.448 194.775  0.00  0.00    +0.000 A 
ATOM     31  C   UNL     1      26.421   0.201 193.627  0.00  0.00    +0.000 A 
ATOM     32  C   UNL     1      25.031  -1.342 194.857  0.00  0.00    +0.000 A 
ATOM     33  C   UNL     1      26.259  -1.012 194.285  0.00  0.00    +0.000 A 
ENDBRANCH  24  28
ENDBRANCH   4  24
TORSDOF 5
ENDMDL
MODEL 4
REMARK VINA RESULT:      -7.1     33.150     35.361
REMARK  Name = 
REMARK  5 active torsions:
REMARK  status: ('A' for Active; 'I' for Inactive)
REMARK    1  A    between atoms: O_5  and  C_10
REMARK    2  A    between atoms: N_9  and  C_20
REMARK    3  A    between atoms: N_9  and  C_25
REMARK    4  A    between atoms: C_10  and  C_11
REMARK    5  A    between atoms: C_18  and  C_19
REMARK                            x       y       z     vdW  Elec       q    Type
REMARK                         _______ _______ _______ _____ _____    ______ ____
ROOT
ATOM      1  F   UNL     1      39.681 -26.885 176.829  0.00  0.00    +0.000 F 
ATOM      2  F   UNL     1      42.190 -27.219 175.890  0.00  0.00    +0.000 F 
ATOM      3  C   UNL     1      39.965 -24.014 174.610  0.00  0.00    +0.000 A 
ATOM      4  C   UNL     1      39.378 -24.910 175.532  0.00  0.00    +0.000 A 
ATOM      5  C   UNL     1      41.277 -24.187 174.138  0.00  0.00    +0.000 A 
ATOM      6  C   UNL     1      40.160 -25.998 175.943  0.00  0.00    +0.000 A 
ATOM      7  C   UNL     1      42.028 -25.275 174.575  0.00  0.00    +0.000 A 
ATOM      8  C   UNL     1      41.464 -26.171 175.474  0.00  0.00    +0.000 A 
ENDROOT
BRANCH   3  14
ATOM      9  O   UNL     1      38.413 -23.038 173.166  0.00  0.00    +0.000 OA
ATOM     10  N   UNL     1      39.393 -21.651 174.721  0.00  0.00    +0.000 N 
ATOM     11  C   UNL     1      40.486 -19.918 174.324  0.00  0.00    +0.000 C 
ATOM     12  C   UNL     1      40.640 -21.134 175.282  0.00  0.00    +0.000 C 
ATOM     13  C   UNL     1      38.997 -20.353 174.179  0.00  0.00    +0.000 C 
ATOM     14  C   UNL     1      39.175 -22.867 174.112  0.00  0.00    +0.000 C 
BRANCH  11  16
ATOM     15  N   UNL     1      40.883 -18.814 172.139  0.00  0.00    +0.000 NA
ATOM     16  C   UNL     1      41.254 -19.983 172.976  0.00  0.00    +0.000 C 
ATOM     17  C   UNL     1      42.777 -19.986 173.194  0.00  0.00    +0.000 C 
ATOM     18  C   UNL     1      43.521 -20.024 171.858  0.00  0.00    +0.000 C 
ATOM     19  C   UNL     1      41.506 -18.928 170.812  0.00  0.00    +0.000 C 
ATOM     20  C   UNL     1      43.030 -18.927 170.920  0.00  0.00    +0.000 C 
ATOM     21  H   UNL     1      41.272 -17.977 172.579  0.00  0.00    +0.000 HD
ENDBRANCH  11  16
BRANCH  11  22
ATOM     22  O   UNL     1      40.682 -18.617 174.949  0.00  0.00    +0.000 OA
ATOM     23  H   UNL     1      39.913 -18.541 175.545  0.00  0.00    +0.000 HD
ENDBRANCH  11  22
ENDBRANCH   3  14
BRANCH   4  24
ATOM     24  N   UNL     1      38.036 -24.732 175.930  0.00  0.00    +0.000 N 
ATOM     25  H   UNL     1      37.758 -23.746 176.007  0.00  0.00    +0.000 HD
BRANCH  24  28
ATOM     26  I   UNL     1      33.133 -28.687 176.092  0.00  0.00    +0.000 I 
ATOM     27  F   UNL     1      36.923 -25.779 173.657  0.00  0.00    +0.000 F 
ATOM     28  C   UNL     1      36.947 -25.618 176.023  0.00  0.00    +0.000 A 
ATOM     29  C   UNL     1      36.386 -26.128 174.837  0.00  0.00    +0.000 A 
ATOM     30  C   UNL     1      36.360 -26.008 177.230  0.00  0.00    +0.000 A 
ATOM     31  C   UNL     1      35.300 -26.999 174.839  0.00  0.00    +0.000 A 
ATOM     32  C   UNL     1      35.266 -26.884 177.250  0.00  0.00    +0.000 A 
ATOM     33  C   UNL     1      34.743 -27.377 176.055  0.00  0.00    +0.000 A 
ENDBRANCH  24  28
ENDBRANCH   4  24
TORSDOF 5
ENDMDL
MODEL 5
REMARK VINA RESULT:      -7.1     33.150     35.072
REMARK  Name = 
REMARK  5 active torsions:
REMARK  status: ('A' for Active; 'I' for Inactive)
REMARK    1  A    between atoms: O_5  and  C_10
REMARK    2  A    between atoms: N_9  and  C_20
REMARK    3  A    between atoms: N_9  and  C_25
REMARK    4  A    between atoms: C_10  and  C_11
REMARK    5  A    between atoms: C_18  and  C_19
REMARK                            x       y       z     vdW  Elec       q    Type
REMARK                         _______ _______ _______ _____ _____    ______ ____
ROOT
ATOM      1  F   UNL     1      38.235 -25.033 173.377  0.00  0.00    +0.000 F 
ATOM      2  F   UNL     1      38.123 -25.774 175.971  0.00  0.00    +0.000 F 
ATOM      3  C   UNL     1      39.132 -21.910 175.016  0.00  0.00    +0.000 A 
ATOM      4  C   UNL     1      38.858 -22.809 173.962  0.00  0.00    +0.000 A 
ATOM      5  C   UNL     1      39.057 -22.299 176.364  0.00  0.00    +0.000 A 
ATOM      6  C   UNL     1      38.525 -24.123 174.320  0.00  0.00    +0.000 A 
ATOM      7  C   UNL     1      38.714 -23.611 176.683  0.00  0.00    +0.000 A 
ATOM      8  C   UNL     1      38.450 -24.512 175.658  0.00  0.00    +0.000 A 
ENDROOT
BRANCH   3  14
ATOM      9  O   UNL     1      38.658 -19.721 174.357  0.00  0.00    +0.000 OA
ATOM     10  N   UNL     1      40.868 -20.226 174.755  0.00  0.00    +0.000 N 
ATOM     11  C   UNL     1      42.448 -20.030 173.406  0.00  0.00    +0.000 C 
ATOM     12  C   UNL     1      41.997 -21.099 174.441  0.00  0.00    +0.000 C 
ATOM     13  C   UNL     1      41.502 -19.050 174.161  0.00  0.00    +0.000 C 
ATOM     14  C   UNL     1      39.525 -20.520 174.698  0.00  0.00    +0.000 C 
BRANCH  11  16
ATOM     15  N   UNL     1      41.277 -19.058 171.448  0.00  0.00    +0.000 NA
ATOM     16  C   UNL     1      42.016 -20.252 171.932  0.00  0.00    +0.000 C 
ATOM     17  C   UNL     1      43.229 -20.500 171.018  0.00  0.00    +0.000 C 
ATOM     18  C   UNL     1      42.791 -20.691 169.566  0.00  0.00    +0.000 C 
ATOM     19  C   UNL     1      40.754 -19.303 170.097  0.00  0.00    +0.000 C 
ATOM     20  C   UNL     1      41.889 -19.551 169.105  0.00  0.00    +0.000 C 
ATOM     21  H   UNL     1      41.944 -18.286 171.373  0.00  0.00    +0.000 HD
ENDBRANCH  11  16
BRANCH  11  22
ATOM     22  O   UNL     1      43.862 -19.678 173.466  0.00  0.00    +0.000 OA
ATOM     23  H   UNL     1      44.255 -20.428 173.949  0.00  0.00    +0.000 HD
ENDBRANCH  11  22
ENDBRANCH   3  14
BRANCH   4  24
ATOM     24  N   UNL     1      39.007 -22.390 172.622  0.00  0.00    +0.000 N 
ATOM     25  H   UNL     1      39.971 -22.135 172.377  0.00  0.00    +0.000 HD
BRANCH  24  28
ATOM     26  I   UNL     1      35.406 -22.700 167.460  0.00  0.00    +0.000 I 
ATOM     27  F   UNL     1      40.069 -22.532 170.101  0.00  0.00    +0.000 F 
ATOM     28  C   UNL     1      38.157 -22.467 171.502  0.00  0.00    +0.000 A 
ATOM     29  C   UNL     1      38.732 -22.523 170.219  0.00  0.00    +0.000 A 
ATOM     30  C   UNL     1      36.762 -22.462 171.582  0.00  0.00    +0.000 A 
ATOM     31  C   UNL     1      37.964 -22.587 169.060  0.00  0.00    +0.000 A 
ATOM     32  C   UNL     1      35.974 -22.525 170.425  0.00  0.00    +0.000 A 
ATOM     33  C   UNL     1      36.578 -22.590 169.170  0.00  0.00    +0.000 A 
ENDBRANCH  24  28
ENDBRANCH   4  24
TORSDOF 5
ENDMDL
MODEL 6
REMARK VINA RESULT:      -6.7     32.979     34.526
REMARK  Name = 
REMARK  5 active torsions:
REMARK  status: ('A' for Active; 'I' for Inactive)
REMARK    1  A    between atoms: O_5  and  C_10
REMARK    2  A    between atoms: N_9  and  C_20
REMARK    3  A    between atoms: N_9  and  C_25
REMARK    4  A    between atoms: C_10  and  C_11
REMARK    5  A    between atoms: C_18  and  C_19
REMARK                            x       y       z     vdW  Elec       q    Type
REMARK                         _______ _______ _______ _____ _____    ______ ____
ROOT
ATOM      1  F   UNL     1      45.123  -0.159 165.229  0.00  0.00    +0.000 F 
ATOM      2  F   UNL     1      43.423  -0.148 163.131  0.00  0.00    +0.000 F 
ATOM      3  C   UNL     1      44.689  -3.731 164.687  0.00  0.00    +0.000 A 
ATOM      4  C   UNL     1      45.169  -2.539 165.275  0.00  0.00    +0.000 A 
ATOM      5  C   UNL     1      43.793  -3.717 163.604  0.00  0.00    +0.000 A 
ATOM      6  C   UNL     1      44.726  -1.333 164.716  0.00  0.00    +0.000 A 
ATOM      7  C   UNL     1      43.366  -2.499 163.081  0.00  0.00    +0.000 A 
ATOM      8  C   UNL     1      43.836  -1.318 163.641  0.00  0.00    +0.000 A 
ENDROOT
BRANCH   3  14
ATOM      9  O   UNL     1      45.974  -5.675 164.564  0.00  0.00    +0.000 OA
ATOM     10  N   UNL     1      44.576  -5.473 166.382  0.00  0.00    +0.000 N 
ATOM     11  C   UNL     1      43.064  -6.800 166.938  0.00  0.00    +0.000 C 
ATOM     12  C   UNL     1      43.210  -5.254 166.853  0.00  0.00    +0.000 C 
ATOM     13  C   UNL     1      44.621  -6.846 166.883  0.00  0.00    +0.000 C 
ATOM     14  C   UNL     1      45.152  -5.034 165.211  0.00  0.00    +0.000 C 
BRANCH  11  16
ATOM     15  N   UNL     1      42.747  -8.958 165.758  0.00  0.00    +0.000 NA
ATOM     16  C   UNL     1      42.408  -7.512 165.725  0.00  0.00    +0.000 C 
ATOM     17  C   UNL     1      40.878  -7.351 165.734  0.00  0.00    +0.000 C 
ATOM     18  C   UNL     1      40.243  -8.079 164.549  0.00  0.00    +0.000 C 
ATOM     19  C   UNL     1      42.238  -9.622 164.549  0.00  0.00    +0.000 C 
ATOM     20  C   UNL     1      40.715  -9.527 164.471  0.00  0.00    +0.000 C 
ATOM     21  H   UNL     1      42.260  -9.376 166.554  0.00  0.00    +0.000 HD
ENDBRANCH  11  16
BRANCH  11  22
ATOM     22  O   UNL     1      42.485  -7.293 168.181  0.00  0.00    +0.000 OA
ATOM     23  H   UNL     1      43.262  -7.630 168.667  0.00  0.00    +0.000 HD
ENDBRANCH  11  22
ENDBRANCH   3  14
BRANCH   4  24
ATOM     24  N   UNL     1      46.117  -2.602 166.320  0.00  0.00    +0.000 N 
ATOM     25  H   UNL     1      46.104  -3.491 166.833  0.00  0.00    +0.000 HD
BRANCH  24  28
ATOM     26  I   UNL     1      50.920   1.107 168.015  0.00  0.00    +0.000 I 
ATOM     27  F   UNL     1      46.197  -1.324 168.741  0.00  0.00    +0.000 F 
ATOM     28  C   UNL     1      47.218  -1.792 166.653  0.00  0.00    +0.000 A 
ATOM     29  C   UNL     1      47.224  -1.135 167.897  0.00  0.00    +0.000 A 
ATOM     30  C   UNL     1      48.307  -1.571 165.805  0.00  0.00    +0.000 A 
ATOM     31  C   UNL     1      48.268  -0.306 168.299  0.00  0.00    +0.000 A 
ATOM     32  C   UNL     1      49.366  -0.738 166.193  0.00  0.00    +0.000 A 
ATOM     33  C   UNL     1      49.342  -0.112 167.439  0.00  0.00    +0.000 A 
ENDBRANCH  24  28
ENDBRANCH   4  24
TORSDOF 5
ENDMDL
MODEL 7
REMARK VINA RESULT:      -6.5      3.997      6.185
REMARK  Name = 
REMARK  5 active torsions:
REMARK  status: ('A' for Active; 'I' for Inactive)
REMARK    1  A    between atoms: O_5  and  C_10
REMARK    2  A    between atoms: N_9  and  C_20
REMARK    3  A    between atoms: N_9  and  C_25
REMARK    4  A    between atoms: C_10  and  C_11
REMARK    5  A    between atoms: C_18  and  C_19
REMARK                            x       y       z     vdW  Elec       q    Type
REMARK                         _______ _______ _______ _____ _____    ______ ____
ROOT
ATOM      1  F   UNL     1      18.432   1.043 193.488  0.00  0.00    +0.000 F 
ATOM      2  F   UNL     1      17.176   1.795 191.219  0.00  0.00    +0.000 F 
ATOM      3  C   UNL     1      21.181   0.894 191.108  0.00  0.00    +0.000 A 
ATOM      4  C   UNL     1      20.509   0.800 192.347  0.00  0.00    +0.000 A 
ATOM      5  C   UNL     1      20.517   1.272 189.928  0.00  0.00    +0.000 A 
ATOM      6  C   UNL     1      19.145   1.123 192.354  0.00  0.00    +0.000 A 
ATOM      7  C   UNL     1      19.159   1.576 189.971  0.00  0.00    +0.000 A 
ATOM      8  C   UNL     1      18.484   1.498 191.183  0.00  0.00    +0.000 A 
ENDROOT
BRANCH   3  14
ATOM      9  O   UNL     1      22.997  -0.566 190.981  0.00  0.00    +0.000 OA
ATOM     10  N   UNL     1      23.484   1.679 191.122  0.00  0.00    +0.000 N 
ATOM     11  C   UNL     1      24.646   2.608 192.586  0.00  0.00    +0.000 C 
ATOM     12  C   UNL     1      23.303   2.924 191.868  0.00  0.00    +0.000 C 
ATOM     13  C   UNL     1      24.913   1.605 191.424  0.00  0.00    +0.000 C 
ATOM     14  C   UNL     1      22.630   0.602 191.046  0.00  0.00    +0.000 C 
BRANCH  11  16
ATOM     15  N   UNL     1      25.213   0.573 193.887  0.00  0.00    +0.000 NA
ATOM     16  C   UNL     1      24.556   1.903 193.966  0.00  0.00    +0.000 C 
ATOM     17  C   UNL     1      25.231   2.736 195.071  0.00  0.00    +0.000 C 
ATOM     18  C   UNL     1      25.158   2.018 196.419  0.00  0.00    +0.000 C 
ATOM     19  C   UNL     1      25.027  -0.156 195.149  0.00  0.00    +0.000 C 
ATOM     20  C   UNL     1      25.677   0.588 196.315  0.00  0.00    +0.000 C 
ATOM     21  H   UNL     1      26.219   0.727 193.778  0.00  0.00    +0.000 HD
ENDBRANCH  11  16
BRANCH  11  22
ATOM     22  O   UNL     1      25.582   3.723 192.654  0.00  0.00    +0.000 OA
ATOM     23  H   UNL     1      24.995   4.502 192.660  0.00  0.00    +0.000 HD
ENDBRANCH  11  22
ENDBRANCH   3  14
BRANCH   4  24
ATOM     24  N   UNL     1      21.230   0.478 193.517  0.00  0.00    +0.000 N 
ATOM     25  H   UNL     1      22.212   0.775 193.488  0.00  0.00    +0.000 HD
BRANCH  24  28
ATOM     26  I   UNL     1      19.355  -1.708 199.121  0.00  0.00    +0.000 I 
ATOM     27  F   UNL     1      20.577  -2.152 193.920  0.00  0.00    +0.000 F 
ATOM     28  C   UNL     1      20.826   0.039 194.792  0.00  0.00    +0.000 A 
ATOM     29  C   UNL     1      20.481  -1.314 194.965  0.00  0.00    +0.000 A 
ATOM     30  C   UNL     1      20.715   0.878 195.904  0.00  0.00    +0.000 A 
ATOM     31  C   UNL     1      20.059  -1.826 196.188  0.00  0.00    +0.000 A 
ATOM     32  C   UNL     1      20.291   0.379 197.143  0.00  0.00    +0.000 A 
ATOM     33  C   UNL     1      19.968  -0.971 197.280  0.00  0.00    +0.000 A 
ENDBRANCH  24  28
ENDBRANCH   4  24
TORSDOF 5
ENDMDL
MODEL 8
REMARK VINA RESULT:      -6.1     16.935     19.752
REMARK  Name = 
REMARK  5 active torsions:
REMARK  status: ('A' for Active; 'I' for Inactive)
REMARK    1  A    between atoms: O_5  and  C_10
REMARK    2  A    between atoms: N_9  and  C_20
REMARK    3  A    between atoms: N_9  and  C_25
REMARK    4  A    between atoms: C_10  and  C_11
REMARK    5  A    between atoms: C_18  and  C_19
REMARK                            x       y       z     vdW  Elec       q    Type
REMARK                         _______ _______ _______ _____ _____    ______ ____
ROOT
ATOM      1  F   UNL     1      34.497 -10.941 193.518  0.00  0.00    +0.000 F 
ATOM      2  F   UNL     1      32.560  -9.741 192.070  0.00  0.00    +0.000 F 
ATOM      3  C   UNL     1      31.654 -11.296 195.761  0.00  0.00    +0.000 A 
ATOM      4  C   UNL     1      32.982 -11.415 195.293  0.00  0.00    +0.000 A 
ATOM      5  C   UNL     1      30.654 -10.657 195.008  0.00  0.00    +0.000 A 
ATOM      6  C   UNL     1      33.257 -10.882 194.026  0.00  0.00    +0.000 A 
ATOM      7  C   UNL     1      30.967 -10.131 193.758  0.00  0.00    +0.000 A 
ATOM      8  C   UNL     1      32.265 -10.247 193.277  0.00  0.00    +0.000 A 
ENDROOT
BRANCH   3  14
ATOM      9  O   UNL     1      31.947 -11.550 198.063  0.00  0.00    +0.000 OA
ATOM     10  N   UNL     1      30.270 -12.792 197.091  0.00  0.00    +0.000 N 
ATOM     11  C   UNL     1      30.081 -14.870 197.133  0.00  0.00    +0.000 C 
ATOM     12  C   UNL     1      29.910 -13.760 196.057  0.00  0.00    +0.000 C 
ATOM     13  C   UNL     1      29.986 -13.722 198.182  0.00  0.00    +0.000 C 
ATOM     14  C   UNL     1      31.295 -11.873 197.075  0.00  0.00    +0.000 C 
BRANCH  11  16
ATOM     15  N   UNL     1      32.014 -15.509 198.550  0.00  0.00    +0.000 NA
ATOM     16  C   UNL     1      31.450 -15.601 197.179  0.00  0.00    +0.000 C 
ATOM     17  C   UNL     1      31.313 -17.082 196.786  0.00  0.00    +0.000 C 
ATOM     18  C   UNL     1      32.663 -17.795 196.861  0.00  0.00    +0.000 C 
ATOM     19  C   UNL     1      33.365 -16.088 198.578  0.00  0.00    +0.000 C 
ATOM     20  C   UNL     1      33.335 -17.571 198.211  0.00  0.00    +0.000 C 
ATOM     21  H   UNL     1      31.432 -16.082 199.167  0.00  0.00    +0.000 HD
ENDBRANCH  11  16
BRANCH  11  22
ATOM     22  O   UNL     1      28.994 -15.839 197.192  0.00  0.00    +0.000 OA
ATOM     23  H   UNL     1      28.228 -15.294 197.454  0.00  0.00    +0.000 HD
ENDBRANCH  11  22
ENDBRANCH   3  14
BRANCH   4  24
ATOM     24  N   UNL     1      33.937 -12.121 196.056  0.00  0.00    +0.000 N 
ATOM     25  H   UNL     1      33.752 -12.100 197.066  0.00  0.00    +0.000 HD
BRANCH  24  28
ATOM     26  I   UNL     1      38.644 -15.985 194.439  0.00  0.00    +0.000 I 
ATOM     27  F   UNL     1      36.512 -11.242 195.745  0.00  0.00    +0.000 F 
ATOM     28  C   UNL     1      34.953 -13.028 195.703  0.00  0.00    +0.000 A 
ATOM     29  C   UNL     1      36.264 -12.545 195.534  0.00  0.00    +0.000 A 
ATOM     30  C   UNL     1      34.737 -14.390 195.477  0.00  0.00    +0.000 A 
ATOM     31  C   UNL     1      37.324 -13.372 195.173  0.00  0.00    +0.000 A 
ATOM     32  C   UNL     1      35.793 -15.237 195.112  0.00  0.00    +0.000 A 
ATOM     33  C   UNL     1      37.081 -14.724 194.964  0.00  0.00    +0.000 A 
ENDBRANCH  24  28
ENDBRANCH   4  24
TORSDOF 5
ENDMDL
MODEL 9
REMARK VINA RESULT:      -6.1     21.646     25.220
REMARK  Name = 
REMARK  5 active torsions:
REMARK  status: ('A' for Active; 'I' for Inactive)
REMARK    1  A    between atoms: O_5  and  C_10
REMARK    2  A    between atoms: N_9  and  C_20
REMARK    3  A    between atoms: N_9  and  C_25
REMARK    4  A    between atoms: C_10  and  C_11
REMARK    5  A    between atoms: C_18  and  C_19
REMARK                            x       y       z     vdW  Elec       q    Type
REMARK                         _______ _______ _______ _____ _____    ______ ____
ROOT
ATOM      1  F   UNL     1      22.898   8.662 171.070  0.00  0.00    +0.000 F 
ATOM      2  F   UNL     1      24.869   8.101 172.827  0.00  0.00    +0.000 F 
ATOM      3  C   UNL     1      25.564  10.791 169.803  0.00  0.00    +0.000 A 
ATOM      4  C   UNL     1      24.289  10.186 169.881  0.00  0.00    +0.000 A 
ATOM      5  C   UNL     1      26.580  10.504 170.731  0.00  0.00    +0.000 A 
ATOM      6  C   UNL     1      24.086   9.266 170.919  0.00  0.00    +0.000 A 
ATOM      7  C   UNL     1      26.339   9.592 171.755  0.00  0.00    +0.000 A 
ATOM      8  C   UNL     1      25.094   8.981 171.841  0.00  0.00    +0.000 A 
ENDROOT
BRANCH   3  14
ATOM      9  O   UNL     1      25.265  12.821 168.691  0.00  0.00    +0.000 OA
ATOM     10  N   UNL     1      26.724  11.321 167.731  0.00  0.00    +0.000 N 
ATOM     11  C   UNL     1      26.599  10.527 165.805  0.00  0.00    +0.000 C 
ATOM     12  C   UNL     1      26.921   9.966 167.219  0.00  0.00    +0.000 C 
ATOM     13  C   UNL     1      26.879  11.934 166.414  0.00  0.00    +0.000 C 
ATOM     14  C   UNL     1      25.849  11.742 168.707  0.00  0.00    +0.000 C 
BRANCH  11  16
ATOM     15  N   UNL     1      24.764  11.574 164.506  0.00  0.00    +0.000 NA
ATOM     16  C   UNL     1      25.138  10.379 165.306  0.00  0.00    +0.000 C 
ATOM     17  C   UNL     1      24.960   9.118 164.443  0.00  0.00    +0.000 C 
ATOM     18  C   UNL     1      23.522   8.999 163.936  0.00  0.00    +0.000 C 
ATOM     19  C   UNL     1      23.345  11.506 164.132  0.00  0.00    +0.000 C 
ATOM     20  C   UNL     1      23.065  10.285 163.257  0.00  0.00    +0.000 C 
ATOM     21  H   UNL     1      25.303  11.549 163.636  0.00  0.00    +0.000 HD
ENDBRANCH  11  16
BRANCH  11  22
ATOM     22  O   UNL     1      27.529  10.122 164.759  0.00  0.00    +0.000 OA
ATOM     23  H   UNL     1      28.368  10.004 165.244  0.00  0.00    +0.000 HD
ENDBRANCH  11  22
ENDBRANCH   3  14
BRANCH   4  24
ATOM     24  N   UNL     1      23.320  10.456 168.890  0.00  0.00    +0.000 N 
ATOM     25  H   UNL     1      23.425  11.380 168.455  0.00  0.00    +0.000 HD
BRANCH  24  28
ATOM     26  I   UNL     1      19.344   6.664 165.805  0.00  0.00    +0.000 I 
ATOM     27  F   UNL     1      24.166   8.214 167.564  0.00  0.00    +0.000 F 
ATOM     28  C   UNL     1      22.389   9.638 168.224  0.00  0.00    +0.000 A 
ATOM     29  C   UNL     1      22.855   8.501 167.538  0.00  0.00    +0.000 A 
ATOM     30  C   UNL     1      21.017   9.900 168.175  0.00  0.00    +0.000 A 
ATOM     31  C   UNL     1      22.003   7.647 166.844  0.00  0.00    +0.000 A 
ATOM     32  C   UNL     1      20.146   9.051 167.480  0.00  0.00    +0.000 A 
ATOM     33  C   UNL     1      20.642   7.927 166.820  0.00  0.00    +0.000 A 
ENDBRANCH  24  28
ENDBRANCH   4  24
TORSDOF 5
ENDMDL
