MODEL 1
REMARK VINA RESULT:      -8.7      0.000      0.000
REMARK  Name = COUMESTROL.pdbqt.pdb
REMARK  2 active torsions:
REMARK  status: ('A' for Active; 'I' for Inactive)
REMARK    1  A    between atoms: C_16  and  O_19
REMARK    2  A    between atoms: C_18  and  O_21
REMARK                            x       y       z     vdW  Elec       q    Type
REMARK                         _______ _______ _______ _____ _____    ______ ____
ROOT
ATOM      1  O   UNL     1      19.620   2.788 187.561  0.00  0.00    +0.000 OA
ATOM      2  O   UNL     1      23.302   4.454 188.149  0.00  0.00    +0.000 OA
ATOM      3  O   UNL     1      23.054   3.991 190.399  0.00  0.00    +0.000 OA
ATOM      4  C   UNL     1      21.296   3.373 188.960  0.00  0.00    +0.000 A 
ATOM      5  C   UNL     1      20.841   3.354 187.668  0.00  0.00    +0.000 A 
ATOM      6  C   UNL     1      20.277   2.768 189.737  0.00  0.00    +0.000 A 
ATOM      7  C   UNL     1      21.545   3.864 186.529  0.00  0.00    +0.000 A 
ATOM      8  C   UNL     1      19.268   2.425 188.832  0.00  0.00    +0.000 A 
ATOM      9  C   UNL     1      22.801   4.420 186.811  0.00  0.00    +0.000 A 
ATOM     10  C   UNL     1      22.588   3.942 189.267  0.00  0.00    +0.000 A 
ATOM     11  C   UNL     1      20.089   2.470 191.097  0.00  0.00    +0.000 A 
ATOM     12  C   UNL     1      21.072   3.839 185.223  0.00  0.00    +0.000 A 
ATOM     13  C   UNL     1      18.072   1.801 189.186  0.00  0.00    +0.000 A 
ATOM     14  C   UNL     1      23.600   4.954 185.808  0.00  0.00    +0.000 A 
ATOM     15  C   UNL     1      18.902   1.844 191.487  0.00  0.00    +0.000 A 
ATOM     16  C   UNL     1      17.925   1.523 190.547  0.00  0.00    +0.000 A 
ATOM     17  C   UNL     1      21.863   4.372 184.206  0.00  0.00    +0.000 A 
ATOM     18  C   UNL     1      23.113   4.922 184.505  0.00  0.00    +0.000 A 
ENDROOT
BRANCH  16  19
ATOM     19  O   UNL     1      16.787   0.910 191.000  0.00  0.00    +0.000 OA
ATOM     20  H   UNL     1      16.173   1.597 191.314  0.00  0.00    +0.000 HD
ENDBRANCH  16  19
BRANCH  18  21
ATOM     21  O   UNL     1      23.893   5.446 183.513  0.00  0.00    +0.000 OA
ATOM     22  H   UNL     1      23.325   5.648 182.749  0.00  0.00    +0.000 HD
ENDBRANCH  18  21
TORSDOF 2
ENDMDL
MODEL 2
REMARK VINA RESULT:      -8.7      1.032      6.201
REMARK  Name = COUMESTROL.pdbqt.pdb
REMARK  2 active torsions:
REMARK  status: ('A' for Active; 'I' for Inactive)
REMARK    1  A    between atoms: C_16  and  O_19
REMARK    2  A    between atoms: C_18  and  O_21
REMARK                            x       y       z     vdW  Elec       q    Type
REMARK                         _______ _______ _______ _____ _____    ______ ____
ROOT
ATOM      1  O   UNL     1      20.026   3.188 185.904  0.00  0.00    +0.000 OA
ATOM      2  O   UNL     1      20.966   3.425 189.872  0.00  0.00    +0.000 OA
ATOM      3  O   UNL     1      22.879   4.567 189.259  0.00  0.00    +0.000 OA
ATOM      4  C   UNL     1      21.431   3.868 187.539  0.00  0.00    +0.000 A 
ATOM      5  C   UNL     1      20.262   3.222 187.233  0.00  0.00    +0.000 A 
ATOM      6  C   UNL     1      21.982   4.278 186.300  0.00  0.00    +0.000 A 
ATOM      7  C   UNL     1      19.362   2.635 188.179  0.00  0.00    +0.000 A 
ATOM      8  C   UNL     1      21.083   3.837 185.324  0.00  0.00    +0.000 A 
ATOM      9  C   UNL     1      19.752   2.756 189.521  0.00  0.00    +0.000 A 
ATOM     10  C   UNL     1      21.847   4.002 188.917  0.00  0.00    +0.000 A 
ATOM     11  C   UNL     1      23.134   4.969 185.889  0.00  0.00    +0.000 A 
ATOM     12  C   UNL     1      18.179   1.982 187.856  0.00  0.00    +0.000 A 
ATOM     13  C   UNL     1      21.248   4.036 183.954  0.00  0.00    +0.000 A 
ATOM     14  C   UNL     1      18.979   2.236 190.551  0.00  0.00    +0.000 A 
ATOM     15  C   UNL     1      23.332   5.186 184.522  0.00  0.00    +0.000 A 
ATOM     16  C   UNL     1      22.406   4.726 183.587  0.00  0.00    +0.000 A 
ATOM     17  C   UNL     1      17.393   1.454 188.880  0.00  0.00    +0.000 A 
ATOM     18  C   UNL     1      17.798   1.585 190.211  0.00  0.00    +0.000 A 
ENDROOT
BRANCH  16  19
ATOM     19  O   UNL     1      22.663   4.974 182.265  0.00  0.00    +0.000 OA
ATOM     20  H   UNL     1      23.527   4.586 182.043  0.00  0.00    +0.000 HD
ENDBRANCH  16  19
BRANCH  18  21
ATOM     21  O   UNL     1      17.033   1.071 191.220  0.00  0.00    +0.000 OA
ATOM     22  H   UNL     1      17.577   0.445 191.730  0.00  0.00    +0.000 HD
ENDBRANCH  18  21
TORSDOF 2
ENDMDL
MODEL 3
REMARK VINA RESULT:      -8.5      1.562      2.910
REMARK  Name = COUMESTROL.pdbqt.pdb
REMARK  2 active torsions:
REMARK  status: ('A' for Active; 'I' for Inactive)
REMARK    1  A    between atoms: C_16  and  O_19
REMARK    2  A    between atoms: C_18  and  O_21
REMARK                            x       y       z     vdW  Elec       q    Type
REMARK                         _______ _______ _______ _____ _____    ______ ____
ROOT
ATOM      1  O   UNL     1      21.330   3.104 190.161  0.00  0.00    +0.000 OA
ATOM      2  O   UNL     1      21.307   4.083 186.196  0.00  0.00    +0.000 OA
ATOM      3  O   UNL     1      19.208   3.128 186.063  0.00  0.00    +0.000 OA
ATOM      4  C   UNL     1      20.281   3.110 188.159  0.00  0.00    +0.000 A 
ATOM      5  C   UNL     1      21.403   3.463 188.861  0.00  0.00    +0.000 A 
ATOM      6  C   UNL     1      19.425   2.474 189.092  0.00  0.00    +0.000 A 
ATOM      7  C   UNL     1      22.547   4.135 188.323  0.00  0.00    +0.000 A 
ATOM      8  C   UNL     1      20.113   2.494 190.308  0.00  0.00    +0.000 A 
ATOM      9  C   UNL     1      22.465   4.438 186.955  0.00  0.00    +0.000 A 
ATOM     10  C   UNL     1      20.181   3.414 186.749  0.00  0.00    +0.000 A 
ATOM     11  C   UNL     1      18.151   1.884 189.050  0.00  0.00    +0.000 A 
ATOM     12  C   UNL     1      23.679   4.488 189.046  0.00  0.00    +0.000 A 
ATOM     13  C   UNL     1      19.620   1.964 191.500  0.00  0.00    +0.000 A 
ATOM     14  C   UNL     1      23.498   5.090 186.293  0.00  0.00    +0.000 A 
ATOM     15  C   UNL     1      17.626   1.343 190.228  0.00  0.00    +0.000 A 
ATOM     16  C   UNL     1      18.351   1.388 191.416  0.00  0.00    +0.000 A 
ATOM     17  C   UNL     1      24.724   5.143 188.394  0.00  0.00    +0.000 A 
ATOM     18  C   UNL     1      24.625   5.436 187.031  0.00  0.00    +0.000 A 
ENDROOT
BRANCH  16  19
ATOM     19  O   UNL     1      17.776   0.839 192.531  0.00  0.00    +0.000 OA
ATOM     20  H   UNL     1      17.085   1.445 192.850  0.00  0.00    +0.000 HD
ENDBRANCH  16  19
BRANCH  18  21
ATOM     21  O   UNL     1      25.644   6.077 186.386  0.00  0.00    +0.000 OA
ATOM     22  H   UNL     1      25.944   6.816 186.944  0.00  0.00    +0.000 HD
ENDBRANCH  18  21
TORSDOF 2
ENDMDL
MODEL 4
REMARK VINA RESULT:      -8.3      2.159      7.100
REMARK  Name = COUMESTROL.pdbqt.pdb
REMARK  2 active torsions:
REMARK  status: ('A' for Active; 'I' for Inactive)
REMARK    1  A    between atoms: C_16  and  O_19
REMARK    2  A    between atoms: C_18  and  O_21
REMARK                            x       y       z     vdW  Elec       q    Type
REMARK                         _______ _______ _______ _____ _____    ______ ____
ROOT
ATOM      1  O   UNL     1      21.063   3.105 190.060  0.00  0.00    +0.000 OA
ATOM      2  O   UNL     1      17.958   0.776 191.332  0.00  0.00    +0.000 OA
ATOM      3  O   UNL     1      17.117   0.879 189.182  0.00  0.00    +0.000 OA
ATOM      4  C   UNL     1      19.131   2.018 189.618  0.00  0.00    +0.000 A 
ATOM      5  C   UNL     1      20.073   2.335 190.561  0.00  0.00    +0.000 A 
ATOM      6  C   UNL     1      19.559   2.641 188.419  0.00  0.00    +0.000 A 
ATOM      7  C   UNL     1      20.054   1.920 191.931  0.00  0.00    +0.000 A 
ATOM      8  C   UNL     1      20.751   3.296 188.741  0.00  0.00    +0.000 A 
ATOM      9  C   UNL     1      18.958   1.123 192.293  0.00  0.00    +0.000 A 
ATOM     10  C   UNL     1      17.995   1.199 189.974  0.00  0.00    +0.000 A 
ATOM     11  C   UNL     1      19.079   2.726 187.102  0.00  0.00    +0.000 A 
ATOM     12  C   UNL     1      21.017   2.248 192.878  0.00  0.00    +0.000 A 
ATOM     13  C   UNL     1      21.509   4.040 187.837  0.00  0.00    +0.000 A 
ATOM     14  C   UNL     1      18.804   0.645 193.588  0.00  0.00    +0.000 A 
ATOM     15  C   UNL     1      19.814   3.463 186.169  0.00  0.00    +0.000 A 
ATOM     16  C   UNL     1      20.997   4.099 186.538  0.00  0.00    +0.000 A 
ATOM     17  C   UNL     1      20.875   1.775 194.182  0.00  0.00    +0.000 A 
ATOM     18  C   UNL     1      19.776   0.982 194.524  0.00  0.00    +0.000 A 
ENDROOT
BRANCH  16  19
ATOM     19  O   UNL     1      21.666   4.804 185.573  0.00  0.00    +0.000 OA
ATOM     20  H   UNL     1      21.078   4.907 184.805  0.00  0.00    +0.000 HD
ENDBRANCH  16  19
BRANCH  18  21
ATOM     21  O   UNL     1      19.630   0.515 195.800  0.00  0.00    +0.000 OA
ATOM     22  H   UNL     1      18.909  -0.139 195.808  0.00  0.00    +0.000 HD
ENDBRANCH  18  21
TORSDOF 2
ENDMDL
MODEL 5
REMARK VINA RESULT:      -8.3      1.604      6.606
REMARK  Name = COUMESTROL.pdbqt.pdb
REMARK  2 active torsions:
REMARK  status: ('A' for Active; 'I' for Inactive)
REMARK    1  A    between atoms: C_16  and  O_19
REMARK    2  A    between atoms: C_18  and  O_21
REMARK                            x       y       z     vdW  Elec       q    Type
REMARK                         _______ _______ _______ _____ _____    ______ ____
ROOT
ATOM      1  O   UNL     1      22.779   4.102 188.469  0.00  0.00    +0.000 OA
ATOM      2  O   UNL     1      19.308   2.341 189.708  0.00  0.00    +0.000 OA
ATOM      3  O   UNL     1      18.575   2.454 187.520  0.00  0.00    +0.000 OA
ATOM      4  C   UNL     1      20.721   3.298 187.993  0.00  0.00    +0.000 A 
ATOM      5  C   UNL     1      21.665   3.518 188.961  0.00  0.00    +0.000 A 
ATOM      6  C   UNL     1      21.285   3.782 186.786  0.00  0.00    +0.000 A 
ATOM      7  C   UNL     1      21.531   3.185 190.347  0.00  0.00    +0.000 A 
ATOM      8  C   UNL     1      22.550   4.267 187.130  0.00  0.00    +0.000 A 
ATOM      9  C   UNL     1      20.312   2.584 190.696  0.00  0.00    +0.000 A 
ATOM     10  C   UNL     1      19.461   2.679 188.335  0.00  0.00    +0.000 A 
ATOM     11  C   UNL     1      20.874   3.868 185.446  0.00  0.00    +0.000 A 
ATOM     12  C   UNL     1      22.496   3.414 191.320  0.00  0.00    +0.000 A 
ATOM     13  C   UNL     1      23.447   4.837 186.227  0.00  0.00    +0.000 A 
ATOM     14  C   UNL     1      20.038   2.205 192.004  0.00  0.00    +0.000 A 
ATOM     15  C   UNL     1      21.748   4.434 184.513  0.00  0.00    +0.000 A 
ATOM     16  C   UNL     1      23.000   4.903 184.905  0.00  0.00    +0.000 A 
ATOM     17  C   UNL     1      22.234   3.039 192.637  0.00  0.00    +0.000 A 
ATOM     18  C   UNL     1      21.014   2.441 192.966  0.00  0.00    +0.000 A 
ENDROOT
BRANCH  16  19
ATOM     19  O   UNL     1      23.805   5.446 183.939  0.00  0.00    +0.000 OA
ATOM     20  H   UNL     1      24.697   5.072 184.038  0.00  0.00    +0.000 HD
ENDBRANCH  16  19
BRANCH  18  21
ATOM     21  O   UNL     1      20.751   2.071 194.254  0.00  0.00    +0.000 OA
ATOM     22  H   UNL     1      21.452   1.464 194.550  0.00  0.00    +0.000 HD
ENDBRANCH  18  21
TORSDOF 2
ENDMDL
MODEL 6
REMARK VINA RESULT:      -8.0      2.200      3.995
REMARK  Name = COUMESTROL.pdbqt.pdb
REMARK  2 active torsions:
REMARK  status: ('A' for Active; 'I' for Inactive)
REMARK    1  A    between atoms: C_16  and  O_19
REMARK    2  A    between atoms: C_18  and  O_21
REMARK                            x       y       z     vdW  Elec       q    Type
REMARK                         _______ _______ _______ _____ _____    ______ ____
ROOT
ATOM      1  O   UNL     1      21.329   2.199 190.834  0.00  0.00    +0.000 OA
ATOM      2  O   UNL     1      18.406   2.041 187.985  0.00  0.00    +0.000 OA
ATOM      3  O   UNL     1      16.963   1.307 189.634  0.00  0.00    +0.000 OA
ATOM      4  C   UNL     1      19.188   1.759 190.257  0.00  0.00    +0.000 A 
ATOM      5  C   UNL     1      20.422   2.175 189.833  0.00  0.00    +0.000 A 
ATOM      6  C   UNL     1      19.323   1.497 191.643  0.00  0.00    +0.000 A 
ATOM      7  C   UNL     1      20.760   2.551 188.493  0.00  0.00    +0.000 A 
ATOM      8  C   UNL     1      20.657   1.782 191.951  0.00  0.00    +0.000 A 
ATOM      9  C   UNL     1      19.705   2.471 187.572  0.00  0.00    +0.000 A 
ATOM     10  C   UNL     1      18.090   1.671 189.321  0.00  0.00    +0.000 A 
ATOM     11  C   UNL     1      18.476   1.054 192.672  0.00  0.00    +0.000 A 
ATOM     12  C   UNL     1      22.017   2.972 188.075  0.00  0.00    +0.000 A 
ATOM     13  C   UNL     1      21.215   1.656 193.222  0.00  0.00    +0.000 A 
ATOM     14  C   UNL     1      19.881   2.805 186.236  0.00  0.00    +0.000 A 
ATOM     15  C   UNL     1      19.004   0.916 193.960  0.00  0.00    +0.000 A 
ATOM     16  C   UNL     1      20.340   1.213 194.216  0.00  0.00    +0.000 A 
ATOM     17  C   UNL     1      22.208   3.310 186.736  0.00  0.00    +0.000 A 
ATOM     18  C   UNL     1      21.145   3.224 185.833  0.00  0.00    +0.000 A 
ENDROOT
BRANCH  16  19
ATOM     19  O   UNL     1      20.789   1.055 195.500  0.00  0.00    +0.000 OA
ATOM     20  H   UNL     1      20.519   1.834 196.018  0.00  0.00    +0.000 HD
ENDBRANCH  16  19
BRANCH  18  21
ATOM     21  O   UNL     1      21.325   3.553 184.519  0.00  0.00    +0.000 OA
ATOM     22  H   UNL     1      20.547   3.253 184.017  0.00  0.00    +0.000 HD
ENDBRANCH  18  21
TORSDOF 2
ENDMDL
MODEL 7
REMARK VINA RESULT:      -8.0      2.985      6.644
REMARK  Name = COUMESTROL.pdbqt.pdb
REMARK  2 active torsions:
REMARK  status: ('A' for Active; 'I' for Inactive)
REMARK    1  A    between atoms: C_16  and  O_19
REMARK    2  A    between atoms: C_18  and  O_21
REMARK                            x       y       z     vdW  Elec       q    Type
REMARK                         _______ _______ _______ _____ _____    ______ ____
ROOT
ATOM      1  O   UNL     1      22.568   1.582 188.548  0.00  0.00    +0.000 OA
ATOM      2  O   UNL     1      19.737   0.679 191.351  0.00  0.00    +0.000 OA
ATOM      3  O   UNL     1      18.181   1.691 189.975  0.00  0.00    +0.000 OA
ATOM      4  C   UNL     1      20.416   1.642 189.237  0.00  0.00    +0.000 A 
ATOM      5  C   UNL     1      21.696   1.246 189.524  0.00  0.00    +0.000 A 
ATOM      6  C   UNL     1      20.482   2.282 187.975  0.00  0.00    +0.000 A 
ATOM      7  C   UNL     1      22.110   0.554 190.707  0.00  0.00    +0.000 A 
ATOM      8  C   UNL     1      21.826   2.221 187.592  0.00  0.00    +0.000 A 
ATOM      9  C   UNL     1      21.082   0.279 191.621  0.00  0.00    +0.000 A 
ATOM     10  C   UNL     1      19.346   1.366 190.169  0.00  0.00    +0.000 A 
ATOM     11  C   UNL     1      19.566   2.906 187.113  0.00  0.00    +0.000 A 
ATOM     12  C   UNL     1      23.412   0.158 190.985  0.00  0.00    +0.000 A 
ATOM     13  C   UNL     1      22.329   2.740 186.400  0.00  0.00    +0.000 A 
ATOM     14  C   UNL     1      21.332  -0.387 192.814  0.00  0.00    +0.000 A 
ATOM     15  C   UNL     1      20.036   3.438 185.908  0.00  0.00    +0.000 A 
ATOM     16  C   UNL     1      21.385   3.352 185.571  0.00  0.00    +0.000 A 
ATOM     17  C   UNL     1      23.677  -0.511 192.180  0.00  0.00    +0.000 A 
ATOM     18  C   UNL     1      22.640  -0.777 193.079  0.00  0.00    +0.000 A 
ENDROOT
BRANCH  16  19
ATOM     19  O   UNL     1      21.776   3.895 184.377  0.00  0.00    +0.000 OA
ATOM     20  H   UNL     1      22.539   4.477 184.539  0.00  0.00    +0.000 HD
ENDBRANCH  16  19
BRANCH  18  21
ATOM     21  O   UNL     1      22.893  -1.432 194.251  0.00  0.00    +0.000 OA
ATOM     22  H   UNL     1      23.431  -2.219 194.054  0.00  0.00    +0.000 HD
ENDBRANCH  18  21
TORSDOF 2
ENDMDL
MODEL 8
REMARK VINA RESULT:      -7.6      2.623      4.461
REMARK  Name = COUMESTROL.pdbqt.pdb
REMARK  2 active torsions:
REMARK  status: ('A' for Active; 'I' for Inactive)
REMARK    1  A    between atoms: C_16  and  O_19
REMARK    2  A    between atoms: C_18  and  O_21
REMARK                            x       y       z     vdW  Elec       q    Type
REMARK                         _______ _______ _______ _____ _____    ______ ____
ROOT
ATOM      1  O   UNL     1      18.707   0.938 191.914  0.00  0.00    +0.000 OA
ATOM      2  O   UNL     1      21.563   3.566 190.639  0.00  0.00    +0.000 OA
ATOM      3  O   UNL     1      22.458   3.487 192.768  0.00  0.00    +0.000 OA
ATOM      4  C   UNL     1      20.545   2.183 192.343  0.00  0.00    +0.000 A 
ATOM      5  C   UNL     1      19.613   1.806 191.412  0.00  0.00    +0.000 A 
ATOM      6  C   UNL     1      20.201   1.496 193.535  0.00  0.00    +0.000 A 
ATOM      7  C   UNL     1      19.564   2.254 190.053  0.00  0.00    +0.000 A 
ATOM      8  C   UNL     1      19.065   0.744 193.220  0.00  0.00    +0.000 A 
ATOM      9  C   UNL     1      20.577   3.154 189.690  0.00  0.00    +0.000 A 
ATOM     10  C   UNL     1      21.595   3.109 191.986  0.00  0.00    +0.000 A 
ATOM     11  C   UNL     1      20.716   1.423 194.839  0.00  0.00    +0.000 A 
ATOM     12  C   UNL     1      18.613   1.864 189.118  0.00  0.00    +0.000 A 
ATOM     13  C   UNL     1      18.397  -0.085 194.120  0.00  0.00    +0.000 A 
ATOM     14  C   UNL     1      20.659   3.675 188.405  0.00  0.00    +0.000 A 
ATOM     15  C   UNL     1      20.070   0.600 195.767  0.00  0.00    +0.000 A 
ATOM     16  C   UNL     1      18.941  -0.130 195.406  0.00  0.00    +0.000 A 
ATOM     17  C   UNL     1      18.683   2.379 187.824  0.00  0.00    +0.000 A 
ATOM     18  C   UNL     1      19.700   3.275 187.481  0.00  0.00    +0.000 A 
ENDROOT
BRANCH  16  19
ATOM     19  O   UNL     1      18.359  -0.915 196.366  0.00  0.00    +0.000 OA
ATOM     20  H   UNL     1      17.989  -1.704 195.934  0.00  0.00    +0.000 HD
ENDBRANCH  16  19
BRANCH  18  21
ATOM     21  O   UNL     1      19.774   3.783 186.215  0.00  0.00    +0.000 OA
ATOM     22  H   UNL     1      18.869   3.912 185.881  0.00  0.00    +0.000 HD
ENDBRANCH  18  21
TORSDOF 2
ENDMDL
MODEL 9
REMARK VINA RESULT:      -7.6      3.027      4.574
REMARK  Name = COUMESTROL.pdbqt.pdb
REMARK  2 active torsions:
REMARK  status: ('A' for Active; 'I' for Inactive)
REMARK    1  A    between atoms: C_16  and  O_19
REMARK    2  A    between atoms: C_18  and  O_21
REMARK                            x       y       z     vdW  Elec       q    Type
REMARK                         _______ _______ _______ _____ _____    ______ ____
ROOT
ATOM      1  O   UNL     1      21.388   1.114 190.073  0.00  0.00    +0.000 OA
ATOM      2  O   UNL     1      24.198   2.247 187.333  0.00  0.00    +0.000 OA
ATOM      3  O   UNL     1      22.465   2.989 185.996  0.00  0.00    +0.000 OA
ATOM      4  C   UNL     1      21.904   2.034 188.073  0.00  0.00    +0.000 A 
ATOM      5  C   UNL     1      22.379   1.458 189.222  0.00  0.00    +0.000 A 
ATOM      6  C   UNL     1      20.493   2.056 188.207  0.00  0.00    +0.000 A 
ATOM      7  C   UNL     1      23.758   1.228 189.531  0.00  0.00    +0.000 A 
ATOM      8  C   UNL     1      20.224   1.480 189.452  0.00  0.00    +0.000 A 
ATOM      9  C   UNL     1      24.663   1.643 188.542  0.00  0.00    +0.000 A 
ATOM     10  C   UNL     1      22.822   2.468 187.045  0.00  0.00    +0.000 A 
ATOM     11  C   UNL     1      19.414   2.495 187.422  0.00  0.00    +0.000 A 
ATOM     12  C   UNL     1      24.227   0.642 190.700  0.00  0.00    +0.000 A 
ATOM     13  C   UNL     1      18.945   1.307 189.979  0.00  0.00    +0.000 A 
ATOM     14  C   UNL     1      26.034   1.485 188.700  0.00  0.00    +0.000 A 
ATOM     15  C   UNL     1      18.117   2.337 187.920  0.00  0.00    +0.000 A 
ATOM     16  C   UNL     1      17.900   1.756 189.168  0.00  0.00    +0.000 A 
ATOM     17  C   UNL     1      25.601   0.477 190.872  0.00  0.00    +0.000 A 
ATOM     18  C   UNL     1      26.488   0.897 189.876  0.00  0.00    +0.000 A 
ENDROOT
BRANCH  16  19
ATOM     19  O   UNL     1      16.605   1.633 189.593  0.00  0.00    +0.000 OA
ATOM     20  H   UNL     1      16.388   2.403 190.146  0.00  0.00    +0.000 HD
ENDBRANCH  16  19
BRANCH  18  21
ATOM     21  O   UNL     1      27.835   0.738 190.038  0.00  0.00    +0.000 OA
ATOM     22  H   UNL     1      28.168   0.179 189.315  0.00  0.00    +0.000 HD
ENDBRANCH  18  21
TORSDOF 2
ENDMDL
