MODEL 1
REMARK VINA RESULT:      -8.4      0.000      0.000
REMARK  Name = CP466722.pdbqt.pdb
REMARK  3 active torsions:
REMARK  status: ('A' for Active; 'I' for Inactive)
REMARK    1  A    between atoms: C_5  and  C_23
REMARK    2  A    between atoms: C_14  and  O_16
REMARK    3  A    between atoms: C_15  and  O_18
REMARK                            x       y       z     vdW  Elec       q    Type
REMARK                         _______ _______ _______ _____ _____    ______ ____
ROOT
ATOM      1  N   UNL     1      19.358   1.982 189.564  0.00  0.00    +0.000 N 
ATOM      2  N   UNL     1      20.041   1.941 190.732  0.00  0.00    +0.000 NA
ATOM      3  N   UNL     1      17.933   1.132 191.026  0.00  0.00    +0.000 NA
ATOM      4  C   UNL     1      18.075   1.468 189.769  0.00  0.00    +0.000 A 
ATOM      5  C   UNL     1      19.151   1.426 191.593  0.00  0.00    +0.000 A 
ATOM      6  C   UNL     1      19.909   2.521 188.353  0.00  0.00    +0.000 A 
ATOM      7  N   UNL     1      19.069   2.624 187.289  0.00  0.00    +0.000 NA
ATOM      8  C   UNL     1      19.578   3.147 186.169  0.00  0.00    +0.000 A 
ATOM      9  N   UNL     1      20.833   3.581 186.016  0.00  0.00    +0.000 NA
ATOM     10  C   UNL     1      21.653   3.476 187.064  0.00  0.00    +0.000 A 
ATOM     11  C   UNL     1      21.254   2.936 188.293  0.00  0.00    +0.000 A 
ATOM     12  C   UNL     1      22.956   3.932 186.919  0.00  0.00    +0.000 A 
ATOM     13  C   UNL     1      22.216   2.842 189.328  0.00  0.00    +0.000 A 
ATOM     14  C   UNL     1      23.528   3.267 189.159  0.00  0.00    +0.000 A 
ATOM     15  C   UNL     1      23.886   3.869 187.959  0.00  0.00    +0.000 A 
ATOM     16  N   UNL     1      17.137   1.334 188.812  0.00  0.00    +0.000 N 
ATOM     17  H   UNL     1      16.177   1.180 189.101  0.00  0.00    +0.000 HD
ATOM     18  H   UNL     1      17.252   1.821 187.924  0.00  0.00    +0.000 HD
ENDROOT
BRANCH   5  19
ATOM     19  C   UNL     1      19.424   1.192 193.014  0.00  0.00    +0.000 A 
ATOM     20  N   UNL     1      20.617   1.618 193.514  0.00  0.00    +0.000 NA
ATOM     21  C   UNL     1      20.845   1.391 194.826  0.00  0.00    +0.000 A 
ATOM     22  C   UNL     1      19.950   0.762 195.673  0.00  0.00    +0.000 A 
ATOM     23  C   UNL     1      18.741   0.341 195.136  0.00  0.00    +0.000 A 
ATOM     24  C   UNL     1      18.466   0.554 193.791  0.00  0.00    +0.000 A 
ENDBRANCH   5  19
BRANCH  14  25
ATOM     25  O   UNL     1      24.387   3.161 190.220  0.00  0.00    +0.000 OA
ATOM     26  C   UNL     1      23.711   3.405 191.427  0.00  0.00    +0.000 C 
ENDBRANCH  14  25
BRANCH  15  27
ATOM     27  O   UNL     1      25.160   4.323 187.749  0.00  0.00    +0.000 OA
ATOM     28  C   UNL     1      25.132   5.652 187.292  0.00  0.00    +0.000 C 
ENDBRANCH  15  27
TORSDOF 3
ENDMDL
MODEL 2
REMARK VINA RESULT:      -8.3      1.965      6.435
REMARK  Name = CP466722.pdbqt.pdb
REMARK  3 active torsions:
REMARK  status: ('A' for Active; 'I' for Inactive)
REMARK    1  A    between atoms: C_5  and  C_23
REMARK    2  A    between atoms: C_14  and  O_16
REMARK    3  A    between atoms: C_15  and  O_18
REMARK                            x       y       z     vdW  Elec       q    Type
REMARK                         _______ _______ _______ _____ _____    ______ ____
ROOT
ATOM      1  N   UNL     1      19.704   2.786 188.619  0.00  0.00    +0.000 N 
ATOM      2  N   UNL     1      20.758   3.307 187.949  0.00  0.00    +0.000 NA
ATOM      3  N   UNL     1      18.989   3.033 186.541  0.00  0.00    +0.000 NA
ATOM      4  C   UNL     1      18.630   2.643 187.737  0.00  0.00    +0.000 A 
ATOM      5  C   UNL     1      20.293   3.441 186.697  0.00  0.00    +0.000 A 
ATOM      6  C   UNL     1      19.761   2.423 190.007  0.00  0.00    +0.000 A 
ATOM      7  N   UNL     1      18.675   1.787 190.519  0.00  0.00    +0.000 NA
ATOM      8  C   UNL     1      18.739   1.428 191.806  0.00  0.00    +0.000 A 
ATOM      9  N   UNL     1      19.780   1.636 192.618  0.00  0.00    +0.000 NA
ATOM     10  C   UNL     1      20.843   2.262 192.110  0.00  0.00    +0.000 A 
ATOM     11  C   UNL     1      20.905   2.703 190.781  0.00  0.00    +0.000 A 
ATOM     12  C   UNL     1      21.934   2.475 192.941  0.00  0.00    +0.000 A 
ATOM     13  C   UNL     1      22.069   3.385 190.354  0.00  0.00    +0.000 A 
ATOM     14  C   UNL     1      23.140   3.626 191.207  0.00  0.00    +0.000 A 
ATOM     15  C   UNL     1      23.092   3.116 192.499  0.00  0.00    +0.000 A 
ATOM     16  N   UNL     1      17.411   2.179 188.076  0.00  0.00    +0.000 N 
ATOM     17  H   UNL     1      16.786   1.889 187.333  0.00  0.00    +0.000 HD
ATOM     18  H   UNL     1      17.288   1.694 188.965  0.00  0.00    +0.000 HD
ENDROOT
BRANCH   5  19
ATOM     19  C   UNL     1      21.084   3.966 185.580  0.00  0.00    +0.000 A 
ATOM     20  N   UNL     1      20.918   3.393 184.356  0.00  0.00    +0.000 NA
ATOM     21  C   UNL     1      21.659   3.893 183.343  0.00  0.00    +0.000 A 
ATOM     22  C   UNL     1      22.557   4.936 183.478  0.00  0.00    +0.000 A 
ATOM     23  C   UNL     1      22.702   5.503 184.737  0.00  0.00    +0.000 A 
ATOM     24  C   UNL     1      21.961   5.019 185.808  0.00  0.00    +0.000 A 
ENDBRANCH   5  19
BRANCH  14  25
ATOM     25  O   UNL     1      24.237   4.274 190.706  0.00  0.00    +0.000 OA
ATOM     26  C   UNL     1      25.051   3.381 189.989  0.00  0.00    +0.000 C 
ENDBRANCH  14  25
BRANCH  15  27
ATOM     27  O   UNL     1      24.129   3.308 193.372  0.00  0.00    +0.000 OA
ATOM     28  C   UNL     1      24.699   2.073 193.727  0.00  0.00    +0.000 C 
ENDBRANCH  15  27
TORSDOF 3
ENDMDL
MODEL 3
REMARK VINA RESULT:      -8.1      2.670      6.394
REMARK  Name = CP466722.pdbqt.pdb
REMARK  3 active torsions:
REMARK  status: ('A' for Active; 'I' for Inactive)
REMARK    1  A    between atoms: C_5  and  C_23
REMARK    2  A    between atoms: C_14  and  O_16
REMARK    3  A    between atoms: C_15  and  O_18
REMARK                            x       y       z     vdW  Elec       q    Type
REMARK                         _______ _______ _______ _____ _____    ______ ____
ROOT
ATOM      1  N   UNL     1      20.115   0.884 190.789  0.00  0.00    +0.000 N 
ATOM      2  N   UNL     1      20.975   1.354 189.856  0.00  0.00    +0.000 NA
ATOM      3  N   UNL     1      18.828   1.807 189.245  0.00  0.00    +0.000 NA
ATOM      4  C   UNL     1      18.809   1.187 190.398  0.00  0.00    +0.000 A 
ATOM      5  C   UNL     1      20.165   1.903 188.937  0.00  0.00    +0.000 A 
ATOM      6  C   UNL     1      20.542   0.160 191.952  0.00  0.00    +0.000 A 
ATOM      7  N   UNL     1      19.566  -0.372 192.736  0.00  0.00    +0.000 NA
ATOM      8  C   UNL     1      19.967  -1.066 193.807  0.00  0.00    +0.000 A 
ATOM      9  N   UNL     1      21.237  -1.284 194.159  0.00  0.00    +0.000 NA
ATOM     10  C   UNL     1      22.190  -0.759 193.386  0.00  0.00    +0.000 A 
ATOM     11  C   UNL     1      21.912   0.000 192.242  0.00  0.00    +0.000 A 
ATOM     12  C   UNL     1      23.513  -0.987 193.738  0.00  0.00    +0.000 A 
ATOM     13  C   UNL     1      22.999   0.537 191.513  0.00  0.00    +0.000 A 
ATOM     14  C   UNL     1      24.320   0.334 191.896  0.00  0.00    +0.000 A 
ATOM     15  C   UNL     1      24.579  -0.483 192.989  0.00  0.00    +0.000 A 
ATOM     16  N   UNL     1      17.703   0.890 191.108  0.00  0.00    +0.000 N 
ATOM     17  H   UNL     1      16.805   0.934 190.637  0.00  0.00    +0.000 HD
ATOM     18  H   UNL     1      17.763   0.218 191.872  0.00  0.00    +0.000 HD
ENDROOT
BRANCH   5  19
ATOM     19  C   UNL     1      20.636   2.546 187.707  0.00  0.00    +0.000 A 
ATOM     20  N   UNL     1      21.969   2.795 187.586  0.00  0.00    +0.000 NA
ATOM     21  C   UNL     1      22.378   3.389 186.443  0.00  0.00    +0.000 A 
ATOM     22  C   UNL     1      21.533   3.749 185.409  0.00  0.00    +0.000 A 
ATOM     23  C   UNL     1      20.178   3.480 185.559  0.00  0.00    +0.000 A 
ATOM     24  C   UNL     1      19.715   2.872 186.719  0.00  0.00    +0.000 A 
ENDBRANCH   5  19
BRANCH  14  25
ATOM     25  O   UNL     1      25.311   0.871 191.120  0.00  0.00    +0.000 OA
ATOM     26  C   UNL     1      24.859   1.058 189.803  0.00  0.00    +0.000 C 
ENDBRANCH  14  25
BRANCH  15  27
ATOM     27  O   UNL     1      25.862  -0.732 193.396  0.00  0.00    +0.000 OA
ATOM     28  C   UNL     1      26.320  -1.942 192.845  0.00  0.00    +0.000 C 
ENDBRANCH  15  27
TORSDOF 3
ENDMDL
MODEL 4
REMARK VINA RESULT:      -7.6      1.880      2.018
REMARK  Name = CP466722.pdbqt.pdb
REMARK  3 active torsions:
REMARK  status: ('A' for Active; 'I' for Inactive)
REMARK    1  A    between atoms: C_5  and  C_23
REMARK    2  A    between atoms: C_14  and  O_16
REMARK    3  A    between atoms: C_15  and  O_18
REMARK                            x       y       z     vdW  Elec       q    Type
REMARK                         _______ _______ _______ _____ _____    ______ ____
ROOT
ATOM      1  N   UNL     1      19.844   1.389 189.603  0.00  0.00    +0.000 N 
ATOM      2  N   UNL     1      20.331   0.921 190.776  0.00  0.00    +0.000 NA
ATOM      3  N   UNL     1      18.056   0.985 190.839  0.00  0.00    +0.000 NA
ATOM      4  C   UNL     1      18.448   1.404 189.664  0.00  0.00    +0.000 A 
ATOM      5  C   UNL     1      19.225   0.689 191.500  0.00  0.00    +0.000 A 
ATOM      6  C   UNL     1      20.685   1.824 188.525  0.00  0.00    +0.000 A 
ATOM      7  N   UNL     1      20.067   2.398 187.458  0.00  0.00    +0.000 NA
ATOM      8  C   UNL     1      20.855   2.823 186.464  0.00  0.00    +0.000 A 
ATOM      9  N   UNL     1      22.188   2.738 186.440  0.00  0.00    +0.000 NA
ATOM     10  C   UNL     1      22.789   2.174 187.490  0.00  0.00    +0.000 A 
ATOM     11  C   UNL     1      22.085   1.674 188.593  0.00  0.00    +0.000 A 
ATOM     12  C   UNL     1      24.174   2.089 187.480  0.00  0.00    +0.000 A 
ATOM     13  C   UNL     1      22.820   1.065 189.638  0.00  0.00    +0.000 A 
ATOM     14  C   UNL     1      24.205   0.952 189.600  0.00  0.00    +0.000 A 
ATOM     15  C   UNL     1      24.892   1.520 188.534  0.00  0.00    +0.000 A 
ATOM     16  N   UNL     1      17.638   1.787 188.658  0.00  0.00    +0.000 N 
ATOM     17  H   UNL     1      16.668   1.989 188.875  0.00  0.00    +0.000 HD
ATOM     18  H   UNL     1      18.026   2.304 187.870  0.00  0.00    +0.000 HD
ENDROOT
BRANCH   5  19
ATOM     19  C   UNL     1      19.235   0.174 192.872  0.00  0.00    +0.000 A 
ATOM     20  N   UNL     1      19.883  -1.000 193.110  0.00  0.00    +0.000 NA
ATOM     21  C   UNL     1      19.878  -1.454 194.382  0.00  0.00    +0.000 A 
ATOM     22  C   UNL     1      19.263  -0.803 195.437  0.00  0.00    +0.000 A 
ATOM     23  C   UNL     1      18.612   0.394 195.165  0.00  0.00    +0.000 A 
ATOM     24  C   UNL     1      18.592   0.896 193.870  0.00  0.00    +0.000 A 
ENDBRANCH   5  19
BRANCH  14  25
ATOM     25  O   UNL     1      24.839   0.368 190.663  0.00  0.00    +0.000 OA
ATOM     26  C   UNL     1      23.929  -0.382 191.427  0.00  0.00    +0.000 C 
ENDBRANCH  14  25
BRANCH  15  27
ATOM     27  O   UNL     1      26.257   1.453 188.458  0.00  0.00    +0.000 OA
ATOM     28  C   UNL     1      26.832   2.585 189.063  0.00  0.00    +0.000 C 
ENDBRANCH  15  27
TORSDOF 3
ENDMDL
MODEL 5
REMARK VINA RESULT:      -7.5      3.860      7.454
REMARK  Name = CP466722.pdbqt.pdb
REMARK  3 active torsions:
REMARK  status: ('A' for Active; 'I' for Inactive)
REMARK    1  A    between atoms: C_5  and  C_23
REMARK    2  A    between atoms: C_14  and  O_16
REMARK    3  A    between atoms: C_15  and  O_18
REMARK                            x       y       z     vdW  Elec       q    Type
REMARK                         _______ _______ _______ _____ _____    ______ ____
ROOT
ATOM      1  N   UNL     1      23.893   0.531 189.962  0.00  0.00    +0.000 N 
ATOM      2  N   UNL     1      22.591   0.899 189.919  0.00  0.00    +0.000 NA
ATOM      3  N   UNL     1      23.593   1.325 187.920  0.00  0.00    +0.000 NA
ATOM      4  C   UNL     1      24.478   0.789 188.720  0.00  0.00    +0.000 A 
ATOM      5  C   UNL     1      22.444   1.376 188.674  0.00  0.00    +0.000 A 
ATOM      6  C   UNL     1      24.519   0.005 191.141  0.00  0.00    +0.000 A 
ATOM      7  N   UNL     1      25.862  -0.197 191.084  0.00  0.00    +0.000 NA
ATOM      8  C   UNL     1      26.448  -0.666 192.191  0.00  0.00    +0.000 A 
ATOM      9  N   UNL     1      25.825  -0.941 193.341  0.00  0.00    +0.000 NA
ATOM     10  C   UNL     1      24.506  -0.742 193.390  0.00  0.00    +0.000 A 
ATOM     11  C   UNL     1      23.765  -0.267 192.300  0.00  0.00    +0.000 A 
ATOM     12  C   UNL     1      23.851  -1.016 194.583  0.00  0.00    +0.000 A 
ATOM     13  C   UNL     1      22.366  -0.123 192.452  0.00  0.00    +0.000 A 
ATOM     14  C   UNL     1      21.714  -0.437 193.640  0.00  0.00    +0.000 A 
ATOM     15  C   UNL     1      22.474  -0.835 194.733  0.00  0.00    +0.000 A 
ATOM     16  N   UNL     1      25.759   0.518 188.401  0.00  0.00    +0.000 N 
ATOM     17  H   UNL     1      26.149   0.955 187.573  0.00  0.00    +0.000 HD
ATOM     18  H   UNL     1      26.428   0.313 189.143  0.00  0.00    +0.000 HD
ENDROOT
BRANCH   5  19
ATOM     19  C   UNL     1      21.188   1.914 188.144  0.00  0.00    +0.000 A 
ATOM     20  N   UNL     1      21.170   2.337 186.850  0.00  0.00    +0.000 NA
ATOM     21  C   UNL     1      20.001   2.830 186.385  0.00  0.00    +0.000 A 
ATOM     22  C   UNL     1      18.843   2.924 187.137  0.00  0.00    +0.000 A 
ATOM     23  C   UNL     1      18.890   2.481 188.452  0.00  0.00    +0.000 A 
ATOM     24  C   UNL     1      20.073   1.969 188.971  0.00  0.00    +0.000 A 
ENDBRANCH   5  19
BRANCH  14  25
ATOM     25  O   UNL     1      20.360  -0.248 193.708  0.00  0.00    +0.000 OA
ATOM     26  C   UNL     1      19.681  -1.381 193.229  0.00  0.00    +0.000 C 
ENDBRANCH  14  25
BRANCH  15  27
ATOM     27  O   UNL     1      21.884  -1.137 195.930  0.00  0.00    +0.000 OA
ATOM     28  C   UNL     1      22.054  -0.075 196.836  0.00  0.00    +0.000 C 
ENDBRANCH  15  27
TORSDOF 3
ENDMDL
MODEL 6
REMARK VINA RESULT:      -7.3      3.477      4.971
REMARK  Name = CP466722.pdbqt.pdb
REMARK  3 active torsions:
REMARK  status: ('A' for Active; 'I' for Inactive)
REMARK    1  A    between atoms: C_5  and  C_23
REMARK    2  A    between atoms: C_14  and  O_16
REMARK    3  A    between atoms: C_15  and  O_18
REMARK                            x       y       z     vdW  Elec       q    Type
REMARK                         _______ _______ _______ _____ _____    ______ ____
ROOT
ATOM      1  N   UNL     1      23.653  -0.054 191.245  0.00  0.00    +0.000 N 
ATOM      2  N   UNL     1      22.550  -0.172 192.020  0.00  0.00    +0.000 NA
ATOM      3  N   UNL     1      24.352  -1.079 193.076  0.00  0.00    +0.000 NA
ATOM      4  C   UNL     1      24.744  -0.605 191.922  0.00  0.00    +0.000 A 
ATOM      5  C   UNL     1      23.006  -0.796 193.116  0.00  0.00    +0.000 A 
ATOM      6  C   UNL     1      23.628   0.517 189.929  0.00  0.00    +0.000 A 
ATOM      7  N   UNL     1      24.779   0.449 189.208  0.00  0.00    +0.000 NA
ATOM      8  C   UNL     1      24.746   0.962 187.974  0.00  0.00    +0.000 A 
ATOM      9  N   UNL     1      23.681   1.522 187.394  0.00  0.00    +0.000 NA
ATOM     10  C   UNL     1      22.554   1.586 188.105  0.00  0.00    +0.000 A 
ATOM     11  C   UNL     1      22.451   1.099 189.416  0.00  0.00    +0.000 A 
ATOM     12  C   UNL     1      21.438   2.157 187.509  0.00  0.00    +0.000 A 
ATOM     13  C   UNL     1      21.217   1.248 190.091  0.00  0.00    +0.000 A 
ATOM     14  C   UNL     1      20.117   1.856 189.497  0.00  0.00    +0.000 A 
ATOM     15  C   UNL     1      20.214   2.264 188.173  0.00  0.00    +0.000 A 
ATOM     16  N   UNL     1      26.007  -0.632 191.453  0.00  0.00    +0.000 N 
ATOM     17  H   UNL     1      26.671  -1.255 191.901  0.00  0.00    +0.000 HD
ATOM     18  H   UNL     1      26.180  -0.447 190.466  0.00  0.00    +0.000 HD
ENDROOT
BRANCH   5  19
ATOM     19  C   UNL     1      22.168  -1.161 194.262  0.00  0.00    +0.000 A 
ATOM     20  N   UNL     1      20.841  -1.374 194.042  0.00  0.00    +0.000 NA
ATOM     21  C   UNL     1      20.090  -1.708 195.114  0.00  0.00    +0.000 A 
ATOM     22  C   UNL     1      20.586  -1.845 196.398  0.00  0.00    +0.000 A 
ATOM     23  C   UNL     1      21.943  -1.625 196.592  0.00  0.00    +0.000 A 
ATOM     24  C   UNL     1      22.752  -1.278 195.517  0.00  0.00    +0.000 A 
ENDBRANCH   5  19
BRANCH  14  25
ATOM     25  O   UNL     1      18.954   1.938 190.215  0.00  0.00    +0.000 OA
ATOM     26  C   UNL     1      18.376   0.666 190.363  0.00  0.00    +0.000 C 
ENDBRANCH  14  25
BRANCH  15  27
ATOM     27  O   UNL     1      19.154   2.850 187.535  0.00  0.00    +0.000 OA
ATOM     28  C   UNL     1      19.519   3.221 186.229  0.00  0.00    +0.000 C 
ENDBRANCH  15  27
TORSDOF 3
ENDMDL
MODEL 7
REMARK VINA RESULT:      -7.0      2.366      6.273
REMARK  Name = CP466722.pdbqt.pdb
REMARK  3 active torsions:
REMARK  status: ('A' for Active; 'I' for Inactive)
REMARK    1  A    between atoms: C_5  and  C_23
REMARK    2  A    between atoms: C_14  and  O_16
REMARK    3  A    between atoms: C_15  and  O_18
REMARK                            x       y       z     vdW  Elec       q    Type
REMARK                         _______ _______ _______ _____ _____    ______ ____
ROOT
ATOM      1  N   UNL     1      20.356   1.166 193.038  0.00  0.00    +0.000 N 
ATOM      2  N   UNL     1      20.678   1.841 191.910  0.00  0.00    +0.000 NA
ATOM      3  N   UNL     1      18.500   1.181 191.836  0.00  0.00    +0.000 NA
ATOM      4  C   UNL     1      19.013   0.786 192.972  0.00  0.00    +0.000 A 
ATOM      5  C   UNL     1      19.536   1.829 191.205  0.00  0.00    +0.000 A 
ATOM      6  C   UNL     1      21.303   0.883 194.078  0.00  0.00    +0.000 A 
ATOM      7  N   UNL     1      20.880   0.081 195.091  0.00  0.00    +0.000 NA
ATOM      8  C   UNL     1      21.772  -0.200 196.048  0.00  0.00    +0.000 A 
ATOM      9  N   UNL     1      23.035   0.233 196.082  0.00  0.00    +0.000 NA
ATOM     10  C   UNL     1      23.444   1.020 195.086  0.00  0.00    +0.000 A 
ATOM     11  C   UNL     1      22.611   1.404 194.026  0.00  0.00    +0.000 A 
ATOM     12  C   UNL     1      24.758   1.468 195.106  0.00  0.00    +0.000 A 
ATOM     13  C   UNL     1      23.139   2.269 193.038  0.00  0.00    +0.000 A 
ATOM     14  C   UNL     1      24.445   2.742 193.089  0.00  0.00    +0.000 A 
ATOM     15  C   UNL     1      25.278   2.292 194.105  0.00  0.00    +0.000 A 
ATOM     16  N   UNL     1      18.352   0.122 193.941  0.00  0.00    +0.000 N 
ATOM     17  H   UNL     1      17.466  -0.313 193.704  0.00  0.00    +0.000 HD
ATOM     18  H   UNL     1      18.879  -0.337 194.683  0.00  0.00    +0.000 HD
ENDROOT
BRANCH   5  19
ATOM     19  C   UNL     1      19.383   2.439 189.881  0.00  0.00    +0.000 A 
ATOM     20  N   UNL     1      20.240   3.437 189.534  0.00  0.00    +0.000 NA
ATOM     21  C   UNL     1      20.078   3.983 188.309  0.00  0.00    +0.000 A 
ATOM     22  C   UNL     1      19.107   3.589 187.405  0.00  0.00    +0.000 A 
ATOM     23  C   UNL     1      18.249   2.566 187.785  0.00  0.00    +0.000 A 
ATOM     24  C   UNL     1      18.380   1.978 189.037  0.00  0.00    +0.000 A 
ENDBRANCH   5  19
BRANCH  14  25
ATOM     25  O   UNL     1      24.881   3.558 192.080  0.00  0.00    +0.000 OA
ATOM     26  C   UNL     1      24.376   3.122 190.843  0.00  0.00    +0.000 C 
ENDBRANCH  14  25
BRANCH  15  27
ATOM     27  O   UNL     1      26.579   2.711 194.190  0.00  0.00    +0.000 OA
ATOM     28  C   UNL     1      26.784   3.413 195.391  0.00  0.00    +0.000 C 
ENDBRANCH  15  27
TORSDOF 3
ENDMDL
MODEL 8
REMARK VINA RESULT:      -6.8     31.095     33.453
REMARK  Name = CP466722.pdbqt.pdb
REMARK  3 active torsions:
REMARK  status: ('A' for Active; 'I' for Inactive)
REMARK    1  A    between atoms: C_5  and  C_23
REMARK    2  A    between atoms: C_14  and  O_16
REMARK    3  A    between atoms: C_15  and  O_18
REMARK                            x       y       z     vdW  Elec       q    Type
REMARK                         _______ _______ _______ _____ _____    ______ ____
ROOT
ATOM      1  N   UNL     1      40.290  -8.050 163.412  0.00  0.00    +0.000 N 
ATOM      2  N   UNL     1      40.232  -7.685 164.714  0.00  0.00    +0.000 NA
ATOM      3  N   UNL     1      42.388  -7.646 163.983  0.00  0.00    +0.000 NA
ATOM      4  C   UNL     1      41.620  -8.003 162.986  0.00  0.00    +0.000 A 
ATOM      5  C   UNL     1      41.515  -7.451 165.028  0.00  0.00    +0.000 A 
ATOM      6  C   UNL     1      39.136  -8.450 162.659  0.00  0.00    +0.000 A 
ATOM      7  N   UNL     1      39.356  -8.920 161.402  0.00  0.00    +0.000 NA
ATOM      8  C   UNL     1      38.281  -9.313 160.710  0.00  0.00    +0.000 A 
ATOM      9  N   UNL     1      37.021  -9.290 161.155  0.00  0.00    +0.000 NA
ATOM     10  C   UNL     1      36.811  -8.827 162.388  0.00  0.00    +0.000 A 
ATOM     11  C   UNL     1      37.844  -8.371 163.217  0.00  0.00    +0.000 A 
ATOM     12  C   UNL     1      35.507  -8.807 162.864  0.00  0.00    +0.000 A 
ATOM     13  C   UNL     1      37.506  -7.870 164.497  0.00  0.00    +0.000 A 
ATOM     14  C   UNL     1      36.192  -7.819 164.948  0.00  0.00    +0.000 A 
ATOM     15  C   UNL     1      35.189  -8.345 164.142  0.00  0.00    +0.000 A 
ATOM     16  N   UNL     1      42.038  -8.278 161.735  0.00  0.00    +0.000 N 
ATOM     17  H   UNL     1      43.027  -8.449 161.588  0.00  0.00    +0.000 HD
ATOM     18  H   UNL     1      41.411  -8.758 161.091  0.00  0.00    +0.000 HD
ENDROOT
BRANCH   5  19
ATOM     19  C   UNL     1      41.971  -7.032 166.356  0.00  0.00    +0.000 A 
ATOM     20  N   UNL     1      43.256  -7.312 166.708  0.00  0.00    +0.000 NA
ATOM     21  C   UNL     1      43.653  -6.916 167.938  0.00  0.00    +0.000 A 
ATOM     22  C   UNL     1      42.841  -6.252 168.840  0.00  0.00    +0.000 A 
ATOM     23  C   UNL     1      41.536  -5.977 168.452  0.00  0.00    +0.000 A 
ATOM     24  C   UNL     1      41.087  -6.368 167.197  0.00  0.00    +0.000 A 
ENDBRANCH   5  19
BRANCH  14  25
ATOM     25  O   UNL     1      35.955  -7.340 166.208  0.00  0.00    +0.000 OA
ATOM     26  C   UNL     1      36.960  -6.434 166.586  0.00  0.00    +0.000 C 
ENDBRANCH  14  25
BRANCH  15  27
ATOM     27  O   UNL     1      33.882  -8.338 164.548  0.00  0.00    +0.000 OA
ATOM     28  C   UNL     1      33.444  -9.652 164.794  0.00  0.00    +0.000 C 
ENDBRANCH  15  27
TORSDOF 3
ENDMDL
MODEL 9
REMARK VINA RESULT:      -6.8     30.582     33.236
REMARK  Name = CP466722.pdbqt.pdb
REMARK  3 active torsions:
REMARK  status: ('A' for Active; 'I' for Inactive)
REMARK    1  A    between atoms: C_5  and  C_23
REMARK    2  A    between atoms: C_14  and  O_16
REMARK    3  A    between atoms: C_15  and  O_18
REMARK                            x       y       z     vdW  Elec       q    Type
REMARK                         _______ _______ _______ _____ _____    ______ ____
ROOT
ATOM      1  N   UNL     1      39.435  -6.468 166.266  0.00  0.00    +0.000 N 
ATOM      2  N   UNL     1      38.539  -6.848 165.325  0.00  0.00    +0.000 NA
ATOM      3  N   UNL     1      37.456  -6.116 167.189  0.00  0.00    +0.000 NA
ATOM      4  C   UNL     1      38.744  -6.010 167.391  0.00  0.00    +0.000 A 
ATOM      5  C   UNL     1      37.356  -6.625 165.915  0.00  0.00    +0.000 A 
ATOM      6  C   UNL     1      40.854  -6.582 166.088  0.00  0.00    +0.000 A 
ATOM      7  N   UNL     1      41.633  -6.290 167.163  0.00  0.00    +0.000 NA
ATOM      8  C   UNL     1      42.954  -6.420 167.002  0.00  0.00    +0.000 A 
ATOM      9  N   UNL     1      43.563  -6.818 165.881  0.00  0.00    +0.000 NA
ATOM     10  C   UNL     1      42.794  -7.102 164.829  0.00  0.00    +0.000 A 
ATOM     11  C   UNL     1      41.397  -6.997 164.855  0.00  0.00    +0.000 A 
ATOM     12  C   UNL     1      43.416  -7.526 163.663  0.00  0.00    +0.000 A 
ATOM     13  C   UNL     1      40.680  -7.293 163.672  0.00  0.00    +0.000 A 
ATOM     14  C   UNL     1      41.316  -7.679 162.498  0.00  0.00    +0.000 A 
ATOM     15  C   UNL     1      42.695  -7.850 162.511  0.00  0.00    +0.000 A 
ATOM     16  N   UNL     1      39.324  -5.528 168.507  0.00  0.00    +0.000 N 
ATOM     17  H   UNL     1      38.758  -5.449 169.345  0.00  0.00    +0.000 HD
ATOM     18  H   UNL     1      40.319  -5.689 168.666  0.00  0.00    +0.000 HD
ENDROOT
BRANCH   5  19
ATOM     19  C   UNL     1      36.060  -6.897 165.286  0.00  0.00    +0.000 A 
ATOM     20  N   UNL     1      35.344  -5.839 164.815  0.00  0.00    +0.000 NA
ATOM     21  C   UNL     1      34.153  -6.115 164.240  0.00  0.00    +0.000 A 
ATOM     22  C   UNL     1      33.633  -7.389 164.104  0.00  0.00    +0.000 A 
ATOM     23  C   UNL     1      34.387  -8.449 164.590  0.00  0.00    +0.000 A 
ATOM     24  C   UNL     1      35.616  -8.210 165.191  0.00  0.00    +0.000 A 
ENDBRANCH   5  19
BRANCH  14  25
ATOM     25  O   UNL     1      40.544  -7.968 161.405  0.00  0.00    +0.000 OA
ATOM     26  C   UNL     1      39.726  -9.081 161.661  0.00  0.00    +0.000 C 
ENDBRANCH  14  25
BRANCH  15  27
ATOM     27  O   UNL     1      43.368  -8.249 161.388  0.00  0.00    +0.000 OA
ATOM     28  C   UNL     1      43.909  -9.533 161.576  0.00  0.00    +0.000 C 
ENDBRANCH  15  27
TORSDOF 3
ENDMDL
