MODEL 1
REMARK VINA RESULT:      -7.6      0.000      0.000
REMARK  Name = Curcumin.pdbqt.pdb
REMARK  8 active torsions:
REMARK  status: ('A' for Active; 'I' for Inactive)
REMARK    1  A    between atoms: C_2  and  C_4
REMARK    2  A    between atoms: C_5  and  C_6
REMARK    3  A    between atoms: C_8  and  O_12
REMARK    4  A    between atoms: C_9  and  O_14
REMARK    5  A    between atoms: C_16  and  C_18
REMARK    6  A    between atoms: C_19  and  C_20
REMARK    7  A    between atoms: C_22  and  O_26
REMARK    8  A    between atoms: C_23  and  O_28
REMARK                            x       y       z     vdW  Elec       q    Type
REMARK                         _______ _______ _______ _____ _____    ______ ____
ROOT
ATOM      1  C   UNL     1      19.063   1.242 192.226  0.00  0.00    +0.000 C 
ATOM      2  C   UNL     1      19.817   0.914 193.390  0.00  0.00    +0.000 C 
ATOM      3  O   UNL     1      21.035   0.850 193.323  0.00  0.00    +0.000 OA
ATOM      4  C   UNL     1      18.310   1.565 191.060  0.00  0.00    +0.000 C 
ATOM      5  O   UNL     1      17.110   1.331 191.028  0.00  0.00    +0.000 OA
ENDROOT
BRANCH   2   6
ATOM      6  C   UNL     1      19.139   0.665 194.636  0.00  0.00    +0.000 C 
ATOM      7  C   UNL     1      18.575   0.456 195.676  0.00  0.00    +0.000 C 
BRANCH   7   8
ATOM      8  C   UNL     1      17.906   0.210 196.912  0.00  0.00    +0.000 A 
ATOM      9  C   UNL     1      18.124  -0.985 197.594  0.00  0.00    +0.000 A 
ATOM     10  C   UNL     1      17.477  -1.243 198.807  0.00  0.00    +0.000 A 
ATOM     11  C   UNL     1      16.606  -0.278 199.322  0.00  0.00    +0.000 A 
ATOM     12  C   UNL     1      16.386   0.919 198.641  0.00  0.00    +0.000 A 
ATOM     13  C   UNL     1      17.036   1.163 197.434  0.00  0.00    +0.000 A 
BRANCH  10  14
ATOM     14  O   UNL     1      17.644  -2.395 199.534  0.00  0.00    +0.000 OA
ATOM     15  C   UNL     1      16.978  -3.529 199.054  0.00  0.00    +0.000 C 
ENDBRANCH  10  14
BRANCH  11  16
ATOM     16  O   UNL     1      15.929  -0.441 200.498  0.00  0.00    +0.000 OA
ATOM     17  H   UNL     1      16.133   0.283 201.115  0.00  0.00    +0.000 HD
ENDBRANCH  11  16
ENDBRANCH   7   8
ENDBRANCH   2   6
BRANCH   4  18
ATOM     18  C   UNL     1      18.967   2.165 189.927  0.00  0.00    +0.000 C 
ATOM     19  C   UNL     1      19.519   2.663 188.982  0.00  0.00    +0.000 C 
BRANCH  19  20
ATOM     20  C   UNL     1      20.176   3.251 187.863  0.00  0.00    +0.000 A 
ATOM     21  C   UNL     1      21.215   4.158 188.065  0.00  0.00    +0.000 A 
ATOM     22  C   UNL     1      21.870   4.743 186.978  0.00  0.00    +0.000 A 
ATOM     23  C   UNL     1      21.463   4.401 185.686  0.00  0.00    +0.000 A 
ATOM     24  C   UNL     1      20.424   3.494 185.477  0.00  0.00    +0.000 A 
ATOM     25  C   UNL     1      19.780   2.919 186.569  0.00  0.00    +0.000 A 
BRANCH  22  26
ATOM     26  O   UNL     1      22.902   5.644 187.088  0.00  0.00    +0.000 OA
ATOM     27  C   UNL     1      23.617   5.599 188.295  0.00  0.00    +0.000 C 
ENDBRANCH  22  26
BRANCH  23  28
ATOM     28  O   UNL     1      22.091   4.963 184.608  0.00  0.00    +0.000 OA
ATOM     29  H   UNL     1      22.028   5.932 184.682  0.00  0.00    +0.000 HD
ENDBRANCH  23  28
ENDBRANCH  19  20
ENDBRANCH   4  18
TORSDOF 8
ENDMDL
MODEL 2
REMARK VINA RESULT:      -7.5      0.150     11.828
REMARK  Name = Curcumin.pdbqt.pdb
REMARK  8 active torsions:
REMARK  status: ('A' for Active; 'I' for Inactive)
REMARK    1  A    between atoms: C_2  and  C_4
REMARK    2  A    between atoms: C_5  and  C_6
REMARK    3  A    between atoms: C_8  and  O_12
REMARK    4  A    between atoms: C_9  and  O_14
REMARK    5  A    between atoms: C_16  and  C_18
REMARK    6  A    between atoms: C_19  and  C_20
REMARK    7  A    between atoms: C_22  and  O_26
REMARK    8  A    between atoms: C_23  and  O_28
REMARK                            x       y       z     vdW  Elec       q    Type
REMARK                         _______ _______ _______ _____ _____    ______ ____
ROOT
ATOM      1  C   UNL     1      19.010   1.180 192.234  0.00  0.00    +0.000 C 
ATOM      2  C   UNL     1      18.254   1.544 191.083  0.00  0.00    +0.000 C 
ATOM      3  O   UNL     1      17.044   1.373 191.074  0.00  0.00    +0.000 OA
ATOM      4  C   UNL     1      19.766   0.812 193.385  0.00  0.00    +0.000 C 
ATOM      5  O   UNL     1      20.979   0.684 193.299  0.00  0.00    +0.000 OA
ENDROOT
BRANCH   2   6
ATOM      6  C   UNL     1      18.919   2.114 189.938  0.00  0.00    +0.000 C 
ATOM      7  C   UNL     1      19.471   2.590 188.984  0.00  0.00    +0.000 C 
BRANCH   7   8
ATOM      8  C   UNL     1      20.129   3.156 187.852  0.00  0.00    +0.000 A 
ATOM      9  C   UNL     1      21.232   3.988 188.033  0.00  0.00    +0.000 A 
ATOM     10  C   UNL     1      21.889   4.552 186.934  0.00  0.00    +0.000 A 
ATOM     11  C   UNL     1      21.416   4.265 185.650  0.00  0.00    +0.000 A 
ATOM     12  C   UNL     1      20.313   3.432 185.466  0.00  0.00    +0.000 A 
ATOM     13  C   UNL     1      19.668   2.878 186.568  0.00  0.00    +0.000 A 
BRANCH  10  14
ATOM     14  O   UNL     1      22.980   5.378 187.035  0.00  0.00    +0.000 OA
ATOM     15  C   UNL     1      23.247   5.893 188.309  0.00  0.00    +0.000 C 
ENDBRANCH  10  14
BRANCH  11  16
ATOM     16  O   UNL     1      21.992   4.769 184.516  0.00  0.00    +0.000 OA
ATOM     17  H   UNL     1      22.384   4.056 183.984  0.00  0.00    +0.000 HD
ENDBRANCH  11  16
ENDBRANCH   7   8
ENDBRANCH   2   6
BRANCH   4  18
ATOM     18  C   UNL     1      19.095   0.594 194.641  0.00  0.00    +0.000 C 
ATOM     19  C   UNL     1      18.539   0.409 195.690  0.00  0.00    +0.000 C 
BRANCH  19  20
ATOM     20  C   UNL     1      17.881   0.186 196.935  0.00  0.00    +0.000 A 
ATOM     21  C   UNL     1      18.089  -1.006 197.626  0.00  0.00    +0.000 A 
ATOM     22  C   UNL     1      17.451  -1.241 198.847  0.00  0.00    +0.000 A 
ATOM     23  C   UNL     1      16.602  -0.256 199.361  0.00  0.00    +0.000 A 
ATOM     24  C   UNL     1      16.391   0.938 198.674  0.00  0.00    +0.000 A 
ATOM     25  C   UNL     1      17.032   1.159 197.458  0.00  0.00    +0.000 A 
BRANCH  22  26
ATOM     26  O   UNL     1      17.600  -2.386 199.592  0.00  0.00    +0.000 OA
ATOM     27  C   UNL     1      17.070  -3.553 199.020  0.00  0.00    +0.000 C 
ENDBRANCH  22  26
BRANCH  23  28
ATOM     28  O   UNL     1      15.969  -0.467 200.555  0.00  0.00    +0.000 OA
ATOM     29  H   UNL     1      16.636  -0.702 201.225  0.00  0.00    +0.000 HD
ENDBRANCH  23  28
ENDBRANCH  19  20
ENDBRANCH   4  18
TORSDOF 8
ENDMDL
MODEL 3
REMARK VINA RESULT:      -7.3      1.417      2.285
REMARK  Name = Curcumin.pdbqt.pdb
REMARK  8 active torsions:
REMARK  status: ('A' for Active; 'I' for Inactive)
REMARK    1  A    between atoms: C_2  and  C_4
REMARK    2  A    between atoms: C_5  and  C_6
REMARK    3  A    between atoms: C_8  and  O_12
REMARK    4  A    between atoms: C_9  and  O_14
REMARK    5  A    between atoms: C_16  and  C_18
REMARK    6  A    between atoms: C_19  and  C_20
REMARK    7  A    between atoms: C_22  and  O_26
REMARK    8  A    between atoms: C_23  and  O_28
REMARK                            x       y       z     vdW  Elec       q    Type
REMARK                         _______ _______ _______ _____ _____    ______ ____
ROOT
ATOM      1  C   UNL     1      20.170   1.813 192.849  0.00  0.00    +0.000 C 
ATOM      2  C   UNL     1      20.581   1.262 194.097  0.00  0.00    +0.000 C 
ATOM      3  O   UNL     1      21.764   1.035 194.299  0.00  0.00    +0.000 OA
ATOM      4  C   UNL     1      19.761   2.360 191.598  0.00  0.00    +0.000 C 
ATOM      5  O   UNL     1      18.585   2.301 191.266  0.00  0.00    +0.000 OA
ENDROOT
BRANCH   2   6
ATOM      6  C   UNL     1      19.599   0.980 195.114  0.00  0.00    +0.000 C 
ATOM      7  C   UNL     1      18.781   0.747 195.962  0.00  0.00    +0.000 C 
BRANCH   7   8
ATOM      8  C   UNL     1      17.808   0.470 196.968  0.00  0.00    +0.000 A 
ATOM      9  C   UNL     1      17.643  -0.832 197.435  0.00  0.00    +0.000 A 
ATOM     10  C   UNL     1      16.694  -1.123 198.420  0.00  0.00    +0.000 A 
ATOM     11  C   UNL     1      15.913  -0.080 198.928  0.00  0.00    +0.000 A 
ATOM     12  C   UNL     1      16.076   1.224 198.462  0.00  0.00    +0.000 A 
ATOM     13  C   UNL     1      17.024   1.499 197.481  0.00  0.00    +0.000 A 
BRANCH  10  14
ATOM     14  O   UNL     1      16.477  -2.379 198.928  0.00  0.00    +0.000 OA
ATOM     15  C   UNL     1      17.548  -3.275 198.836  0.00  0.00    +0.000 C 
ENDBRANCH  10  14
BRANCH  11  16
ATOM     16  O   UNL     1      14.961  -0.266 199.891  0.00  0.00    +0.000 OA
ATOM     17  H   UNL     1      14.927   0.497 200.493  0.00  0.00    +0.000 HD
ENDBRANCH  11  16
ENDBRANCH   7   8
ENDBRANCH   2   6
BRANCH   4  18
ATOM     18  C   UNL     1      20.734   2.978 190.735  0.00  0.00    +0.000 C 
ATOM     19  C   UNL     1      21.549   3.490 190.014  0.00  0.00    +0.000 C 
BRANCH  19  20
ATOM     20  C   UNL     1      22.517   4.094 189.161  0.00  0.00    +0.000 A 
ATOM     21  C   UNL     1      22.141   4.545 187.896  0.00  0.00    +0.000 A 
ATOM     22  C   UNL     1      23.079   5.140 187.046  0.00  0.00    +0.000 A 
ATOM     23  C   UNL     1      24.397   5.274 187.491  0.00  0.00    +0.000 A 
ATOM     24  C   UNL     1      24.777   4.825 188.754  0.00  0.00    +0.000 A 
ATOM     25  C   UNL     1      23.835   4.234 189.590  0.00  0.00    +0.000 A 
BRANCH  22  26
ATOM     26  O   UNL     1      22.794   5.611 185.787  0.00  0.00    +0.000 OA
ATOM     27  C   UNL     1      22.164   4.697 184.928  0.00  0.00    +0.000 C 
ENDBRANCH  22  26
BRANCH  23  28
ATOM     28  O   UNL     1      25.329   5.854 186.674  0.00  0.00    +0.000 OA
ATOM     29  H   UNL     1      25.591   6.710 187.058  0.00  0.00    +0.000 HD
ENDBRANCH  23  28
ENDBRANCH  19  20
ENDBRANCH   4  18
TORSDOF 8
ENDMDL
MODEL 4
REMARK VINA RESULT:      -6.7      5.825      9.660
REMARK  Name = Curcumin.pdbqt.pdb
REMARK  8 active torsions:
REMARK  status: ('A' for Active; 'I' for Inactive)
REMARK    1  A    between atoms: C_2  and  C_4
REMARK    2  A    between atoms: C_5  and  C_6
REMARK    3  A    between atoms: C_8  and  O_12
REMARK    4  A    between atoms: C_9  and  O_14
REMARK    5  A    between atoms: C_16  and  C_18
REMARK    6  A    between atoms: C_19  and  C_20
REMARK    7  A    between atoms: C_22  and  O_26
REMARK    8  A    between atoms: C_23  and  O_28
REMARK                            x       y       z     vdW  Elec       q    Type
REMARK                         _______ _______ _______ _____ _____    ______ ____
ROOT
ATOM      1  C   UNL     1      25.163   3.692 189.964  0.00  0.00    +0.000 C 
ATOM      2  C   UNL     1      24.092   4.385 189.330  0.00  0.00    +0.000 C 
ATOM      3  O   UNL     1      24.299   5.470 188.806  0.00  0.00    +0.000 OA
ATOM      4  C   UNL     1      26.234   3.001 190.602  0.00  0.00    +0.000 C 
ATOM      5  O   UNL     1      25.991   2.092 191.383  0.00  0.00    +0.000 OA
ENDROOT
BRANCH   2   6
ATOM      6  C   UNL     1      22.774   3.802 189.306  0.00  0.00    +0.000 C 
ATOM      7  C   UNL     1      21.677   3.315 189.286  0.00  0.00    +0.000 C 
BRANCH   7   8
ATOM      8  C   UNL     1      20.373   2.736 189.264  0.00  0.00    +0.000 A 
ATOM      9  C   UNL     1      19.767   2.343 190.456  0.00  0.00    +0.000 A 
ATOM     10  C   UNL     1      18.489   1.774 190.453  0.00  0.00    +0.000 A 
ATOM     11  C   UNL     1      17.832   1.607 189.231  0.00  0.00    +0.000 A 
ATOM     12  C   UNL     1      18.436   1.999 188.037  0.00  0.00    +0.000 A 
ATOM     13  C   UNL     1      19.708   2.564 188.054  0.00  0.00    +0.000 A 
BRANCH  10  14
ATOM     14  O   UNL     1      17.831   1.365 191.585  0.00  0.00    +0.000 OA
ATOM     15  C   UNL     1      18.637   1.012 192.674  0.00  0.00    +0.000 C 
ENDBRANCH  10  14
BRANCH  11  16
ATOM     16  O   UNL     1      16.582   1.060 189.128  0.00  0.00    +0.000 OA
ATOM     17  H   UNL     1      16.468   0.624 188.267  0.00  0.00    +0.000 HD
ENDBRANCH  11  16
ENDBRANCH   7   8
ENDBRANCH   2   6
BRANCH   4  18
ATOM     18  C   UNL     1      27.596   3.378 190.321  0.00  0.00    +0.000 C 
ATOM     19  C   UNL     1      28.731   3.693 190.082  0.00  0.00    +0.000 C 
BRANCH  19  20
ATOM     20  C   UNL     1      30.076   4.065 189.796  0.00  0.00    +0.000 A 
ATOM     21  C   UNL     1      31.092   3.746 190.696  0.00  0.00    +0.000 A 
ATOM     22  C   UNL     1      32.416   4.105 190.430  0.00  0.00    +0.000 A 
ATOM     23  C   UNL     1      32.702   4.787 189.244  0.00  0.00    +0.000 A 
ATOM     24  C   UNL     1      31.690   5.109 188.341  0.00  0.00    +0.000 A 
ATOM     25  C   UNL     1      30.375   4.747 188.618  0.00  0.00    +0.000 A 
BRANCH  22  26
ATOM     26  O   UNL     1      33.475   3.830 191.262  0.00  0.00    +0.000 OA
ATOM     27  C   UNL     1      33.777   2.469 191.428  0.00  0.00    +0.000 C 
ENDBRANCH  22  26
BRANCH  23  28
ATOM     28  O   UNL     1      33.992   5.147 188.966  0.00  0.00    +0.000 OA
ATOM     29  H   UNL     1      34.337   5.671 189.712  0.00  0.00    +0.000 HD
ENDBRANCH  23  28
ENDBRANCH  19  20
ENDBRANCH   4  18
TORSDOF 8
ENDMDL
MODEL 5
REMARK VINA RESULT:      -6.7      6.078      9.594
REMARK  Name = Curcumin.pdbqt.pdb
REMARK  8 active torsions:
REMARK  status: ('A' for Active; 'I' for Inactive)
REMARK    1  A    between atoms: C_2  and  C_4
REMARK    2  A    between atoms: C_5  and  C_6
REMARK    3  A    between atoms: C_8  and  O_12
REMARK    4  A    between atoms: C_9  and  O_14
REMARK    5  A    between atoms: C_16  and  C_18
REMARK    6  A    between atoms: C_19  and  C_20
REMARK    7  A    between atoms: C_22  and  O_26
REMARK    8  A    between atoms: C_23  and  O_28
REMARK                            x       y       z     vdW  Elec       q    Type
REMARK                         _______ _______ _______ _____ _____    ______ ____
ROOT
ATOM      1  C   UNL     1      25.710   2.239 189.629  0.00  0.00    +0.000 C 
ATOM      2  C   UNL     1      25.049   1.127 190.226  0.00  0.00    +0.000 C 
ATOM      3  O   UNL     1      25.702   0.167 190.607  0.00  0.00    +0.000 OA
ATOM      4  C   UNL     1      26.373   3.348 189.028  0.00  0.00    +0.000 C 
ATOM      5  O   UNL     1      25.731   4.156 188.372  0.00  0.00    +0.000 OA
ENDROOT
BRANCH   2   6
ATOM      6  C   UNL     1      23.616   1.143 190.380  0.00  0.00    +0.000 C 
ATOM      7  C   UNL     1      22.421   1.157 190.505  0.00  0.00    +0.000 C 
BRANCH   7   8
ATOM      8  C   UNL     1      21.003   1.172 190.655  0.00  0.00    +0.000 A 
ATOM      9  C   UNL     1      20.193   1.509 189.573  0.00  0.00    +0.000 A 
ATOM     10  C   UNL     1      18.801   1.528 189.702  0.00  0.00    +0.000 A 
ATOM     11  C   UNL     1      18.236   1.202 190.939  0.00  0.00    +0.000 A 
ATOM     12  C   UNL     1      19.045   0.864 192.024  0.00  0.00    +0.000 A 
ATOM     13  C   UNL     1      20.429   0.849 191.882  0.00  0.00    +0.000 A 
BRANCH  10  14
ATOM     14  O   UNL     1      17.941   1.848 188.681  0.00  0.00    +0.000 OA
ATOM     15  C   UNL     1      18.381   2.836 187.792  0.00  0.00    +0.000 C 
ENDBRANCH  10  14
BRANCH  11  16
ATOM     16  O   UNL     1      16.887   1.193 191.161  0.00  0.00    +0.000 OA
ATOM     17  H   UNL     1      16.513   0.317 190.967  0.00  0.00    +0.000 HD
ENDBRANCH  11  16
ENDBRANCH   7   8
ENDBRANCH   2   6
BRANCH   4  18
ATOM     18  C   UNL     1      27.795   3.510 189.199  0.00  0.00    +0.000 C 
ATOM     19  C   UNL     1      28.980   3.649 189.338  0.00  0.00    +0.000 C 
BRANCH  19  20
ATOM     20  C   UNL     1      30.386   3.817 189.502  0.00  0.00    +0.000 A 
ATOM     21  C   UNL     1      30.891   5.033 189.959  0.00  0.00    +0.000 A 
ATOM     22  C   UNL     1      32.267   5.214 190.124  0.00  0.00    +0.000 A 
ATOM     23  C   UNL     1      33.125   4.152 189.824  0.00  0.00    +0.000 A 
ATOM     24  C   UNL     1      32.625   2.934 189.367  0.00  0.00    +0.000 A 
ATOM     25  C   UNL     1      31.253   2.767 189.206  0.00  0.00    +0.000 A 
BRANCH  22  26
ATOM     26  O   UNL     1      32.848   6.378 190.569  0.00  0.00    +0.000 OA
ATOM     27  C   UNL     1      32.777   6.599 191.953  0.00  0.00    +0.000 C 
ENDBRANCH  22  26
BRANCH  23  28
ATOM     28  O   UNL     1      34.475   4.309 189.979  0.00  0.00    +0.000 OA
ATOM     29  H   UNL     1      34.634   4.956 190.691  0.00  0.00    +0.000 HD
ENDBRANCH  23  28
ENDBRANCH  19  20
ENDBRANCH   4  18
TORSDOF 8
ENDMDL
MODEL 6
REMARK VINA RESULT:      -6.3     28.811     33.424
REMARK  Name = Curcumin.pdbqt.pdb
REMARK  8 active torsions:
REMARK  status: ('A' for Active; 'I' for Inactive)
REMARK    1  A    between atoms: C_2  and  C_4
REMARK    2  A    between atoms: C_5  and  C_6
REMARK    3  A    between atoms: C_8  and  O_12
REMARK    4  A    between atoms: C_9  and  O_14
REMARK    5  A    between atoms: C_16  and  C_18
REMARK    6  A    between atoms: C_19  and  C_20
REMARK    7  A    between atoms: C_22  and  O_26
REMARK    8  A    between atoms: C_23  and  O_28
REMARK                            x       y       z     vdW  Elec       q    Type
REMARK                         _______ _______ _______ _____ _____    ______ ____
ROOT
ATOM      1  C   UNL     1      34.411  -8.032 164.385  0.00  0.00    +0.000 C 
ATOM      2  C   UNL     1      33.430  -9.061 164.480  0.00  0.00    +0.000 C 
ATOM      3  O   UNL     1      33.780 -10.232 164.480  0.00  0.00    +0.000 OA
ATOM      4  C   UNL     1      35.392  -7.003 164.287  0.00  0.00    +0.000 C 
ATOM      5  O   UNL     1      35.055  -5.870 163.975  0.00  0.00    +0.000 OA
ENDROOT
BRANCH   2   6
ATOM      6  C   UNL     1      32.035  -8.715 164.578  0.00  0.00    +0.000 C 
ATOM      7  C   UNL     1      30.871  -8.428 164.661  0.00  0.00    +0.000 C 
BRANCH   7   8
ATOM      8  C   UNL     1      29.490  -8.086 164.761  0.00  0.00    +0.000 A 
ATOM      9  C   UNL     1      28.639  -8.852 165.555  0.00  0.00    +0.000 A 
ATOM     10  C   UNL     1      27.283  -8.531 165.665  0.00  0.00    +0.000 A 
ATOM     11  C   UNL     1      26.796  -7.425 164.961  0.00  0.00    +0.000 A 
ATOM     12  C   UNL     1      27.645  -6.656 164.166  0.00  0.00    +0.000 A 
ATOM     13  C   UNL     1      28.993  -6.987 164.066  0.00  0.00    +0.000 A 
BRANCH  10  14
ATOM     14  O   UNL     1      26.387  -9.237 166.427  0.00  0.00    +0.000 OA
ATOM     15  C   UNL     1      26.477  -9.054 167.812  0.00  0.00    +0.000 C 
ENDBRANCH  10  14
BRANCH  11  16
ATOM     16  O   UNL     1      25.487  -7.033 165.006  0.00  0.00    +0.000 OA
ATOM     17  H   UNL     1      25.420  -6.072 165.138  0.00  0.00    +0.000 HD
ENDBRANCH  11  16
ENDBRANCH   7   8
ENDBRANCH   2   6
BRANCH   4  18
ATOM     18  C   UNL     1      36.775  -7.306 164.555  0.00  0.00    +0.000 C 
ATOM     19  C   UNL     1      37.930  -7.554 164.779  0.00  0.00    +0.000 C 
BRANCH  19  20
ATOM     20  C   UNL     1      39.300  -7.845 165.042  0.00  0.00    +0.000 A 
ATOM     21  C   UNL     1      40.057  -6.973 165.823  0.00  0.00    +0.000 A 
ATOM     22  C   UNL     1      41.401  -7.243 166.091  0.00  0.00    +0.000 A 
ATOM     23  C   UNL     1      41.971  -8.405 165.562  0.00  0.00    +0.000 A 
ATOM     24  C   UNL     1      41.218  -9.280 164.780  0.00  0.00    +0.000 A 
ATOM     25  C   UNL     1      39.880  -8.999 164.521  0.00  0.00    +0.000 A 
BRANCH  22  26
ATOM     26  O   UNL     1      42.217  -6.438 166.849  0.00  0.00    +0.000 OA
ATOM     27  C   UNL     1      41.871  -6.332 168.205  0.00  0.00    +0.000 C 
ENDBRANCH  22  26
BRANCH  23  28
ATOM     28  O   UNL     1      43.285  -8.687 165.812  0.00  0.00    +0.000 OA
ATOM     29  H   UNL     1      43.746  -8.807 164.962  0.00  0.00    +0.000 HD
ENDBRANCH  23  28
ENDBRANCH  19  20
ENDBRANCH   4  18
TORSDOF 8
ENDMDL
MODEL 7
REMARK VINA RESULT:      -6.3     30.545     31.843
REMARK  Name = Curcumin.pdbqt.pdb
REMARK  8 active torsions:
REMARK  status: ('A' for Active; 'I' for Inactive)
REMARK    1  A    between atoms: C_2  and  C_4
REMARK    2  A    between atoms: C_5  and  C_6
REMARK    3  A    between atoms: C_8  and  O_12
REMARK    4  A    between atoms: C_9  and  O_14
REMARK    5  A    between atoms: C_16  and  C_18
REMARK    6  A    between atoms: C_19  and  C_20
REMARK    7  A    between atoms: C_22  and  O_26
REMARK    8  A    between atoms: C_23  and  O_28
REMARK                            x       y       z     vdW  Elec       q    Type
REMARK                         _______ _______ _______ _____ _____    ______ ____
ROOT
ATOM      1  C   UNL     1      44.126 -17.733 189.253  0.00  0.00    +0.000 C 
ATOM      2  C   UNL     1      43.282 -17.739 190.401  0.00  0.00    +0.000 C 
ATOM      3  O   UNL     1      43.709 -17.324 191.468  0.00  0.00    +0.000 OA
ATOM      4  C   UNL     1      44.972 -17.731 188.106  0.00  0.00    +0.000 C 
ATOM      5  O   UNL     1      44.679 -18.414 187.135  0.00  0.00    +0.000 OA
ENDROOT
BRANCH   2   6
ATOM      6  C   UNL     1      41.931 -18.230 190.296  0.00  0.00    +0.000 C 
ATOM      7  C   UNL     1      40.806 -18.641 190.210  0.00  0.00    +0.000 C 
BRANCH   7   8
ATOM      8  C   UNL     1      39.469 -19.128 190.108  0.00  0.00    +0.000 A 
ATOM      9  C   UNL     1      39.150 -20.390 190.604  0.00  0.00    +0.000 A 
ATOM     10  C   UNL     1      37.844 -20.883 190.514  0.00  0.00    +0.000 A 
ATOM     11  C   UNL     1      36.865 -20.085 189.915  0.00  0.00    +0.000 A 
ATOM     12  C   UNL     1      37.182 -18.821 189.418  0.00  0.00    +0.000 A 
ATOM     13  C   UNL     1      38.486 -18.342 189.515  0.00  0.00    +0.000 A 
BRANCH  10  14
ATOM     14  O   UNL     1      37.456 -22.114 190.980  0.00  0.00    +0.000 OA
ATOM     15  C   UNL     1      37.990 -23.222 190.312  0.00  0.00    +0.000 C 
ENDBRANCH  10  14
BRANCH  11  16
ATOM     16  O   UNL     1      35.563 -20.480 189.781  0.00  0.00    +0.000 OA
ATOM     17  H   UNL     1      35.496 -21.246 189.186  0.00  0.00    +0.000 HD
ENDBRANCH  11  16
ENDBRANCH   7   8
ENDBRANCH   2   6
BRANCH   4  18
ATOM     18  C   UNL     1      46.165 -16.924 188.099  0.00  0.00    +0.000 C 
ATOM     19  C   UNL     1      47.159 -16.248 188.093  0.00  0.00    +0.000 C 
BRANCH  19  20
ATOM     20  C   UNL     1      48.334 -15.442 188.085  0.00  0.00    +0.000 A 
ATOM     21  C   UNL     1      48.707 -14.745 189.234  0.00  0.00    +0.000 A 
ATOM     22  C   UNL     1      49.857 -13.951 189.243  0.00  0.00    +0.000 A 
ATOM     23  C   UNL     1      50.625 -13.870 188.078  0.00  0.00    +0.000 A 
ATOM     24  C   UNL     1      50.257 -14.565 186.926  0.00  0.00    +0.000 A 
ATOM     25  C   UNL     1      49.110 -15.352 186.931  0.00  0.00    +0.000 A 
BRANCH  22  26
ATOM     26  O   UNL     1      50.294 -13.233 190.329  0.00  0.00    +0.000 OA
ATOM     27  C   UNL     1      49.468 -13.289 191.463  0.00  0.00    +0.000 C 
ENDBRANCH  22  26
BRANCH  23  28
ATOM     28  O   UNL     1      51.754 -13.098 188.066  0.00  0.00    +0.000 OA
ATOM     29  H   UNL     1      52.219 -13.238 187.221  0.00  0.00    +0.000 HD
ENDBRANCH  23  28
ENDBRANCH  19  20
ENDBRANCH   4  18
TORSDOF 8
ENDMDL
MODEL 8
REMARK VINA RESULT:      -6.3     19.441     21.906
REMARK  Name = Curcumin.pdbqt.pdb
REMARK  8 active torsions:
REMARK  status: ('A' for Active; 'I' for Inactive)
REMARK    1  A    between atoms: C_2  and  C_4
REMARK    2  A    between atoms: C_5  and  C_6
REMARK    3  A    between atoms: C_8  and  O_12
REMARK    4  A    between atoms: C_9  and  O_14
REMARK    5  A    between atoms: C_16  and  C_18
REMARK    6  A    between atoms: C_19  and  C_20
REMARK    7  A    between atoms: C_22  and  O_26
REMARK    8  A    between atoms: C_23  and  O_28
REMARK                            x       y       z     vdW  Elec       q    Type
REMARK                         _______ _______ _______ _____ _____    ______ ____
ROOT
ATOM      1  C   UNL     1      12.681 -12.664 180.175  0.00  0.00    +0.000 C 
ATOM      2  C   UNL     1      12.741 -11.339 179.655  0.00  0.00    +0.000 C 
ATOM      3  O   UNL     1      13.487 -11.089 178.720  0.00  0.00    +0.000 OA
ATOM      4  C   UNL     1      12.624 -13.989 180.697  0.00  0.00    +0.000 C 
ATOM      5  O   UNL     1      12.138 -14.187 181.802  0.00  0.00    +0.000 OA
ENDROOT
BRANCH   2   6
ATOM      6  C   UNL     1      11.922 -10.304 180.233  0.00  0.00    +0.000 C 
ATOM      7  C   UNL     1      11.240  -9.440 180.714  0.00  0.00    +0.000 C 
BRANCH   7   8
ATOM      8  C   UNL     1      10.429  -8.414 181.284  0.00  0.00    +0.000 A 
ATOM      9  C   UNL     1      10.844  -7.085 181.223  0.00  0.00    +0.000 A 
ATOM     10  C   UNL     1      10.061  -6.067 181.775  0.00  0.00    +0.000 A 
ATOM     11  C   UNL     1       8.853  -6.408 182.392  0.00  0.00    +0.000 A 
ATOM     12  C   UNL     1       8.436  -7.737 182.454  0.00  0.00    +0.000 A 
ATOM     13  C   UNL     1       9.225  -8.741 181.900  0.00  0.00    +0.000 A 
BRANCH  10  14
ATOM     14  O   UNL     1      10.405  -4.738 181.752  0.00  0.00    +0.000 OA
ATOM     15  C   UNL     1      10.147  -4.056 180.558  0.00  0.00    +0.000 C 
ENDBRANCH  10  14
BRANCH  11  16
ATOM     16  O   UNL     1       8.022  -5.483 182.959  0.00  0.00    +0.000 OA
ATOM     17  H   UNL     1       8.510  -4.920 183.584  0.00  0.00    +0.000 HD
ENDBRANCH  11  16
ENDBRANCH   7   8
ENDBRANCH   2   6
BRANCH   4  18
ATOM     18  C   UNL     1      13.139 -15.087 179.919  0.00  0.00    +0.000 C 
ATOM     19  C   UNL     1      13.573 -16.003 179.272  0.00  0.00    +0.000 C 
BRANCH  19  20
ATOM     20  C   UNL     1      14.090 -17.088 178.507  0.00  0.00    +0.000 A 
ATOM     21  C   UNL     1      15.161 -17.835 178.997  0.00  0.00    +0.000 A 
ATOM     22  C   UNL     1      15.680 -18.902 178.260  0.00  0.00    +0.000 A 
ATOM     23  C   UNL     1      15.104 -19.206 177.023  0.00  0.00    +0.000 A 
ATOM     24  C   UNL     1      14.034 -18.463 176.528  0.00  0.00    +0.000 A 
ATOM     25  C   UNL     1      13.527 -17.402 177.272  0.00  0.00    +0.000 A 
BRANCH  22  26
ATOM     26  O   UNL     1      16.731 -19.688 178.668  0.00  0.00    +0.000 OA
ATOM     27  C   UNL     1      16.466 -20.535 179.755  0.00  0.00    +0.000 C 
ENDBRANCH  22  26
BRANCH  23  28
ATOM     28  O   UNL     1      15.598 -20.247 176.286  0.00  0.00    +0.000 OA
ATOM     29  H   UNL     1      16.061 -19.886 175.507  0.00  0.00    +0.000 HD
ENDBRANCH  23  28
ENDBRANCH  19  20
ENDBRANCH   4  18
TORSDOF 8
ENDMDL
MODEL 9
REMARK VINA RESULT:      -6.2     37.990     40.597
REMARK  Name = Curcumin.pdbqt.pdb
REMARK  8 active torsions:
REMARK  status: ('A' for Active; 'I' for Inactive)
REMARK    1  A    between atoms: C_2  and  C_4
REMARK    2  A    between atoms: C_5  and  C_6
REMARK    3  A    between atoms: C_8  and  O_12
REMARK    4  A    between atoms: C_9  and  O_14
REMARK    5  A    between atoms: C_16  and  C_18
REMARK    6  A    between atoms: C_19  and  C_20
REMARK    7  A    between atoms: C_22  and  O_26
REMARK    8  A    between atoms: C_23  and  O_28
REMARK                            x       y       z     vdW  Elec       q    Type
REMARK                         _______ _______ _______ _____ _____    ______ ____
ROOT
ATOM      1  C   UNL     1      45.889 -20.740 172.675  0.00  0.00    +0.000 C 
ATOM      2  C   UNL     1      44.726 -21.474 172.299  0.00  0.00    +0.000 C 
ATOM      3  O   UNL     1      44.785 -22.266 171.371  0.00  0.00    +0.000 OA
ATOM      4  C   UNL     1      47.051 -20.005 173.048  0.00  0.00    +0.000 C 
ATOM      5  O   UNL     1      46.940 -19.006 173.745  0.00  0.00    +0.000 OA
ENDROOT
BRANCH   2   6
ATOM      6  C   UNL     1      43.492 -21.279 173.017  0.00  0.00    +0.000 C 
ATOM      7  C   UNL     1      42.463 -21.116 173.614  0.00  0.00    +0.000 C 
BRANCH   7   8
ATOM      8  C   UNL     1      41.240 -20.925 174.323  0.00  0.00    +0.000 A 
ATOM      9  C   UNL     1      40.827 -21.867 175.263  0.00  0.00    +0.000 A 
ATOM     10  C   UNL     1      39.631 -21.696 175.968  0.00  0.00    +0.000 A 
ATOM     11  C   UNL     1      38.857 -20.560 175.711  0.00  0.00    +0.000 A 
ATOM     12  C   UNL     1      39.268 -19.615 174.771  0.00  0.00    +0.000 A 
ATOM     13  C   UNL     1      40.461 -19.798 174.077  0.00  0.00    +0.000 A 
BRANCH  10  14
ATOM     14  O   UNL     1      39.162 -22.579 176.907  0.00  0.00    +0.000 OA
ATOM     15  C   UNL     1      38.642 -23.782 176.416  0.00  0.00    +0.000 C 
ENDBRANCH  10  14
BRANCH  11  16
ATOM     16  O   UNL     1      37.675 -20.306 176.349  0.00  0.00    +0.000 OA
ATOM     17  H   UNL     1      37.686 -20.672 177.250  0.00  0.00    +0.000 HD
ENDBRANCH  11  16
ENDBRANCH   7   8
ENDBRANCH   2   6
BRANCH   4  18
ATOM     18  C   UNL     1      48.349 -20.443 172.601  0.00  0.00    +0.000 C 
ATOM     19  C   UNL     1      49.432 -20.810 172.232  0.00  0.00    +0.000 C 
BRANCH  19  20
ATOM     20  C   UNL     1      50.717 -21.248 171.798  0.00  0.00    +0.000 A 
ATOM     21  C   UNL     1      51.826 -21.072 172.625  0.00  0.00    +0.000 A 
ATOM     22  C   UNL     1      53.093 -21.496 172.215  0.00  0.00    +0.000 A 
ATOM     23  C   UNL     1      53.226 -22.097 170.960  0.00  0.00    +0.000 A 
ATOM     24  C   UNL     1      52.121 -22.275 170.129  0.00  0.00    +0.000 A 
ATOM     25  C   UNL     1      50.865 -21.849 170.550  0.00  0.00    +0.000 A 
BRANCH  22  26
ATOM     26  O   UNL     1      54.236 -21.361 172.966  0.00  0.00    +0.000 OA
ATOM     27  C   UNL     1      54.230 -22.031 174.200  0.00  0.00    +0.000 C 
ENDBRANCH  22  26
BRANCH  23  28
ATOM     28  O   UNL     1      54.458 -22.518 170.540  0.00  0.00    +0.000 OA
ATOM     29  H   UNL     1      54.919 -21.767 170.125  0.00  0.00    +0.000 HD
ENDBRANCH  23  28
ENDBRANCH  19  20
ENDBRANCH   4  18
TORSDOF 8
ENDMDL
