REMARK  Name = CyclosporineA.pdb
REMARK  40 active torsions:
REMARK  status: ('A' for Active; 'I' for Inactive)
REMARK    1  A    between atoms: C1_1  and  C78_78
REMARK    2  A    between atoms: N7_7  and  C8_8
REMARK    3  A    between atoms: C9_9  and  C15_15
REMARK    4  A    between atoms: N11_11  and  C20_20
REMARK    5  A    between atoms: C12_12  and  C21_21
REMARK    6  A    between atoms: N14_14  and  C23_23
REMARK    7  A    between atoms: C15_15  and  C16_16
REMARK    8  A    between atoms: C16_16  and  C17_17
REMARK    9  A    between atoms: C16_16  and  C18_18
REMARK   10  A    between atoms: C21_21  and  C82_82
REMARK   11  A    between atoms: C24_24  and  C25_25
REMARK   12  A    between atoms: C25_25  and  C30_30
REMARK   13  A    between atoms: C25_25  and  C31_31
REMARK   14  A    between atoms: C26_26  and  O27_27
REMARK   15  A    between atoms: N28_28  and  C29_29
REMARK   16  A    between atoms: C32_32  and  C34_34
REMARK   17  A    between atoms: C34_34  and  C35_35
REMARK   18  A    between atoms: C34_34  and  O40_40
REMARK   19  A    between atoms: C35_35  and  C36_36
REMARK   20  A    between atoms: C35_35  and  C41_41
REMARK   21  A    between atoms: C36_36  and  C37_37
REMARK   22  A    between atoms: C38_38  and  C39_39
REMARK   23  A    between atoms: C44_44  and  C45_45
REMARK   24  A    between atoms: C45_45  and  C46_46
REMARK   25  A    between atoms: N49_49  and  C77_77
REMARK   26  A    between atoms: C53_53  and  C57_57
REMARK   27  A    between atoms: C57_57  and  C58_58
REMARK   28  A    between atoms: C58_58  and  C59_59
REMARK   29  A    between atoms: C58_58  and  C76_76
REMARK   30  A    between atoms: C61_61  and  C62_62
REMARK   31  A    between atoms: C62_62  and  C63_63
REMARK   32  A    between atoms: C62_62  and  C64_64
REMARK   33  A    between atoms: N66_66  and  C68_68
REMARK   34  A    between atoms: C67_67  and  C75_75
REMARK   35  A    between atoms: C73_73  and  C74_74
REMARK   36  A    between atoms: C75_75  and  C79_79
REMARK   37  A    between atoms: C79_79  and  C80_80
REMARK   38  A    between atoms: C79_79  and  C81_81
REMARK   39  A    between atoms: C82_82  and  C83_83
REMARK   40  A    between atoms: C82_82  and  C84_84
REMARK                            x       y       z     vdW  Elec       q    Type
REMARK                         _______ _______ _______ _____ _____    ______ ____
ROOT
ATOM      1  C1  UNK     0      38.039 -30.018  -1.299  0.00  0.00    +0.000 C 
ATOM      2  C2  UNK     0      36.771 -30.896  -1.109  0.00  0.00    +0.000 C 
ATOM      3  N3  UNK     0      37.725 -28.725  -0.712  0.00  0.00    +0.000 N 
ATOM      4  C4  UNK     0      38.676 -27.866  -0.216  0.00  0.00    +0.000 C 
ATOM      5  O5  UNK     0      39.868 -28.158  -0.144  0.00  0.00    +0.000 OA
ATOM      6  C6  UNK     0      35.962 -31.098  -2.169  0.00  0.00    +0.000 C 
ATOM      7  N7  UNK     0      36.501 -31.424   0.193  0.00  0.00    +0.000 N 
ATOM      8  C8  UNK     0      37.458 -31.239   1.300  0.00  0.00    +0.000 C 
ATOM      9  C9  UNK     0      35.233 -32.172   0.525  0.00  0.00    +0.000 C 
ATOM     10  C10 UNK     0      34.066 -31.181   0.874  0.00  0.00    +0.000 C 
ATOM     11  N11 UNK     0      32.732 -31.530   0.497  0.00  0.00    +0.000 N 
ATOM     12  C12 UNK     0      31.649 -30.510   0.305  0.00  0.00    +0.000 C 
ATOM     13  C13 UNK     0      30.584 -30.593   1.448  0.00  0.00    +0.000 C 
ATOM     14  N14 UNK     0      29.269 -30.143   1.153  0.00  0.00    +0.000 N 
ATOM     15  C19 UNK     0      34.343 -30.019   1.502  0.00  0.00    +0.000 C 
ATOM     16  C20 UNK     0      32.347 -32.910   0.169  0.00  0.00    +0.000 C 
ATOM     17  C22 UNK     0      30.870 -31.127   2.652  0.00  0.00    +0.000 C 
ATOM     18  C23 UNK     0      28.299 -31.271   1.014  0.00  0.00    +0.000 C 
ATOM     19  C24 UNK     0      28.673 -28.953   1.917  0.00  0.00    +0.000 C 
ATOM     20  C26 UNK     0      27.278 -28.538   1.244  0.00  0.00    +0.000 C 
ATOM     21  N28 UNK     0      26.707 -27.297   1.772  0.00  0.00    +0.000 NA
ATOM     22  C29 UNK     0      25.954 -27.550   3.005  0.00  0.00    +0.000 C 
ATOM     23  C32 UNK     0      25.933 -26.470   0.789  0.00  0.00    +0.000 C 
ATOM     24  C33 UNK     0      25.877 -25.041   1.395  0.00  0.00    +0.000 C 
ATOM     25  O42 UNK     0      24.847 -24.480   1.752  0.00  0.00    +0.000 OA
ATOM     26  N43 UNK     0      27.141 -24.495   1.524  0.00  0.00    +0.000 N 
ATOM     27  C44 UNK     0      27.388 -23.171   2.057  0.00  0.00    +0.000 C 
ATOM     28  C47 UNK     0      27.074 -22.120   0.964  0.00  0.00    +0.000 C 
ATOM     29  C48 UNK     0      26.122 -21.218   1.282  0.00  0.00    +0.000 C 
ATOM     30  N49 UNK     0      27.727 -22.103  -0.297  0.00  0.00    +0.000 N 
ATOM     31  C50 UNK     0      28.717 -23.106  -0.780  0.00  0.00    +0.000 C 
ATOM     32  C51 UNK     0      30.078 -22.456  -1.091  0.00  0.00    +0.000 C 
ATOM     33  N52 UNK     0      30.329 -21.317  -0.356  0.00  0.00    +0.000 N 
ATOM     34  C53 UNK     0      31.651 -20.710  -0.303  0.00  0.00    +0.000 C 
ATOM     35  C54 UNK     0      32.535 -21.553   0.653  0.00  0.00    +0.000 C 
ATOM     36  N55 UNK     0      33.892 -21.370   0.465  0.00  0.00    +0.000 N 
ATOM     37  O56 UNK     0      30.885 -22.933  -1.885  0.00  0.00    +0.000 OA
ATOM     38  O60 UNK     0      32.063 -22.272   1.529  0.00  0.00    +0.000 OA
ATOM     39  C61 UNK     0      34.929 -22.156   1.150  0.00  0.00    +0.000 C 
ATOM     40  C65 UNK     0      35.033 -23.530   0.424  0.00  0.00    +0.000 C 
ATOM     41  N66 UNK     0      35.423 -23.527  -0.930  0.00  0.00    +0.000 N 
ATOM     42  C67 UNK     0      35.424 -24.851  -1.620  0.00  0.00    +0.000 C 
ATOM     43  C68 UNK     0      36.321 -22.504  -1.467  0.00  0.00    +0.000 C 
ATOM     44  O69 UNK     0      34.806 -24.596   1.006  0.00  0.00    +0.000 OA
ATOM     45  C70 UNK     0      36.785 -25.523  -1.318  0.00  0.00    +0.000 C 
ATOM     46  N71 UNK     0      36.817 -26.193  -0.108  0.00  0.00    +0.000 N 
ATOM     47  O72 UNK     0      37.777 -25.382  -2.028  0.00  0.00    +0.000 OA
ATOM     48  C73 UNK     0      38.098 -26.609   0.468  0.00  0.00    +0.000 C 
ATOM     49  C74 UNK     0      37.924 -26.911   1.953  0.00  0.00    +0.000 C 
ATOM     50  C77 UNK     0      27.257 -21.221  -1.384  0.00  0.00    +0.000 C 
ATOM     51  C78 UNK     0      38.558 -29.835  -2.731  0.00  0.00    +0.000 C 
ATOM     52  H2  UNK     0      36.759 -28.421  -0.714  0.00  0.00    +0.000 HD
ATOM     53  H58 UNK     0      27.910 -25.149   1.460  0.00  0.00    +0.000 HD
ATOM     54  H69 UNK     0      29.681 -21.169   0.414  0.00  0.00    +0.000 HD
ATOM     55  H71 UNK     0      34.154 -20.981  -0.430  0.00  0.00    +0.000 HD
ATOM     56  H90 UNK     0      36.066 -25.942   0.539  0.00  0.00    +0.000 HD
ENDROOT
BRANCH  39  57
ATOM     57  C62 UNK     0      34.779 -22.265   2.691  0.00  0.00    +0.000 C 
ATOM     58  C63 UNK     0      36.049 -22.859   3.322  0.00  0.00    +0.000 C 
ATOM     59  C64 UNK     0      34.521 -20.897   3.338  0.00  0.00    +0.000 C 
ENDBRANCH  39  57
BRANCH  19  60
ATOM     60  C25 UNK     0      29.615 -27.696   2.025  0.00  0.00    +0.000 C 
ATOM     61  C30 UNK     0      30.799 -27.860   2.982  0.00  0.00    +0.000 C 
ATOM     62  C31 UNK     0      30.078 -27.096   0.695  0.00  0.00    +0.000 C 
ENDBRANCH  19  60
BRANCH  20  63
ATOM     63  O27 UNK     0      27.445 -28.475  -0.178  0.00  0.00    +0.000 OA
ATOM     64  H34 UNK     0      28.256 -28.999  -0.347  0.00  0.00    +0.000 HD
ENDBRANCH  20  63
BRANCH  27  65
ATOM     65  C45 UNK     0      28.797 -23.065   2.666  0.00  0.00    +0.000 C 
ATOM     66  C46 UNK     0      29.056 -21.734   3.359  0.00  0.00    +0.000 C 
ENDBRANCH  27  65
BRANCH  23  67
ATOM     67  C34 UNK     0      24.525 -26.981   0.352  0.00  0.00    +0.000 C 
BRANCH  67  68
ATOM     68  C35 UNK     0      24.027 -26.449  -1.028  0.00  0.00    +0.000 C 
ATOM     69  C41 UNK     0      24.091 -24.927  -1.184  0.00  0.00    +0.000 C 
BRANCH  68  70
ATOM     70  C36 UNK     0      22.584 -26.961  -1.286  0.00  0.00    +0.000 C 
BRANCH  70  71
ATOM     71  C37 UNK     0      22.084 -26.681  -2.679  0.00  0.00    +0.000 C 
ATOM     72  C38 UNK     0      21.002 -25.936  -2.950  0.00  0.00    +0.000 C 
ATOM     73  C39 UNK     0      20.498 -25.664  -4.329  0.00  0.00    +0.000 C 
ENDBRANCH  70  71
ENDBRANCH  68  70
ENDBRANCH  67  68
BRANCH  67  74
ATOM     74  O40 UNK     0      24.546 -28.422   0.235  0.00  0.00    +0.000 OA
ATOM     75  H54 UNK     0      25.315 -28.626  -0.335  0.00  0.00    +0.000 HD
ENDBRANCH  67  74
ENDBRANCH  23  67
BRANCH  34  76
ATOM     76  C57 UNK     0      31.516 -19.258   0.184  0.00  0.00    +0.000 C 
BRANCH  76  77
ATOM     77  C58 UNK     0      32.761 -18.362   0.031  0.00  0.00    +0.000 C 
ATOM     78  C59 UNK     0      33.201 -18.212  -1.426  0.00  0.00    +0.000 C 
ATOM     79  C76 UNK     0      32.472 -16.978   0.624  0.00  0.00    +0.000 C 
ENDBRANCH  76  77
ENDBRANCH  34  76
BRANCH  12  80
ATOM     80  C21 UNK     0      31.022 -30.605  -1.117  0.00  0.00    +0.000 C 
BRANCH  80  81
ATOM     81  C82 UNK     0      32.008 -30.450  -2.292  0.00  0.00    +0.000 C 
ATOM     82  C83 UNK     0      32.707 -29.092  -2.293  0.00  0.00    +0.000 C 
ATOM     83  C84 UNK     0      31.264 -30.644  -3.617  0.00  0.00    +0.000 C 
ENDBRANCH  80  81
ENDBRANCH  12  80
BRANCH  42  84
ATOM     84  C75 UNK     0      35.147 -24.717  -3.132  0.00  0.00    +0.000 C 
BRANCH  84  85
ATOM     85  C79 UNK     0      34.588 -25.992  -3.797  0.00  0.00    +0.000 C 
ATOM     86  C80 UNK     0      35.583 -27.152  -3.799  0.00  0.00    +0.000 C 
ATOM     87  C81 UNK     0      34.169 -25.679  -5.237  0.00  0.00    +0.000 C 
ENDBRANCH  84  85
ENDBRANCH  42  84
BRANCH   9  88
ATOM     88  C15 UNK     0      35.402 -33.291   1.594  0.00  0.00    +0.000 C 
BRANCH  88  89
ATOM     89  C16 UNK     0      35.745 -34.677   0.997  0.00  0.00    +0.000 C 
ATOM     90  C17 UNK     0      37.098 -34.707   0.290  0.00  0.00    +0.000 C 
ATOM     91  C18 UNK     0      35.719 -35.737   2.102  0.00  0.00    +0.000 C 
ENDBRANCH  88  89
ENDBRANCH   9  88
TORSDOF 17
