MODEL 1
REMARK VINA RESULT:     -11.7      0.000      0.000
REMARK  Name = Cyclosporin_A.pdbqt.pdb
REMARK  4 active torsions:
REMARK  status: ('A' for Active; 'I' for Inactive)
REMARK    1  A    between atoms: N_13  and  C_36
REMARK    2  A    between atoms: C_36  and  O_70
REMARK    3  A    between atoms: C_72  and  C_73
REMARK    4  A    between atoms: C_75  and  C_76
REMARK                            x       y       z     vdW  Elec       q    Type
REMARK                         _______ _______ _______ _____ _____    ______ ____
ROOT
ATOM      1  O   UNL     1      26.335  -2.347 200.266  0.00  0.00    +0.000 OA
ATOM      2  O   UNL     1      21.529  -1.665 201.926  0.00  0.00    +0.000 OA
ATOM      3  O   UNL     1      20.442   2.562 199.959  0.00  0.00    +0.000 OA
ATOM      4  O   UNL     1      29.213   1.575 199.682  0.00  0.00    +0.000 OA
ATOM      5  O   UNL     1      19.764  -2.127 198.149  0.00  0.00    +0.000 OA
ATOM      6  O   UNL     1      23.365   1.858 188.238  0.00  0.00    +0.000 OA
ATOM      7  O   UNL     1      29.370  -2.429 195.805  0.00  0.00    +0.000 OA
ATOM      8  O   UNL     1      27.159   3.592 190.858  0.00  0.00    +0.000 OA
ATOM      9  O   UNL     1      19.275   0.676 190.551  0.00  0.00    +0.000 OA
ATOM     10  O   UNL     1      29.503   0.862 192.839  0.00  0.00    +0.000 OA
ATOM     11  O   UNL     1      19.976  -2.054 193.816  0.00  0.00    +0.000 OA
ATOM     12  N   UNL     1      23.198  -1.149 201.089  0.00  0.00    +0.000 NA
ATOM     13  N   UNL     1      25.837  -0.021 199.909  0.00  0.00    +0.000 NA
ATOM     14  N   UNL     1      20.606   0.759 200.772  0.00  0.00    +0.000 NA
ATOM     15  N   UNL     1      19.426   0.421 197.838  0.00  0.00    +0.000 NA
ATOM     16  N   UNL     1      28.050   0.502 197.826  0.00  0.00    +0.000 NA
ATOM     17  N   UNL     1      22.361   2.906 190.092  0.00  0.00    +0.000 N 
ATOM     18  N   UNL     1      25.188   2.400 191.269  0.00  0.00    +0.000 N 
ATOM     19  N   UNL     1      27.635   1.295 192.377  0.00  0.00    +0.000 NA
ATOM     20  N   UNL     1      27.607  -1.097 195.265  0.00  0.00    +0.000 NA
ATOM     21  N   UNL     1      20.857  -0.285 195.319  0.00  0.00    +0.000 NA
ATOM     22  N   UNL     1      21.243   0.684 191.951  0.00  0.00    +0.000 NA
ATOM     23  C   UNL     1      24.187  -1.900 200.526  0.00  0.00    +0.000 C 
ATOM     24  C   UNL     1      21.889   0.427 200.607  0.00  0.00    +0.000 C 
ATOM     25  C   UNL     1      27.110   0.459 200.147  0.00  0.00    +0.000 C 
ATOM     26  C   UNL     1      24.373  -3.243 200.800  0.00  0.00    +0.000 C 
ATOM     27  C   UNL     1      22.470   1.669 201.166  0.00  0.00    +0.000 C 
ATOM     28  C   UNL     1      25.394  -1.313 200.208  0.00  0.00    +0.000 C 
ATOM     29  C   UNL     1      21.847  -0.878 200.962  0.00  0.00    +0.000 C 
ATOM     30  C   UNL     1      19.334   0.516 199.136  0.00  0.00    +0.000 C 
ATOM     31  C   UNL     1      20.336   1.321 199.590  0.00  0.00    +0.000 C 
ATOM     32  C   UNL     1      27.987   1.082 199.111  0.00  0.00    +0.000 C 
ATOM     33  C   UNL     1      23.398  -3.427 201.829  0.00  0.00    +0.000 C 
ATOM     34  C   UNL     1      25.713  -3.450 200.817  0.00  0.00    +0.000 C 
ATOM     35  C   UNL     1      22.713  -2.222 201.812  0.00  0.00    +0.000 C 
ATOM     36  C   UNL     1      20.811   2.087 201.237  0.00  0.00    +0.000 C 
ATOM     37  C   UNL     1      28.949  -0.522 197.434  0.00  0.00    +0.000 C 
ATOM     38  C   UNL     1      24.760   2.128 189.995  0.00  0.00    +0.000 A 
ATOM     39  C   UNL     1      20.017  -0.770 197.820  0.00  0.00    +0.000 C 
ATOM     40  C   UNL     1      21.132   2.199 190.120  0.00  0.00    +0.000 C 
ATOM     41  C   UNL     1      27.312   2.594 192.592  0.00  0.00    +0.000 C 
ATOM     42  C   UNL     1      17.943   0.457 197.756  0.00  0.00    +0.000 C 
ATOM     43  C   UNL     1      25.477   1.560 188.898  0.00  0.00    +0.000 A 
ATOM     44  C   UNL     1      20.234   3.148 188.864  0.00  0.00    +0.000 C 
ATOM     45  C   UNL     1      20.548  -0.877 196.431  0.00  0.00    +0.000 C 
ATOM     46  C   UNL     1      28.272   3.362 191.725  0.00  0.00    +0.000 C 
ATOM     47  C   UNL     1      30.018  -0.726 198.357  0.00  0.00    +0.000 C 
ATOM     48  C   UNL     1      23.463   2.319 189.529  0.00  0.00    +0.000 A 
ATOM     49  C   UNL     1      28.703  -1.261 196.323  0.00  0.00    +0.000 C 
ATOM     50  C   UNL     1      26.398   2.811 191.574  0.00  0.00    +0.000 C 
ATOM     51  C   UNL     1      20.580   1.164 190.838  0.00  0.00    +0.000 C 
ATOM     52  C   UNL     1      27.895   0.062 194.415  0.00  0.00    +0.000 C 
ATOM     53  C   UNL     1      26.901   1.074 188.844  0.00  0.00    +0.000 C 
ATOM     54  C   UNL     1      24.593   1.409 187.860  0.00  0.00    +0.000 A 
ATOM     55  C   UNL     1      28.329   1.093 193.542  0.00  0.00    +0.000 C 
ATOM     56  C   UNL     1      20.830  -0.277 192.713  0.00  0.00    +0.000 C 
ATOM     57  C   UNL     1      20.244  -2.086 196.996  0.00  0.00    +0.000 C 
ATOM     58  C   UNL     1      21.513   3.495 189.219  0.00  0.00    +0.000 C 
ATOM     59  C   UNL     1      30.451  -0.376 199.418  0.00  0.00    +0.000 C 
ATOM     60  C   UNL     1      20.634  -0.806 194.121  0.00  0.00    +0.000 C 
ATOM     61  C   UNL     1      28.994   1.495 191.623  0.00  0.00    +0.000 C 
ATOM     62  C   UNL     1      28.417  -2.122 195.079  0.00  0.00    +0.000 C 
ATOM     63  C   UNL     1      20.191  -1.471 192.740  0.00  0.00    +0.000 C 
ATOM     64  H   UNL     1      27.119   0.276 197.476  0.00  0.00    +0.000 HD
ATOM     65  H   UNL     1      24.601   2.051 192.023  0.00  0.00    +0.000 HD
ATOM     66  H   UNL     1      21.044   0.713 195.361  0.00  0.00    +0.000 HD
ATOM     67  H   UNL     1      21.878   1.381 192.327  0.00  0.00    +0.000 HD
ATOM     68  C   UNL     1      27.822   0.086 201.175  0.00  0.00    +0.000 C 
ATOM     69  C   UNL     1      29.204   0.045 201.514  0.00  0.00    +0.000 C 
ATOM     70  C   UNL     1      29.985   0.579 200.380  0.00  0.00    +0.000 C 
ATOM     71  C   UNL     1      22.841   2.333 202.656  0.00  0.00    +0.000 C 
ATOM     72  C   UNL     1      23.891   3.101 202.945  0.00  0.00    +0.000 C 
ATOM     73  C   UNL     1      21.523   2.577 202.260  0.00  0.00    +0.000 C 
ATOM     74  C   UNL     1      17.874   0.677 199.166  0.00  0.00    +0.000 C 
ATOM     75  C   UNL     1      16.830  -0.058 198.620  0.00  0.00    +0.000 C 
ATOM     76  C   UNL     1      15.389   0.494 198.590  0.00  0.00    +0.000 C 
ATOM     77  C   UNL     1      17.166  -0.633 197.409  0.00  0.00    +0.000 C 
ATOM     78  C   UNL     1      29.757   3.956 191.662  0.00  0.00    +0.000 C 
ATOM     79  C   UNL     1      30.327   4.994 191.056  0.00  0.00    +0.000 C 
ATOM     80  C   UNL     1      29.835   2.569 191.532  0.00  0.00    +0.000 C 
ATOM     81  C   UNL     1      19.035   2.574 188.744  0.00  0.00    +0.000 C 
ATOM     82  C   UNL     1      17.998   3.086 187.799  0.00  0.00    +0.000 C 
ATOM     83  C   UNL     1      18.794   1.464 189.589  0.00  0.00    +0.000 C 
ENDROOT
BRANCH  69  84
ATOM     84  C   UNL     1      29.787  -0.733 202.542  0.00  0.00    +0.000 C 
ATOM     85  C   UNL     1      30.281  -1.400 203.410  0.00  0.00    +0.000 C 
BRANCH  85  86
ATOM     86  C   UNL     1      30.909  -2.255 204.515  0.00  0.00    +0.000 C 
ATOM     87  C   UNL     1      31.456  -3.002 205.473  0.00  0.00    +0.000 C 
ENDBRANCH  85  86
ENDBRANCH  69  84
BRANCH  13  88
ATOM     88  C   UNL     1      24.984   0.776 199.042  0.00  0.00    +0.000 C 
BRANCH  88  89
ATOM     89  O   UNL     1      24.225   1.503 198.234  0.00  0.00    +0.000 OA
ATOM     90  H   UNL     1      23.306   1.184 198.264  0.00  0.00    +0.000 HD
ENDBRANCH  88  89
ENDBRANCH  13  88
TORSDOF 4
ENDMDL
MODEL 2
REMARK VINA RESULT:     -10.9      3.636      9.254
REMARK  Name = Cyclosporin_A.pdbqt.pdb
REMARK  4 active torsions:
REMARK  status: ('A' for Active; 'I' for Inactive)
REMARK    1  A    between atoms: N_13  and  C_36
REMARK    2  A    between atoms: C_36  and  O_70
REMARK    3  A    between atoms: C_72  and  C_73
REMARK    4  A    between atoms: C_75  and  C_76
REMARK                            x       y       z     vdW  Elec       q    Type
REMARK                         _______ _______ _______ _____ _____    ______ ____
ROOT
ATOM      1  O   UNL     1      33.704   2.547 193.966  0.00  0.00    +0.000 OA
ATOM      2  O   UNL     1      33.459   2.516 199.089  0.00  0.00    +0.000 OA
ATOM      3  O   UNL     1      29.399   4.933 199.855  0.00  0.00    +0.000 OA
ATOM      4  O   UNL     1      31.964   6.432 191.540  0.00  0.00    +0.000 OA
ATOM      5  O   UNL     1      30.148  -0.051 199.287  0.00  0.00    +0.000 OA
ATOM      6  O   UNL     1      20.935  -0.053 192.789  0.00  0.00    +0.000 OA
ATOM      7  O   UNL     1      30.888   1.347 189.521  0.00  0.00    +0.000 OA
ATOM      8  O   UNL     1      23.177   3.652 190.440  0.00  0.00    +0.000 OA
ATOM      9  O   UNL     1      22.368  -1.179 197.279  0.00  0.00    +0.000 OA
ATOM     10  O   UNL     1      26.809   2.867 188.688  0.00  0.00    +0.000 OA
ATOM     11  O   UNL     1      26.621  -1.854 197.514  0.00  0.00    +0.000 OA
ATOM     12  N   UNL     1      32.945   3.051 197.301  0.00  0.00    +0.000 NA
ATOM     13  N   UNL     1      32.089   4.228 194.560  0.00  0.00    +0.000 NA
ATOM     14  N   UNL     1      31.031   3.806 199.796  0.00  0.00    +0.000 NA
ATOM     15  N   UNL     1      28.498   1.884 199.775  0.00  0.00    +0.000 NA
ATOM     16  N   UNL     1      30.694   4.368 191.812  0.00  0.00    +0.000 NA
ATOM     17  N   UNL     1      21.653   1.380 194.514  0.00  0.00    +0.000 N 
ATOM     18  N   UNL     1      23.611   2.266 192.275  0.00  0.00    +0.000 N 
ATOM     19  N   UNL     1      25.722   2.506 190.294  0.00  0.00    +0.000 NA
ATOM     20  N   UNL     1      29.304   1.746 191.104  0.00  0.00    +0.000 NA
ATOM     21  N   UNL     1      27.172   0.566 197.451  0.00  0.00    +0.000 NA
ATOM     22  N   UNL     1      24.022   0.002 195.974  0.00  0.00    +0.000 NA
ATOM     23  C   UNL     1      33.127   2.439 196.095  0.00  0.00    +0.000 C 
ATOM     24  C   UNL     1      31.401   3.811 198.512  0.00  0.00    +0.000 C 
ATOM     25  C   UNL     1      32.369   5.099 193.525  0.00  0.00    +0.000 C 
ATOM     26  C   UNL     1      34.090   1.471 195.871  0.00  0.00    +0.000 C 
ATOM     27  C   UNL     1      31.373   5.279 198.322  0.00  0.00    +0.000 C 
ATOM     28  C   UNL     1      32.881   3.137 194.931  0.00  0.00    +0.000 C 
ATOM     29  C   UNL     1      32.351   2.846 198.533  0.00  0.00    +0.000 C 
ATOM     30  C   UNL     1      29.487   2.516 200.345  0.00  0.00    +0.000 C 
ATOM     31  C   UNL     1      29.706   3.684 199.677  0.00  0.00    +0.000 C 
ATOM     32  C   UNL     1      31.430   5.415 192.407  0.00  0.00    +0.000 C 
ATOM     33  C   UNL     1      34.771   1.498 197.126  0.00  0.00    +0.000 C 
ATOM     34  C   UNL     1      34.558   1.678 194.616  0.00  0.00    +0.000 C 
ATOM     35  C   UNL     1      33.961   2.324 197.891  0.00  0.00    +0.000 C 
ATOM     36  C   UNL     1      30.784   5.200 199.927  0.00  0.00    +0.000 C 
ATOM     37  C   UNL     1      31.133   3.575 190.722  0.00  0.00    +0.000 C 
ATOM     38  C   UNL     1      22.597   1.349 192.174  0.00  0.00    +0.000 A 
ATOM     39  C   UNL     1      29.248   1.029 199.087  0.00  0.00    +0.000 C 
ATOM     40  C   UNL     1      21.718   0.446 195.579  0.00  0.00    +0.000 C 
ATOM     41  C   UNL     1      25.148   3.615 190.819  0.00  0.00    +0.000 C 
ATOM     42  C   UNL     1      28.026   1.462 201.119  0.00  0.00    +0.000 C 
ATOM     43  C   UNL     1      22.178   0.580 191.046  0.00  0.00    +0.000 A 
ATOM     44  C   UNL     1      19.970   0.444 196.057  0.00  0.00    +0.000 C 
ATOM     45  C   UNL     1      28.306   0.470 198.076  0.00  0.00    +0.000 C 
ATOM     46  C   UNL     1      24.294   4.153 189.703  0.00  0.00    +0.000 C 
ATOM     47  C   UNL     1      32.270   4.112 190.049  0.00  0.00    +0.000 C 
ATOM     48  C   UNL     1      21.780   0.940 193.223  0.00  0.00    +0.000 A 
ATOM     49  C   UNL     1      30.539   2.384 190.459  0.00  0.00    +0.000 C 
ATOM     50  C   UNL     1      23.965   3.092 191.316  0.00  0.00    +0.000 C 
ATOM     51  C   UNL     1      22.692  -0.270 196.234  0.00  0.00    +0.000 C 
ATOM     52  C   UNL     1      28.089   2.434 190.659  0.00  0.00    +0.000 C 
ATOM     53  C   UNL     1      22.755   0.542 189.655  0.00  0.00    +0.000 C 
ATOM     54  C   UNL     1      21.177  -0.258 191.465  0.00  0.00    +0.000 A 
ATOM     55  C   UNL     1      26.959   3.045 190.056  0.00  0.00    +0.000 C 
ATOM     56  C   UNL     1      25.031  -0.592 196.524  0.00  0.00    +0.000 C 
ATOM     57  C   UNL     1      29.309  -0.393 198.426  0.00  0.00    +0.000 C 
ATOM     58  C   UNL     1      20.415   1.256 195.045  0.00  0.00    +0.000 C 
ATOM     59  C   UNL     1      33.072   5.002 190.077  0.00  0.00    +0.000 C 
ATOM     60  C   UNL     1      26.402  -0.472 197.160  0.00  0.00    +0.000 C 
ATOM     61  C   UNL     1      25.357   2.722 188.786  0.00  0.00    +0.000 C 
ATOM     62  C   UNL     1      29.888   1.018 190.171  0.00  0.00    +0.000 C 
ATOM     63  C   UNL     1      25.498  -1.776 196.989  0.00  0.00    +0.000 C 
ATOM     64  H   UNL     1      30.281   3.759 192.519  0.00  0.00    +0.000 HD
ATOM     65  H   UNL     1      24.254   2.140 193.053  0.00  0.00    +0.000 HD
ATOM     66  H   UNL     1      26.743   1.487 197.408  0.00  0.00    +0.000 HD
ATOM     67  H   UNL     1      24.138   0.941 195.603  0.00  0.00    +0.000 HD
ATOM     68  C   UNL     1      33.587   5.438 193.200  0.00  0.00    +0.000 C 
ATOM     69  C   UNL     1      34.244   5.942 192.043  0.00  0.00    +0.000 C 
ATOM     70  C   UNL     1      33.247   6.111 190.968  0.00  0.00    +0.000 C 
ATOM     71  C   UNL     1      32.347   6.610 198.599  0.00  0.00    +0.000 C 
ATOM     72  C   UNL     1      32.463   7.686 197.822  0.00  0.00    +0.000 C 
ATOM     73  C   UNL     1      31.554   6.272 199.699  0.00  0.00    +0.000 C 
ATOM     74  C   UNL     1      29.049   2.256 201.723  0.00  0.00    +0.000 C 
ATOM     75  C   UNL     1      28.707   1.096 202.404  0.00  0.00    +0.000 C 
ATOM     76  C   UNL     1      28.024   1.147 203.787  0.00  0.00    +0.000 C 
ATOM     77  C   UNL     1      28.099   0.163 201.586  0.00  0.00    +0.000 C 
ATOM     78  C   UNL     1      24.325   5.047 188.375  0.00  0.00    +0.000 C 
ATOM     79  C   UNL     1      23.445   5.821 187.745  0.00  0.00    +0.000 C 
ATOM     80  C   UNL     1      24.951   3.831 188.098  0.00  0.00    +0.000 C 
ATOM     81  C   UNL     1      19.853  -0.434 197.056  0.00  0.00    +0.000 C 
ATOM     82  C   UNL     1      18.548  -0.709 197.726  0.00  0.00    +0.000 C 
ATOM     83  C   UNL     1      21.052  -1.071 197.461  0.00  0.00    +0.000 C 
ENDROOT
BRANCH  69  84
ATOM     84  C   UNL     1      35.636   5.900 191.792  0.00  0.00    +0.000 C 
ATOM     85  C   UNL     1      36.819   5.872 191.583  0.00  0.00    +0.000 C 
BRANCH  85  86
ATOM     86  C   UNL     1      38.327   5.841 191.317  0.00  0.00    +0.000 C 
ATOM     87  C   UNL     1      39.639   5.818 191.090  0.00  0.00    +0.000 C 
ENDBRANCH  85  86
ENDBRANCH  69  84
BRANCH  13  88
ATOM     88  C   UNL     1      30.749   4.281 195.121  0.00  0.00    +0.000 C 
BRANCH  88  89
ATOM     89  O   UNL     1      29.517   4.321 195.611  0.00  0.00    +0.000 OA
ATOM     90  H   UNL     1      29.500   4.854 196.426  0.00  0.00    +0.000 HD
ENDBRANCH  88  89
ENDBRANCH  13  88
TORSDOF 4
ENDMDL
MODEL 3
REMARK VINA RESULT:     -10.2     25.171     32.650
REMARK  Name = Cyclosporin_A.pdbqt.pdb
REMARK  4 active torsions:
REMARK  status: ('A' for Active; 'I' for Inactive)
REMARK    1  A    between atoms: N_13  and  C_36
REMARK    2  A    between atoms: C_36  and  O_70
REMARK    3  A    between atoms: C_72  and  C_73
REMARK    4  A    between atoms: C_75  and  C_76
REMARK                            x       y       z     vdW  Elec       q    Type
REMARK                         _______ _______ _______ _____ _____    ______ ____
ROOT
ATOM      1  O   UNL     1      11.087 -13.309 168.564  0.00  0.00    +0.000 OA
ATOM      2  O   UNL     1      14.343 -16.728 166.558  0.00  0.00    +0.000 OA
ATOM      3  O   UNL     1      17.820 -16.764 169.849  0.00  0.00    +0.000 OA
ATOM      4  O   UNL     1      12.895  -9.548 171.132  0.00  0.00    +0.000 OA
ATOM      5  O   UNL     1      13.664 -19.651 169.490  0.00  0.00    +0.000 OA
ATOM      6  O   UNL     1      12.482 -18.222 180.610  0.00  0.00    +0.000 OA
ATOM      7  O   UNL     1       8.331 -12.116 173.048  0.00  0.00    +0.000 OA
ATOM      8  O   UNL     1      12.963 -13.433 179.561  0.00  0.00    +0.000 OA
ATOM      9  O   UNL     1      14.034 -21.488 177.384  0.00  0.00    +0.000 OA
ATOM     10  O   UNL     1      10.173 -11.748 177.062  0.00  0.00    +0.000 OA
ATOM     11  O   UNL     1      12.369 -20.827 173.461  0.00  0.00    +0.000 OA
ATOM     12  N   UNL     1      13.769 -15.350 167.791  0.00  0.00    +0.000 NA
ATOM     13  N   UNL     1      13.166 -13.009 169.737  0.00  0.00    +0.000 NA
ATOM     14  N   UNL     1      16.467 -17.019 168.420  0.00  0.00    +0.000 NA
ATOM     15  N   UNL     1      15.870 -19.114 170.737  0.00  0.00    +0.000 NA
ATOM     16  N   UNL     1      11.985 -11.551 172.185  0.00  0.00    +0.000 NA
ATOM     17  N   UNL     1      14.361 -18.123 179.194  0.00  0.00    +0.000 N 
ATOM     18  N   UNL     1      12.984 -15.460 178.391  0.00  0.00    +0.000 N 
ATOM     19  N   UNL     1      11.258 -13.370 177.348  0.00  0.00    +0.000 NA
ATOM     20  N   UNL     1      10.101 -13.343 173.781  0.00  0.00    +0.000 NA
ATOM     21  N   UNL     1      13.889 -18.929 172.958  0.00  0.00    +0.000 NA
ATOM     22  N   UNL     1      13.547 -19.317 176.445  0.00  0.00    +0.000 NA
ATOM     23  C   UNL     1      12.521 -14.940 168.159  0.00  0.00    +0.000 C 
ATOM     24  C   UNL     1      15.552 -16.072 168.644  0.00  0.00    +0.000 C 
ATOM     25  C   UNL     1      13.055 -11.645 169.922  0.00  0.00    +0.000 C 
ATOM     26  C   UNL     1      11.387 -15.180 167.404  0.00  0.00    +0.000 C 
ATOM     27  C   UNL     1      16.492 -14.931 168.732  0.00  0.00    +0.000 C 
ATOM     28  C   UNL     1      12.369 -13.772 168.878  0.00  0.00    +0.000 C 
ATOM     29  C   UNL     1      14.578 -16.472 167.794  0.00  0.00    +0.000 C 
ATOM     30  C   UNL     1      16.369 -18.744 169.590  0.00  0.00    +0.000 C 
ATOM     31  C   UNL     1      16.718 -17.428 169.667  0.00  0.00    +0.000 C 
ATOM     32  C   UNL     1      12.875 -10.982 171.249  0.00  0.00    +0.000 C 
ATOM     33  C   UNL     1      11.978 -15.770 166.244  0.00  0.00    +0.000 C 
ATOM     34  C   UNL     1      10.605 -14.080 167.524  0.00  0.00    +0.000 C 
ATOM     35  C   UNL     1      13.300 -15.934 166.630  0.00  0.00    +0.000 C 
ATOM     36  C   UNL     1      17.623 -16.206 168.566  0.00  0.00    +0.000 C 
ATOM     37  C   UNL     1      10.599 -11.266 172.275  0.00  0.00    +0.000 C 
ATOM     38  C   UNL     1      12.581 -16.342 179.362  0.00  0.00    +0.000 A 
ATOM     39  C   UNL     1      14.593 -19.038 170.372  0.00  0.00    +0.000 C 
ATOM     40  C   UNL     1      14.338 -19.447 178.686  0.00  0.00    +0.000 C 
ATOM     41  C   UNL     1      12.559 -13.109 177.622  0.00  0.00    +0.000 C 
ATOM     42  C   UNL     1      16.555 -20.423 170.583  0.00  0.00    +0.000 C 
ATOM     43  C   UNL     1      11.456 -16.274 180.239  0.00  0.00    +0.000 A 
ATOM     44  C   UNL     1      15.181 -20.287 180.052  0.00  0.00    +0.000 C 
ATOM     45  C   UNL     1      13.856 -19.059 171.668  0.00  0.00    +0.000 C 
ATOM     46  C   UNL     1      12.513 -12.267 178.868  0.00  0.00    +0.000 C 
ATOM     47  C   UNL     1      10.207 -10.110 171.535  0.00  0.00    +0.000 C 
ATOM     48  C   UNL     1      13.199 -17.555 179.646  0.00  0.00    +0.000 A 
ATOM     49  C   UNL     1       9.768 -12.106 172.940  0.00  0.00    +0.000 C 
ATOM     50  C   UNL     1      12.864 -14.155 178.478  0.00  0.00    +0.000 C 
ATOM     51  C   UNL     1      13.930 -20.077 177.534  0.00  0.00    +0.000 C 
ATOM     52  C   UNL     1      10.695 -12.941 175.059  0.00  0.00    +0.000 C 
ATOM     53  C   UNL     1      10.380 -15.225 180.325  0.00  0.00    +0.000 C 
ATOM     54  C   UNL     1      11.432 -17.434 180.970  0.00  0.00    +0.000 A 
ATOM     55  C   UNL     1      11.108 -12.465 176.330  0.00  0.00    +0.000 C 
ATOM     56  C   UNL     1      13.150 -19.784 175.306  0.00  0.00    +0.000 C 
ATOM     57  C   UNL     1      13.144 -19.585 170.624  0.00  0.00    +0.000 C 
ATOM     58  C   UNL     1      14.990 -18.929 180.080  0.00  0.00    +0.000 C 
ATOM     59  C   UNL     1      10.612  -9.263 170.789  0.00  0.00    +0.000 C 
ATOM     60  C   UNL     1      13.205 -19.698 173.793  0.00  0.00    +0.000 C 
ATOM     61  C   UNL     1      10.584 -12.351 178.329  0.00  0.00    +0.000 C 
ATOM     62  C   UNL     1       8.814 -13.070 173.670  0.00  0.00    +0.000 C 
ATOM     63  C   UNL     1      12.447 -20.771 174.699  0.00  0.00    +0.000 C 
ATOM     64  H   UNL     1      12.120 -12.560 172.259  0.00  0.00    +0.000 HD
ATOM     65  H   UNL     1      13.178 -15.859 177.476  0.00  0.00    +0.000 HD
ATOM     66  H   UNL     1      14.654 -18.387 173.351  0.00  0.00    +0.000 HD
ATOM     67  H   UNL     1      13.950 -18.386 176.489  0.00  0.00    +0.000 HD
ATOM     68  C   UNL     1      12.714 -10.829 168.962  0.00  0.00    +0.000 C 
ATOM     69  C   UNL     1      12.146  -9.528 168.866  0.00  0.00    +0.000 C 
ATOM     70  C   UNL     1      11.907  -9.013 170.229  0.00  0.00    +0.000 C 
ATOM     71  C   UNL     1      17.313 -13.887 167.716  0.00  0.00    +0.000 C 
ATOM     72  C   UNL     1      17.561 -12.596 167.934  0.00  0.00    +0.000 C 
ATOM     73  C   UNL     1      18.006 -15.076 167.957  0.00  0.00    +0.000 C 
ATOM     74  C   UNL     1      17.181 -19.952 169.389  0.00  0.00    +0.000 C 
ATOM     75  C   UNL     1      16.883 -21.307 169.417  0.00  0.00    +0.000 C 
ATOM     76  C   UNL     1      17.998 -22.375 169.430  0.00  0.00    +0.000 C 
ATOM     77  C   UNL     1      15.894 -21.612 170.333  0.00  0.00    +0.000 C 
ATOM     78  C   UNL     1      12.314 -10.773 179.405  0.00  0.00    +0.000 C 
ATOM     79  C   UNL     1      12.748 -10.089 180.461  0.00  0.00    +0.000 C 
ATOM     80  C   UNL     1      11.074 -11.253 178.979  0.00  0.00    +0.000 C 
ATOM     81  C   UNL     1      15.213 -21.583 179.735  0.00  0.00    +0.000 C 
ATOM     82  C   UNL     1      15.844 -22.605 180.623  0.00  0.00    +0.000 C 
ATOM     83  C   UNL     1      14.636 -21.929 178.489  0.00  0.00    +0.000 C 
ENDROOT
BRANCH  69  84
ATOM     84  C   UNL     1      11.524  -8.974 167.722  0.00  0.00    +0.000 C 
ATOM     85  C   UNL     1      10.991  -8.509 166.751  0.00  0.00    +0.000 C 
BRANCH  85  86
ATOM     86  C   UNL     1      10.310  -7.921 165.511  0.00  0.00    +0.000 C 
ATOM     87  C   UNL     1       9.723  -7.409 164.431  0.00  0.00    +0.000 C 
ENDBRANCH  85  86
ENDBRANCH  69  84
BRANCH  13  88
ATOM     88  C   UNL     1      13.973 -13.741 170.700  0.00  0.00    +0.000 C 
BRANCH  88  89
ATOM     89  O   UNL     1      14.689 -14.414 171.590  0.00  0.00    +0.000 OA
ATOM     90  H   UNL     1      15.134 -15.166 171.160  0.00  0.00    +0.000 HD
ENDBRANCH  88  89
ENDBRANCH  13  88
TORSDOF 4
ENDMDL
MODEL 4
REMARK VINA RESULT:     -10.2      1.290      1.432
REMARK  Name = Cyclosporin_A.pdbqt.pdb
REMARK  4 active torsions:
REMARK  status: ('A' for Active; 'I' for Inactive)
REMARK    1  A    between atoms: N_13  and  C_36
REMARK    2  A    between atoms: C_36  and  O_70
REMARK    3  A    between atoms: C_72  and  C_73
REMARK    4  A    between atoms: C_75  and  C_76
REMARK                            x       y       z     vdW  Elec       q    Type
REMARK                         _______ _______ _______ _____ _____    ______ ____
ROOT
ATOM      1  O   UNL     1      27.830  -1.461 200.640  0.00  0.00    +0.000 OA
ATOM      2  O   UNL     1      23.136  -0.745 202.581  0.00  0.00    +0.000 OA
ATOM      3  O   UNL     1      21.773   3.241 200.306  0.00  0.00    +0.000 OA
ATOM      4  O   UNL     1      30.529   2.459 199.473  0.00  0.00    +0.000 OA
ATOM      5  O   UNL     1      21.121  -1.618 199.007  0.00  0.00    +0.000 OA
ATOM      6  O   UNL     1      23.870   1.476 188.521  0.00  0.00    +0.000 OA
ATOM      7  O   UNL     1      30.540  -1.898 195.993  0.00  0.00    +0.000 OA
ATOM      8  O   UNL     1      27.783   3.554 190.674  0.00  0.00    +0.000 OA
ATOM      9  O   UNL     1      19.997   0.419 191.234  0.00  0.00    +0.000 OA
ATOM     10  O   UNL     1      30.351   1.091 192.726  0.00  0.00    +0.000 OA
ATOM     11  O   UNL     1      21.020  -1.961 194.683  0.00  0.00    +0.000 OA
ATOM     12  N   UNL     1      24.723  -0.270 201.576  0.00  0.00    +0.000 NA
ATOM     13  N   UNL     1      27.232   0.806 200.102  0.00  0.00    +0.000 NA
ATOM     14  N   UNL     1      22.053   1.531 201.273  0.00  0.00    +0.000 NA
ATOM     15  N   UNL     1      20.678   0.878 198.481  0.00  0.00    +0.000 NA
ATOM     16  N   UNL     1      29.272   1.180 197.819  0.00  0.00    +0.000 NA
ATOM     17  N   UNL     1      22.967   2.672 190.337  0.00  0.00    +0.000 N 
ATOM     18  N   UNL     1      25.886   2.357 191.342  0.00  0.00    +0.000 N 
ATOM     19  N   UNL     1      28.442   1.429 192.366  0.00  0.00    +0.000 NA
ATOM     20  N   UNL     1      28.699  -0.671 195.462  0.00  0.00    +0.000 NA
ATOM     21  N   UNL     1      21.947  -0.032 195.940  0.00  0.00    +0.000 NA
ATOM     22  N   UNL     1      22.059   0.613 192.477  0.00  0.00    +0.000 NA
ATOM     23  C   UNL     1      25.693  -1.047 201.015  0.00  0.00    +0.000 C 
ATOM     24  C   UNL     1      23.332   1.218 201.046  0.00  0.00    +0.000 C 
ATOM     25  C   UNL     1      28.502   1.340 200.197  0.00  0.00    +0.000 C 
ATOM     26  C   UNL     1      25.943  -2.351 201.402  0.00  0.00    +0.000 C 
ATOM     27  C   UNL     1      23.910   2.523 201.439  0.00  0.00    +0.000 C 
ATOM     28  C   UNL     1      26.855  -0.462 200.554  0.00  0.00    +0.000 C 
ATOM     29  C   UNL     1      23.358  -0.048 201.526  0.00  0.00    +0.000 C 
ATOM     30  C   UNL     1      20.677   1.097 199.767  0.00  0.00    +0.000 C 
ATOM     31  C   UNL     1      21.682   1.968 200.066  0.00  0.00    +0.000 C 
ATOM     32  C   UNL     1      29.282   1.881 199.044  0.00  0.00    +0.000 C 
ATOM     33  C   UNL     1      25.051  -2.459 202.513  0.00  0.00    +0.000 C 
ATOM     34  C   UNL     1      27.286  -2.521 201.338  0.00  0.00    +0.000 C 
ATOM     35  C   UNL     1      24.326  -1.280 202.433  0.00  0.00    +0.000 C 
ATOM     36  C   UNL     1      22.248   2.902 201.593  0.00  0.00    +0.000 C 
ATOM     37  C   UNL     1      30.174   0.146 197.460  0.00  0.00    +0.000 C 
ATOM     38  C   UNL     1      25.377   1.951 190.135  0.00  0.00    +0.000 A 
ATOM     39  C   UNL     1      21.305  -0.293 198.533  0.00  0.00    +0.000 C 
ATOM     40  C   UNL     1      21.768   1.940 190.523  0.00  0.00    +0.000 C 
ATOM     41  C   UNL     1      28.092   2.733 192.479  0.00  0.00    +0.000 C 
ATOM     42  C   UNL     1      19.193   0.867 198.507  0.00  0.00    +0.000 C 
ATOM     43  C   UNL     1      26.033   1.298 189.047  0.00  0.00    +0.000 A 
ATOM     44  C   UNL     1      20.751   2.739 189.253  0.00  0.00    +0.000 C 
ATOM     45  C   UNL     1      21.739  -0.521 197.124  0.00  0.00    +0.000 C 
ATOM     46  C   UNL     1      28.962   3.438 191.474  0.00  0.00    +0.000 C 
ATOM     47  C   UNL     1      31.312   0.061 198.316  0.00  0.00    +0.000 C 
ATOM     48  C   UNL     1      24.045   2.062 189.752  0.00  0.00    +0.000 A 
ATOM     49  C   UNL     1      29.873  -0.703 196.446  0.00  0.00    +0.000 C 
ATOM     50  C   UNL     1      27.101   2.827 191.516  0.00  0.00    +0.000 C 
ATOM     51  C   UNL     1      21.303   0.966 191.375  0.00  0.00    +0.000 C 
ATOM     52  C   UNL     1      28.887   0.406 194.486  0.00  0.00    +0.000 C 
ATOM     53  C   UNL     1      27.464   0.845 188.934  0.00  0.00    +0.000 C 
ATOM     54  C   UNL     1      25.082   1.023 188.097  0.00  0.00    +0.000 A 
ATOM     55  C   UNL     1      29.223   1.358 193.489  0.00  0.00    +0.000 C 
ATOM     56  C   UNL     1      21.734  -0.279 193.356  0.00  0.00    +0.000 C 
ATOM     57  C   UNL     1      21.516  -1.677 197.823  0.00  0.00    +0.000 C 
ATOM     58  C   UNL     1      22.040   3.151 189.477  0.00  0.00    +0.000 C 
ATOM     59  C   UNL     1      31.809   0.524 199.304  0.00  0.00    +0.000 C 
ATOM     60  C   UNL     1      21.657  -0.673 194.818  0.00  0.00    +0.000 C 
ATOM     61  C   UNL     1      29.736   1.589 191.497  0.00  0.00    +0.000 C 
ATOM     62  C   UNL     1      29.527  -1.688 195.314  0.00  0.00    +0.000 C 
ATOM     63  C   UNL     1      21.138  -1.481 193.543  0.00  0.00    +0.000 C 
ATOM     64  H   UNL     1      28.326   0.897 197.562  0.00  0.00    +0.000 HD
ATOM     65  H   UNL     1      25.367   2.067 192.168  0.00  0.00    +0.000 HD
ATOM     66  H   UNL     1      22.104   0.970 195.874  0.00  0.00    +0.000 HD
ATOM     67  H   UNL     1      22.697   1.360 192.737  0.00  0.00    +0.000 HD
ATOM     68  C   UNL     1      29.299   1.086 201.200  0.00  0.00    +0.000 C 
ATOM     69  C   UNL     1      30.701   1.115 201.437  0.00  0.00    +0.000 C 
ATOM     70  C   UNL     1      31.382   1.556 200.203  0.00  0.00    +0.000 C 
ATOM     71  C   UNL     1      24.365   3.338 202.827  0.00  0.00    +0.000 C 
ATOM     72  C   UNL     1      25.407   4.157 202.963  0.00  0.00    +0.000 C 
ATOM     73  C   UNL     1      23.015   3.508 202.509  0.00  0.00    +0.000 C 
ATOM     74  C   UNL     1      19.218   1.222 199.891  0.00  0.00    +0.000 C 
ATOM     75  C   UNL     1      18.162   0.411 199.496  0.00  0.00    +0.000 C 
ATOM     76  C   UNL     1      16.705   0.920 199.521  0.00  0.00    +0.000 C 
ATOM     77  C   UNL     1      18.429  -0.271 198.324  0.00  0.00    +0.000 C 
ATOM     78  C   UNL     1      30.418   4.061 191.244  0.00  0.00    +0.000 C 
ATOM     79  C   UNL     1      30.909   5.049 190.501  0.00  0.00    +0.000 C 
ATOM     80  C   UNL     1      30.532   2.670 191.242  0.00  0.00    +0.000 C 
ATOM     81  C   UNL     1      19.566   2.125 189.277  0.00  0.00    +0.000 C 
ATOM     82  C   UNL     1      18.448   2.516 188.368  0.00  0.00    +0.000 C 
ATOM     83  C   UNL     1      19.423   1.097 190.240  0.00  0.00    +0.000 C 
ENDROOT
BRANCH  69  84
ATOM     84  C   UNL     1      31.382   0.456 202.488  0.00  0.00    +0.000 C 
ATOM     85  C   UNL     1      31.964  -0.107 203.375  0.00  0.00    +0.000 C 
BRANCH  85  86
ATOM     86  C   UNL     1      32.710  -0.828 204.503  0.00  0.00    +0.000 C 
ATOM     87  C   UNL     1      33.361  -1.456 205.480  0.00  0.00    +0.000 C 
ENDBRANCH  85  86
ENDBRANCH  69  84
BRANCH  13  88
ATOM     88  C   UNL     1      26.294   1.493 199.228  0.00  0.00    +0.000 C 
BRANCH  88  89
ATOM     89  O   UNL     1      25.452   2.139 198.433  0.00  0.00    +0.000 OA
ATOM     90  H   UNL     1      25.723   3.071 198.349  0.00  0.00    +0.000 HD
ENDBRANCH  88  89
ENDBRANCH  13  88
TORSDOF 4
ENDMDL
MODEL 5
REMARK VINA RESULT:     -10.0     36.018     38.808
REMARK  Name = Cyclosporin_A.pdbqt.pdb
REMARK  4 active torsions:
REMARK  status: ('A' for Active; 'I' for Inactive)
REMARK    1  A    between atoms: N_13  and  C_36
REMARK    2  A    between atoms: C_36  and  O_70
REMARK    3  A    between atoms: C_72  and  C_73
REMARK    4  A    between atoms: C_75  and  C_76
REMARK                            x       y       z     vdW  Elec       q    Type
REMARK                         _______ _______ _______ _____ _____    ______ ____
ROOT
ATOM      1  O   UNL     1      40.397 -30.024 174.425  0.00  0.00    +0.000 OA
ATOM      2  O   UNL     1      35.612 -31.616 175.363  0.00  0.00    +0.000 OA
ATOM      3  O   UNL     1      33.213 -27.473 175.324  0.00  0.00    +0.000 OA
ATOM      4  O   UNL     1      41.816 -25.662 176.148  0.00  0.00    +0.000 OA
ATOM      5  O   UNL     1      34.161 -30.707 171.534  0.00  0.00    +0.000 OA
ATOM      6  O   UNL     1      36.392 -21.647 165.207  0.00  0.00    +0.000 OA
ATOM      7  O   UNL     1      43.358 -27.104 170.987  0.00  0.00    +0.000 OA
ATOM      8  O   UNL     1      39.352 -20.370 168.932  0.00  0.00    +0.000 OA
ATOM      9  O   UNL     1      32.891 -24.898 166.014  0.00  0.00    +0.000 OA
ATOM     10  O   UNL     1      42.437 -22.916 169.864  0.00  0.00    +0.000 OA
ATOM     11  O   UNL     1      34.407 -28.523 167.792  0.00  0.00    +0.000 OA
ATOM     12  N   UNL     1      37.027 -30.313 175.142  0.00  0.00    +0.000 NA
ATOM     13  N   UNL     1      39.159 -28.061 175.059  0.00  0.00    +0.000 NA
ATOM     14  N   UNL     1      33.954 -29.314 175.266  0.00  0.00    +0.000 NA
ATOM     15  N   UNL     1      33.001 -28.535 172.334  0.00  0.00    +0.000 NA
ATOM     16  N   UNL     1      41.107 -26.004 173.839  0.00  0.00    +0.000 NA
ATOM     17  N   UNL     1      35.067 -21.945 167.130  0.00  0.00    +0.000 N 
ATOM     18  N   UNL     1      37.882 -22.120 168.425  0.00  0.00    +0.000 N 
ATOM     19  N   UNL     1      40.539 -22.868 169.329  0.00  0.00    +0.000 NA
ATOM     20  N   UNL     1      41.261 -26.241 170.801  0.00  0.00    +0.000 NA
ATOM     21  N   UNL     1      34.625 -27.516 170.050  0.00  0.00    +0.000 NA
ATOM     22  N   UNL     1      34.722 -24.997 167.586  0.00  0.00    +0.000 NA
ATOM     23  C   UNL     1      38.219 -30.388 174.483  0.00  0.00    +0.000 C 
ATOM     24  C   UNL     1      35.277 -29.146 175.195  0.00  0.00    +0.000 C 
ATOM     25  C   UNL     1      40.197 -27.412 175.700  0.00  0.00    +0.000 C 
ATOM     26  C   UNL     1      38.836 -31.583 174.160  0.00  0.00    +0.000 C 
ATOM     27  C   UNL     1      35.403 -28.213 176.338  0.00  0.00    +0.000 C 
ATOM     28  C   UNL     1      39.167 -29.404 174.672  0.00  0.00    +0.000 C 
ATOM     29  C   UNL     1      35.666 -30.413 174.919  0.00  0.00    +0.000 C 
ATOM     30  C   UNL     1      32.862 -29.100 173.502  0.00  0.00    +0.000 C 
ATOM     31  C   UNL     1      33.532 -28.361 174.431  0.00  0.00    +0.000 C 
ATOM     32  C   UNL     1      40.834 -26.150 175.216  0.00  0.00    +0.000 C 
ATOM     33  C   UNL     1      37.961 -32.504 174.815  0.00  0.00    +0.000 C 
ATOM     34  C   UNL     1      40.168 -31.382 174.313  0.00  0.00    +0.000 C 
ATOM     35  C   UNL     1      36.915 -31.689 175.219  0.00  0.00    +0.000 C 
ATOM     36  C   UNL     1      33.699 -28.372 176.301  0.00  0.00    +0.000 C 
ATOM     37  C   UNL     1      42.301 -26.413 173.194  0.00  0.00    +0.000 C 
ATOM     38  C   UNL     1      37.589 -21.861 167.111  0.00  0.00    +0.000 A 
ATOM     39  C   UNL     1      33.954 -29.349 171.891  0.00  0.00    +0.000 C 
ATOM     40  C   UNL     1      34.143 -22.896 166.630  0.00  0.00    +0.000 C 
ATOM     41  C   UNL     1      39.800 -21.983 170.040  0.00  0.00    +0.000 C 
ATOM     42  C   UNL     1      31.592 -28.889 172.023  0.00  0.00    +0.000 C 
ATOM     43  C   UNL     1      38.472 -21.607 166.017  0.00  0.00    +0.000 A 
ATOM     44  C   UNL     1      33.001 -21.765 165.793  0.00  0.00    +0.000 C 
ATOM     45  C   UNL     1      34.513 -28.626 170.713  0.00  0.00    +0.000 C 
ATOM     46  C   UNL     1      40.463 -20.657 169.783  0.00  0.00    +0.000 C 
ATOM     47  C   UNL     1      43.362 -26.716 174.098  0.00  0.00    +0.000 C 
ATOM     48  C   UNL     1      36.311 -21.851 166.563  0.00  0.00    +0.000 A 
ATOM     49  C   UNL     1      42.333 -26.569 171.846  0.00  0.00    +0.000 C 
ATOM     50  C   UNL     1      38.882 -21.578 169.084  0.00  0.00    +0.000 C 
ATOM     51  C   UNL     1      33.955 -24.257 166.706  0.00  0.00    +0.000 C 
ATOM     52  C   UNL     1      41.162 -24.790 170.617  0.00  0.00    +0.000 C 
ATOM     53  C   UNL     1      39.978 -21.581 165.998  0.00  0.00    +0.000 C 
ATOM     54  C   UNL     1      37.706 -21.491 164.886  0.00  0.00    +0.000 A 
ATOM     55  C   UNL     1      41.242 -23.393 170.382  0.00  0.00    +0.000 C 
ATOM     56  C   UNL     1      34.640 -26.276 167.759  0.00  0.00    +0.000 C 
ATOM     57  C   UNL     1      34.619 -29.987 170.621  0.00  0.00    +0.000 C 
ATOM     58  C   UNL     1      34.086 -21.281 166.478  0.00  0.00    +0.000 C 
ATOM     59  C   UNL     1      43.637 -26.807 175.261  0.00  0.00    +0.000 C 
ATOM     60  C   UNL     1      34.608 -27.442 168.728  0.00  0.00    +0.000 C 
ATOM     61  C   UNL     1      41.766 -21.956 168.988  0.00  0.00    +0.000 C 
ATOM     62  C   UNL     1      42.369 -26.774 170.321  0.00  0.00    +0.000 C 
ATOM     63  C   UNL     1      34.433 -27.465 167.141  0.00  0.00    +0.000 C 
ATOM     64  H   UNL     1      40.310 -26.290 173.271  0.00  0.00    +0.000 HD
ATOM     65  H   UNL     1      37.433 -22.936 168.833  0.00  0.00    +0.000 HD
ATOM     66  H   UNL     1      34.469 -26.652 170.563  0.00  0.00    +0.000 HD
ATOM     67  H   UNL     1      35.083 -24.415 168.336  0.00  0.00    +0.000 HD
ATOM     68  C   UNL     1      40.976 -28.008 176.560  0.00  0.00    +0.000 C 
ATOM     69  C   UNL     1      42.287 -27.810 177.077  0.00  0.00    +0.000 C 
ATOM     70  C   UNL     1      42.865 -26.603 176.451  0.00  0.00    +0.000 C 
ATOM     71  C   UNL     1      35.508 -28.264 178.006  0.00  0.00    +0.000 C 
ATOM     72  C   UNL     1      36.239 -27.463 178.781  0.00  0.00    +0.000 C 
ATOM     73  C   UNL     1      34.191 -28.248 177.540  0.00  0.00    +0.000 C 
ATOM     74  C   UNL     1      31.431 -29.397 173.349  0.00  0.00    +0.000 C 
ATOM     75  C   UNL     1      30.699 -30.045 172.363  0.00  0.00    +0.000 C 
ATOM     76  C   UNL     1      29.157 -29.983 172.335  0.00  0.00    +0.000 C 
ATOM     77  C   UNL     1      31.227 -29.852 171.101  0.00  0.00    +0.000 C 
ATOM     78  C   UNL     1      41.667 -19.709 170.246  0.00  0.00    +0.000 C 
ATOM     79  C   UNL     1      41.870 -18.395 170.272  0.00  0.00    +0.000 C 
ATOM     80  C   UNL     1      42.204 -20.780 169.529  0.00  0.00    +0.000 C 
ATOM     81  C   UNL     1      32.063 -22.527 165.226  0.00  0.00    +0.000 C 
ATOM     82  C   UNL     1      30.930 -21.947 164.446  0.00  0.00    +0.000 C 
ATOM     83  C   UNL     1      32.191 -23.922 165.435  0.00  0.00    +0.000 C 
ENDROOT
BRANCH  69  84
ATOM     84  C   UNL     1      43.079 -28.780 177.735  0.00  0.00    +0.000 C 
ATOM     85  C   UNL     1      43.753 -29.598 178.300  0.00  0.00    +0.000 C 
BRANCH  85  86
ATOM     86  C   UNL     1      44.615 -30.638 179.023  0.00  0.00    +0.000 C 
ATOM     87  C   UNL     1      45.369 -31.539 179.650  0.00  0.00    +0.000 C 
ENDBRANCH  85  86
ENDBRANCH  69  84
BRANCH  13  88
ATOM     88  C   UNL     1      38.105 -27.228 174.504  0.00  0.00    +0.000 C 
BRANCH  88  89
ATOM     89  O   UNL     1      37.160 -26.453 173.989  0.00  0.00    +0.000 OA
ATOM     90  H   UNL     1      36.478 -27.000 173.561  0.00  0.00    +0.000 HD
ENDBRANCH  88  89
ENDBRANCH  13  88
TORSDOF 4
ENDMDL
MODEL 6
REMARK VINA RESULT:     -10.0      3.241      4.660
REMARK  Name = Cyclosporin_A.pdbqt.pdb
REMARK  4 active torsions:
REMARK  status: ('A' for Active; 'I' for Inactive)
REMARK    1  A    between atoms: N_13  and  C_36
REMARK    2  A    between atoms: C_36  and  O_70
REMARK    3  A    between atoms: C_72  and  C_73
REMARK    4  A    between atoms: C_75  and  C_76
REMARK                            x       y       z     vdW  Elec       q    Type
REMARK                         _______ _______ _______ _____ _____    ______ ____
ROOT
ATOM      1  O   UNL     1      30.621   1.364 199.774  0.00  0.00    +0.000 OA
ATOM      2  O   UNL     1      26.798   2.653 202.943  0.00  0.00    +0.000 OA
ATOM      3  O   UNL     1      24.446   5.891 200.316  0.00  0.00    +0.000 OA
ATOM      4  O   UNL     1      32.459   4.777 196.777  0.00  0.00    +0.000 OA
ATOM      5  O   UNL     1      23.785   0.872 200.632  0.00  0.00    +0.000 OA
ATOM      6  O   UNL     1      22.637   0.955 189.417  0.00  0.00    +0.000 OA
ATOM      7  O   UNL     1      31.656  -0.362 194.767  0.00  0.00    +0.000 OA
ATOM      8  O   UNL     1      26.866   3.480 189.484  0.00  0.00    +0.000 OA
ATOM      9  O   UNL     1      19.983   0.735 193.465  0.00  0.00    +0.000 OA
ATOM     10  O   UNL     1      30.156   1.629 191.102  0.00  0.00    +0.000 OA
ATOM     11  O   UNL     1      22.278  -0.633 196.851  0.00  0.00    +0.000 OA
ATOM     12  N   UNL     1      27.917   2.813 201.370  0.00  0.00    +0.000 NA
ATOM     13  N   UNL     1      29.700   3.408 198.901  0.00  0.00    +0.000 NA
ATOM     14  N   UNL     1      25.166   4.504 201.539  0.00  0.00    +0.000 NA
ATOM     15  N   UNL     1      22.997   3.138 199.657  0.00  0.00    +0.000 NA
ATOM     16  N   UNL     1      30.829   3.116 196.046  0.00  0.00    +0.000 NA
ATOM     17  N   UNL     1      22.298   2.614 191.053  0.00  0.00    +0.000 N 
ATOM     18  N   UNL     1      25.400   2.539 191.047  0.00  0.00    +0.000 N 
ATOM     19  N   UNL     1      28.215   1.885 191.340  0.00  0.00    +0.000 NA
ATOM     20  N   UNL     1      29.653   0.703 194.596  0.00  0.00    +0.000 NA
ATOM     21  N   UNL     1      23.416   1.551 197.167  0.00  0.00    +0.000 NA
ATOM     22  N   UNL     1      22.318   1.229 193.833  0.00  0.00    +0.000 NA
ATOM     23  C   UNL     1      28.704   1.897 200.735  0.00  0.00    +0.000 C 
ATOM     24  C   UNL     1      26.317   4.121 200.978  0.00  0.00    +0.000 C 
ATOM     25  C   UNL     1      30.884   3.928 198.415  0.00  0.00    +0.000 C 
ATOM     26  C   UNL     1      29.170   0.744 201.339  0.00  0.00    +0.000 C 
ATOM     27  C   UNL     1      26.888   5.475 200.796  0.00  0.00    +0.000 C 
ATOM     28  C   UNL     1      29.596   2.316 199.769  0.00  0.00    +0.000 C 
ATOM     29  C   UNL     1      26.601   3.033 201.732  0.00  0.00    +0.000 C 
ATOM     30  C   UNL     1      23.405   3.698 200.762  0.00  0.00    +0.000 C 
ATOM     31  C   UNL     1      24.381   4.602 200.462  0.00  0.00    +0.000 C 
ATOM     32  C   UNL     1      31.191   4.123 196.966  0.00  0.00    +0.000 C 
ATOM     33  C   UNL     1      28.710   0.955 202.675  0.00  0.00    +0.000 C 
ATOM     34  C   UNL     1      30.425   0.542 200.867  0.00  0.00    +0.000 C 
ATOM     35  C   UNL     1      27.909   2.080 202.542  0.00  0.00    +0.000 C 
ATOM     36  C   UNL     1      25.347   5.907 201.404  0.00  0.00    +0.000 C 
ATOM     37  C   UNL     1      31.638   2.010 195.684  0.00  0.00    +0.000 C 
ATOM     38  C   UNL     1      24.552   1.828 190.236  0.00  0.00    +0.000 A 
ATOM     39  C   UNL     1      23.695   2.015 199.795  0.00  0.00    +0.000 C 
ATOM     40  C   UNL     1      21.290   1.978 191.822  0.00  0.00    +0.000 C 
ATOM     41  C   UNL     1      27.822   3.176 191.222  0.00  0.00    +0.000 C 
ATOM     42  C   UNL     1      21.610   3.157 200.190  0.00  0.00    +0.000 C 
ATOM     43  C   UNL     1      24.858   0.894 189.200  0.00  0.00    +0.000 A 
ATOM     44  C   UNL     1      19.850   2.417 190.814  0.00  0.00    +0.000 C 
ATOM     45  C   UNL     1      23.652   1.406 198.434  0.00  0.00    +0.000 C 
ATOM     46  C   UNL     1      28.249   3.568 189.833  0.00  0.00    +0.000 C 
ATOM     47  C   UNL     1      33.000   2.143 196.090  0.00  0.00    +0.000 C 
ATOM     48  C   UNL     1      23.164   1.851 190.316  0.00  0.00    +0.000 A 
ATOM     49  C   UNL     1      31.086   0.921 195.092  0.00  0.00    +0.000 C 
ATOM     50  C   UNL     1      26.562   3.020 190.666  0.00  0.00    +0.000 C 
ATOM     51  C   UNL     1      21.213   1.280 193.004  0.00  0.00    +0.000 C 
ATOM     52  C   UNL     1      29.420   1.471 193.370  0.00  0.00    +0.000 C 
ATOM     53  C   UNL     1      26.201   0.405 188.728  0.00  0.00    +0.000 C 
ATOM     54  C   UNL     1      23.671   0.386 188.739  0.00  0.00    +0.000 A 
ATOM     55  C   UNL     1      29.329   2.111 192.106  0.00  0.00    +0.000 C 
ATOM     56  C   UNL     1      22.376   0.615 194.970  0.00  0.00    +0.000 C 
ATOM     57  C   UNL     1      23.766   0.488 199.443  0.00  0.00    +0.000 C 
ATOM     58  C   UNL     1      21.102   2.855 190.468  0.00  0.00    +0.000 C 
ATOM     59  C   UNL     1      33.758   2.849 196.692  0.00  0.00    +0.000 C 
ATOM     60  C   UNL     1      22.820   0.634 196.419  0.00  0.00    +0.000 C 
ATOM     61  C   UNL     1      29.130   1.783 190.072  0.00  0.00    +0.000 C 
ATOM     62  C   UNL     1      30.462  -0.329 194.445  0.00  0.00    +0.000 C 
ATOM     63  C   UNL     1      21.972  -0.482 195.656  0.00  0.00    +0.000 C 
ATOM     64  H   UNL     1      29.877   2.788 196.211  0.00  0.00    +0.000 HD
ATOM     65  H   UNL     1      25.210   2.493 192.045  0.00  0.00    +0.000 HD
ATOM     66  H   UNL     1      23.462   2.495 196.792  0.00  0.00    +0.000 HD
ATOM     67  H   UNL     1      22.945   2.008 193.655  0.00  0.00    +0.000 HD
ATOM     68  C   UNL     1      31.985   3.945 199.114  0.00  0.00    +0.000 C 
ATOM     69  C   UNL     1      33.380   4.015 198.842  0.00  0.00    +0.000 C 
ATOM     70  C   UNL     1      33.575   4.093 197.381  0.00  0.00    +0.000 C 
ATOM     71  C   UNL     1      27.713   6.630 201.682  0.00  0.00    +0.000 C 
ATOM     72  C   UNL     1      28.672   7.438 201.235  0.00  0.00    +0.000 C 
ATOM     73  C   UNL     1      26.324   6.727 201.811  0.00  0.00    +0.000 C 
ATOM     74  C   UNL     1      22.066   3.874 201.339  0.00  0.00    +0.000 C 
ATOM     75  C   UNL     1      21.006   3.003 201.554  0.00  0.00    +0.000 C 
ATOM     76  C   UNL     1      19.605   3.522 201.942  0.00  0.00    +0.000 C 
ATOM     77  C   UNL     1      20.921   2.024 200.582  0.00  0.00    +0.000 C 
ATOM     78  C   UNL     1      29.492   4.082 188.967  0.00  0.00    +0.000 C 
ATOM     79  C   UNL     1      29.628   4.824 187.870  0.00  0.00    +0.000 C 
ATOM     80  C   UNL     1      29.708   2.742 189.288  0.00  0.00    +0.000 C 
ATOM     81  C   UNL     1      18.792   1.852 191.400  0.00  0.00    +0.000 C 
ATOM     82  C   UNL     1      17.408   1.998 190.860  0.00  0.00    +0.000 C 
ATOM     83  C   UNL     1      19.059   1.126 192.587  0.00  0.00    +0.000 C 
ENDROOT
BRANCH  69  84
ATOM     84  C   UNL     1      34.421   3.656 199.731  0.00  0.00    +0.000 C 
ATOM     85  C   UNL     1      35.310   3.350 200.479  0.00  0.00    +0.000 C 
BRANCH  85  86
ATOM     86  C   UNL     1      36.445   2.956 201.430  0.00  0.00    +0.000 C 
ATOM     87  C   UNL     1      37.429   2.617 202.260  0.00  0.00    +0.000 C 
ENDBRANCH  85  86
ENDBRANCH  69  84
BRANCH  13  88
ATOM     88  C   UNL     1      28.474   3.846 198.254  0.00  0.00    +0.000 C 
BRANCH  88  89
ATOM     89  O   UNL     1      27.366   4.241 197.641  0.00  0.00    +0.000 OA
ATOM     90  H   UNL     1      27.082   3.566 196.999  0.00  0.00    +0.000 HD
ENDBRANCH  88  89
ENDBRANCH  13  88
TORSDOF 4
ENDMDL
MODEL 7
REMARK VINA RESULT:      -9.7     18.270     25.573
REMARK  Name = Cyclosporin_A.pdbqt.pdb
REMARK  4 active torsions:
REMARK  status: ('A' for Active; 'I' for Inactive)
REMARK    1  A    between atoms: N_13  and  C_36
REMARK    2  A    between atoms: C_36  and  O_70
REMARK    3  A    between atoms: C_72  and  C_73
REMARK    4  A    between atoms: C_75  and  C_76
REMARK                            x       y       z     vdW  Elec       q    Type
REMARK                         _______ _______ _______ _____ _____    ______ ____
ROOT
ATOM      1  O   UNL     1       4.093   5.206 179.895  0.00  0.00    +0.000 OA
ATOM      2  O   UNL     1       6.360   4.445 175.357  0.00  0.00    +0.000 OA
ATOM      3  O   UNL     1      10.589   2.652 176.704  0.00  0.00    +0.000 OA
ATOM      4  O   UNL     1       6.860   6.473 183.736  0.00  0.00    +0.000 OA
ATOM      5  O   UNL     1       6.258   0.259 175.589  0.00  0.00    +0.000 OA
ATOM      6  O   UNL     1       8.304  -6.275 184.546  0.00  0.00    +0.000 OA
ATOM      7  O   UNL     1       2.790   2.741 184.516  0.00  0.00    +0.000 OA
ATOM      8  O   UNL     1       8.898  -2.002 186.925  0.00  0.00    +0.000 OA
ATOM      9  O   UNL     1       8.618  -6.320 179.711  0.00  0.00    +0.000 OA
ATOM     10  O   UNL     1       5.688   0.557 187.060  0.00  0.00    +0.000 OA
ATOM     11  O   UNL     1       6.004  -3.420 177.878  0.00  0.00    +0.000 OA
ATOM     12  N   UNL     1       6.270   4.560 177.288  0.00  0.00    +0.000 NA
ATOM     13  N   UNL     1       6.432   4.901 180.368  0.00  0.00    +0.000 NA
ATOM     14  N   UNL     1       8.879   3.251 175.895  0.00  0.00    +0.000 NA
ATOM     15  N   UNL     1       8.759   0.092 176.240  0.00  0.00    +0.000 NA
ATOM     16  N   UNL     1       6.102   4.187 183.350  0.00  0.00    +0.000 NA
ATOM     17  N   UNL     1       9.723  -5.023 183.146  0.00  0.00    +0.000 N 
ATOM     18  N   UNL     1       8.418  -2.705 184.744  0.00  0.00    +0.000 N 
ATOM     19  N   UNL     1       6.662  -0.689 185.881  0.00  0.00    +0.000 NA
ATOM     20  N   UNL     1       4.578   1.571 183.735  0.00  0.00    +0.000 NA
ATOM     21  N   UNL     1       7.489  -1.503 178.415  0.00  0.00    +0.000 NA
ATOM     22  N   UNL     1       8.084  -4.161 180.653  0.00  0.00    +0.000 NA
ATOM     23  C   UNL     1       5.212   4.460 178.143  0.00  0.00    +0.000 C 
ATOM     24  C   UNL     1       8.148   3.683 176.927  0.00  0.00    +0.000 C 
ATOM     25  C   UNL     1       6.497   5.764 181.445  0.00  0.00    +0.000 C 
ATOM     26  C   UNL     1       3.898   4.648 177.754  0.00  0.00    +0.000 C 
ATOM     27  C   UNL     1       9.173   4.577 177.513  0.00  0.00    +0.000 C 
ATOM     28  C   UNL     1       5.366   4.817 179.467  0.00  0.00    +0.000 C 
ATOM     29  C   UNL     1       6.947   3.836 176.323  0.00  0.00    +0.000 C 
ATOM     30  C   UNL     1       8.955   1.193 175.567  0.00  0.00    +0.000 C 
ATOM     31  C   UNL     1       9.427   2.149 176.416  0.00  0.00    +0.000 C 
ATOM     32  C   UNL     1       6.748   5.340 182.856  0.00  0.00    +0.000 C 
ATOM     33  C   UNL     1       4.094   5.064 176.401  0.00  0.00    +0.000 C 
ATOM     34  C   UNL     1       3.279   5.277 178.782  0.00  0.00    +0.000 C 
ATOM     35  C   UNL     1       5.451   4.850 176.213  0.00  0.00    +0.000 C 
ATOM     36  C   UNL     1      10.098   3.894 176.244  0.00  0.00    +0.000 C 
ATOM     37  C   UNL     1       4.824   4.164 183.965  0.00  0.00    +0.000 C 
ATOM     38  C   UNL     1       8.221  -4.050 184.925  0.00  0.00    +0.000 A 
ATOM     39  C   UNL     1       7.444   0.233 176.370  0.00  0.00    +0.000 C 
ATOM     40  C   UNL     1       9.445  -5.656 181.908  0.00  0.00    +0.000 C 
ATOM     41  C   UNL     1       8.006  -0.519 185.909  0.00  0.00    +0.000 C 
ATOM     42  C   UNL     1       9.258  -0.680 175.073  0.00  0.00    +0.000 C 
ATOM     43  C   UNL     1       7.391  -4.726 185.870  0.00  0.00    +0.000 A 
ATOM     44  C   UNL     1      10.554  -7.080 182.066  0.00  0.00    +0.000 C 
ATOM     45  C   UNL     1       7.092  -0.740 177.444  0.00  0.00    +0.000 C 
ATOM     46  C   UNL     1       8.379  -0.741 187.350  0.00  0.00    +0.000 C 
ATOM     47  C   UNL     1       4.348   5.457 184.335  0.00  0.00    +0.000 C 
ATOM     48  C   UNL     1       8.785  -5.053 184.143  0.00  0.00    +0.000 A 
ATOM     49  C   UNL     1       4.137   2.999 184.074  0.00  0.00    +0.000 C 
ATOM     50  C   UNL     1       8.442  -1.820 185.716  0.00  0.00    +0.000 C 
ATOM     51  C   UNL     1       8.683  -5.399 180.793  0.00  0.00    +0.000 C 
ATOM     52  C   UNL     1       5.533   1.086 184.735  0.00  0.00    +0.000 C 
ATOM     53  C   UNL     1       6.476  -4.148 186.916  0.00  0.00    +0.000 C 
ATOM     54  C   UNL     1       7.467  -6.069 185.599  0.00  0.00    +0.000 A 
ATOM     55  C   UNL     1       6.320   0.637 185.827  0.00  0.00    +0.000 C 
ATOM     56  C   UNL     1       7.351  -3.791 179.653  0.00  0.00    +0.000 C 
ATOM     57  C   UNL     1       6.077  -0.517 176.553  0.00  0.00    +0.000 C 
ATOM     58  C   UNL     1      10.498  -6.127 183.051  0.00  0.00    +0.000 C 
ATOM     59  C   UNL     1       4.604   6.626 184.285  0.00  0.00    +0.000 C 
ATOM     60  C   UNL     1       6.995  -2.710 178.652  0.00  0.00    +0.000 C 
ATOM     61  C   UNL     1       6.376  -0.682 187.422  0.00  0.00    +0.000 C 
ATOM     62  C   UNL     1       3.340   1.686 184.177  0.00  0.00    +0.000 C 
ATOM     63  C   UNL     1       6.424  -4.197 178.751  0.00  0.00    +0.000 C 
ATOM     64  H   UNL     1       6.162   3.415 182.686  0.00  0.00    +0.000 HD
ATOM     65  H   UNL     1       8.318  -2.361 183.792  0.00  0.00    +0.000 HD
ATOM     66  H   UNL     1       8.377  -1.273 178.853  0.00  0.00    +0.000 HD
ATOM     67  H   UNL     1       8.565  -3.458 181.206  0.00  0.00    +0.000 HD
ATOM     68  C   UNL     1       5.978   6.961 181.420  0.00  0.00    +0.000 C 
ATOM     69  C   UNL     1       5.522   7.909 182.378  0.00  0.00    +0.000 C 
ATOM     70  C   UNL     1       5.713   7.345 183.730  0.00  0.00    +0.000 C 
ATOM     71  C   UNL     1       9.772   6.124 177.301  0.00  0.00    +0.000 C 
ATOM     72  C   UNL     1      10.183   6.955 178.258  0.00  0.00    +0.000 C 
ATOM     73  C   UNL     1      10.397   5.177 176.485  0.00  0.00    +0.000 C 
ATOM     74  C   UNL     1       9.572   0.542 174.402  0.00  0.00    +0.000 C 
ATOM     75  C   UNL     1       9.175  -0.507 173.585  0.00  0.00    +0.000 C 
ATOM     76  C   UNL     1      10.152  -1.161 172.585  0.00  0.00    +0.000 C 
ATOM     77  C   UNL     1       8.452  -1.466 174.270  0.00  0.00    +0.000 C 
ATOM     78  C   UNL     1       8.467  -0.028 188.780  0.00  0.00    +0.000 C 
ATOM     79  C   UNL     1       9.232  -0.179 189.858  0.00  0.00    +0.000 C 
ATOM     80  C   UNL     1       7.121  -0.249 188.484  0.00  0.00    +0.000 C 
ATOM     81  C   UNL     1      10.384  -7.815 180.965  0.00  0.00    +0.000 C 
ATOM     82  C   UNL     1      11.141  -9.079 180.726  0.00  0.00    +0.000 C 
ATOM     83  C   UNL     1       9.459  -7.307 180.020  0.00  0.00    +0.000 C 
ENDROOT
BRANCH  69  84
ATOM     84  C   UNL     1       4.662   9.003 182.123  0.00  0.00    +0.000 C 
ATOM     85  C   UNL     1       3.934   9.935 181.914  0.00  0.00    +0.000 C 
BRANCH  85  86
ATOM     86  C   UNL     1       3.004  11.124 181.652  0.00  0.00    +0.000 C 
ATOM     87  C   UNL     1       2.197  12.160 181.430  0.00  0.00    +0.000 C 
ENDBRANCH  85  86
ENDBRANCH  69  84
BRANCH  13  88
ATOM     88  C   UNL     1       7.405   3.821 180.330  0.00  0.00    +0.000 C 
BRANCH  88  89
ATOM     89  O   UNL     1       8.292   2.836 180.320  0.00  0.00    +0.000 OA
ATOM     90  H   UNL     1       9.163   3.174 180.043  0.00  0.00    +0.000 HD
ENDBRANCH  88  89
ENDBRANCH  13  88
TORSDOF 4
ENDMDL
MODEL 8
REMARK VINA RESULT:      -9.5     10.765     15.649
REMARK  Name = Cyclosporin_A.pdbqt.pdb
REMARK  4 active torsions:
REMARK  status: ('A' for Active; 'I' for Inactive)
REMARK    1  A    between atoms: N_13  and  C_36
REMARK    2  A    between atoms: C_36  and  O_70
REMARK    3  A    between atoms: C_72  and  C_73
REMARK    4  A    between atoms: C_75  and  C_76
REMARK                            x       y       z     vdW  Elec       q    Type
REMARK                         _______ _______ _______ _____ _____    ______ ____
ROOT
ATOM      1  O   UNL     1      28.538  -7.116 204.194  0.00  0.00    +0.000 OA
ATOM      2  O   UNL     1      25.336 -10.424 206.455  0.00  0.00    +0.000 OA
ATOM      3  O   UNL     1      23.876 -13.030 202.715  0.00  0.00    +0.000 OA
ATOM      4  O   UNL     1      27.559  -5.621 199.632  0.00  0.00    +0.000 OA
ATOM      5  O   UNL     1      27.785 -13.777 205.860  0.00  0.00    +0.000 OA
ATOM      6  O   UNL     1      33.805 -16.472 196.717  0.00  0.00    +0.000 OA
ATOM      7  O   UNL     1      32.840  -6.835 200.948  0.00  0.00    +0.000 OA
ATOM      8  O   UNL     1      32.105 -12.208 194.931  0.00  0.00    +0.000 OA
ATOM      9  O   UNL     1      31.481 -18.541 200.431  0.00  0.00    +0.000 OA
ATOM     10  O   UNL     1      33.071  -8.776 196.969  0.00  0.00    +0.000 OA
ATOM     11  O   UNL     1      30.970 -15.835 203.750  0.00  0.00    +0.000 OA
ATOM     12  N   UNL     1      26.186  -9.530 204.962  0.00  0.00    +0.000 NA
ATOM     13  N   UNL     1      27.239  -8.093 202.421  0.00  0.00    +0.000 NA
ATOM     14  N   UNL     1      24.418 -12.185 204.426  0.00  0.00    +0.000 NA
ATOM     15  N   UNL     1      26.371 -14.631 203.865  0.00  0.00    +0.000 NA
ATOM     16  N   UNL     1      29.173  -7.381 200.127  0.00  0.00    +0.000 NA
ATOM     17  N   UNL     1      31.494 -16.535 197.163  0.00  0.00    +0.000 N 
ATOM     18  N   UNL     1      31.871 -13.467 196.890  0.00  0.00    +0.000 N 
ATOM     19  N   UNL     1      32.532 -10.657 197.216  0.00  0.00    +0.000 NA
ATOM     20  N   UNL     1      31.853  -8.813 200.409  0.00  0.00    +0.000 NA
ATOM     21  N   UNL     1      29.103 -14.605 202.669  0.00  0.00    +0.000 NA
ATOM     22  N   UNL     1      31.104 -16.165 200.222  0.00  0.00    +0.000 NA
ATOM     23  C   UNL     1      27.374  -8.865 204.875  0.00  0.00    +0.000 C 
ATOM     24  C   UNL     1      25.160 -11.134 204.066  0.00  0.00    +0.000 C 
ATOM     25  C   UNL     1      27.197  -6.975 201.611  0.00  0.00    +0.000 C 
ATOM     26  C   UNL     1      28.040  -8.350 205.973  0.00  0.00    +0.000 C 
ATOM     27  C   UNL     1      24.199 -10.557 203.099  0.00  0.00    +0.000 C 
ATOM     28  C   UNL     1      27.651  -8.105 203.758  0.00  0.00    +0.000 C 
ATOM     29  C   UNL     1      25.671 -10.777 205.268  0.00  0.00    +0.000 C 
ATOM     30  C   UNL     1      25.338 -14.058 204.417  0.00  0.00    +0.000 C 
ATOM     31  C   UNL     1      24.854 -13.109 203.566  0.00  0.00    +0.000 C 
ATOM     32  C   UNL     1      27.868  -6.868 200.281  0.00  0.00    +0.000 C 
ATOM     33  C   UNL     1      27.080  -8.614 206.997  0.00  0.00    +0.000 C 
ATOM     34  C   UNL     1      28.594  -7.180 205.573  0.00  0.00    +0.000 C 
ATOM     35  C   UNL     1      26.143  -9.395 206.337  0.00  0.00    +0.000 C 
ATOM     36  C   UNL     1      23.350 -11.986 203.509  0.00  0.00    +0.000 C 
ATOM     37  C   UNL     1      30.370  -6.660 200.370  0.00  0.00    +0.000 C 
ATOM     38  C   UNL     1      32.822 -14.438 196.708  0.00  0.00    +0.000 A 
ATOM     39  C   UNL     1      27.293 -13.951 204.539  0.00  0.00    +0.000 C 
ATOM     40  C   UNL     1      31.493 -17.443 198.253  0.00  0.00    +0.000 C 
ATOM     41  C   UNL     1      31.490 -11.028 196.433  0.00  0.00    +0.000 C 
ATOM     42  C   UNL     1      25.921 -15.929 204.431  0.00  0.00    +0.000 C 
ATOM     43  C   UNL     1      34.199 -14.305 196.352  0.00  0.00    +0.000 A 
ATOM     44  C   UNL     1      31.543 -18.997 197.323  0.00  0.00    +0.000 C 
ATOM     45  C   UNL     1      28.546 -14.199 203.768  0.00  0.00    +0.000 C 
ATOM     46  C   UNL     1      31.978 -10.788 195.030  0.00  0.00    +0.000 C 
ATOM     47  C   UNL     1      30.171  -5.252 200.492  0.00  0.00    +0.000 C 
ATOM     48  C   UNL     1      32.620 -15.801 196.900  0.00  0.00    +0.000 A 
ATOM     49  C   UNL     1      31.542  -7.319 200.551  0.00  0.00    +0.000 C 
ATOM     50  C   UNL     1      31.801 -12.356 196.191  0.00  0.00    +0.000 C 
ATOM     51  C   UNL     1      31.409 -17.373 199.624  0.00  0.00    +0.000 C 
ATOM     52  C   UNL     1      31.873  -9.193 198.994  0.00  0.00    +0.000 C 
ATOM     53  C   UNL     1      34.999 -13.054 196.103  0.00  0.00    +0.000 C 
ATOM     54  C   UNL     1      34.755 -15.558 196.376  0.00  0.00    +0.000 A 
ATOM     55  C   UNL     1      32.034  -9.442 197.607  0.00  0.00    +0.000 C 
ATOM     56  C   UNL     1      30.988 -15.967 201.495  0.00  0.00    +0.000 C 
ATOM     57  C   UNL     1      28.758 -13.971 205.101  0.00  0.00    +0.000 C 
ATOM     58  C   UNL     1      31.498 -17.793 196.667  0.00  0.00    +0.000 C 
ATOM     59  C   UNL     1      29.330  -4.399 200.514  0.00  0.00    +0.000 C 
ATOM     60  C   UNL     1      30.215 -15.324 202.630  0.00  0.00    +0.000 C 
ATOM     61  C   UNL     1      33.410  -9.931 196.140  0.00  0.00    +0.000 C 
ATOM     62  C   UNL     1      32.871  -8.061 200.784  0.00  0.00    +0.000 C 
ATOM     63  C   UNL     1      31.475 -16.300 202.715  0.00  0.00    +0.000 C 
ATOM     64  H   UNL     1      29.257  -8.310 200.542  0.00  0.00    +0.000 HD
ATOM     65  H   UNL     1      31.338 -13.518 197.754  0.00  0.00    +0.000 HD
ATOM     66  H   UNL     1      28.535 -14.587 201.827  0.00  0.00    +0.000 HD
ATOM     67  H   UNL     1      30.621 -15.548 199.576  0.00  0.00    +0.000 HD
ATOM     68  C   UNL     1      26.907  -5.787 202.066  0.00  0.00    +0.000 C 
ATOM     69  C   UNL     1      27.139  -4.442 201.664  0.00  0.00    +0.000 C 
ATOM     70  C   UNL     1      27.903  -4.451 200.400  0.00  0.00    +0.000 C 
ATOM     71  C   UNL     1      22.837  -9.586 203.095  0.00  0.00    +0.000 C 
ATOM     72  C   UNL     1      22.512  -8.677 202.178  0.00  0.00    +0.000 C 
ATOM     73  C   UNL     1      22.545 -10.940 203.285  0.00  0.00    +0.000 C 
ATOM     74  C   UNL     1      24.738 -15.299 204.927  0.00  0.00    +0.000 C 
ATOM     75  C   UNL     1      25.233 -16.341 205.699  0.00  0.00    +0.000 C 
ATOM     76  C   UNL     1      24.449 -17.660 205.866  0.00  0.00    +0.000 C 
ATOM     77  C   UNL     1      26.572 -16.587 205.459  0.00  0.00    +0.000 C 
ATOM     78  C   UNL     1      32.156  -9.664 193.904  0.00  0.00    +0.000 C 
ATOM     79  C   UNL     1      32.164  -9.662 192.574  0.00  0.00    +0.000 C 
ATOM     80  C   UNL     1      33.109  -9.442 194.899  0.00  0.00    +0.000 C 
ATOM     81  C   UNL     1      31.580 -19.978 198.228  0.00  0.00    +0.000 C 
ATOM     82  C   UNL     1      31.620 -21.419 197.840  0.00  0.00    +0.000 C 
ATOM     83  C   UNL     1      31.551 -19.568 199.583  0.00  0.00    +0.000 C 
ENDROOT
BRANCH  69  84
ATOM     84  C   UNL     1      27.049  -3.298 202.490  0.00  0.00    +0.000 C 
ATOM     85  C   UNL     1      26.977  -2.329 203.198  0.00  0.00    +0.000 C 
BRANCH  85  86
ATOM     86  C   UNL     1      26.888  -1.097 204.103  0.00  0.00    +0.000 C 
ATOM     87  C   UNL     1      26.816  -0.026 204.892  0.00  0.00    +0.000 C 
ENDBRANCH  85  86
ENDBRANCH  69  84
BRANCH  13  88
ATOM     88  C   UNL     1      27.112  -9.385 201.767  0.00  0.00    +0.000 C 
BRANCH  88  89
ATOM     89  O   UNL     1      26.998 -10.575 201.192  0.00  0.00    +0.000 OA
ATOM     90  H   UNL     1      27.866 -10.871 200.864  0.00  0.00    +0.000 HD
ENDBRANCH  88  89
ENDBRANCH  13  88
TORSDOF 4
ENDMDL
MODEL 9
REMARK VINA RESULT:      -9.4     31.086     37.182
REMARK  Name = Cyclosporin_A.pdbqt.pdb
REMARK  4 active torsions:
REMARK  status: ('A' for Active; 'I' for Inactive)
REMARK    1  A    between atoms: N_13  and  C_36
REMARK    2  A    between atoms: C_36  and  O_70
REMARK    3  A    between atoms: C_72  and  C_73
REMARK    4  A    between atoms: C_75  and  C_76
REMARK                            x       y       z     vdW  Elec       q    Type
REMARK                         _______ _______ _______ _____ _____    ______ ____
ROOT
ATOM      1  O   UNL     1      49.473 -26.772 186.738  0.00  0.00    +0.000 OA
ATOM      2  O   UNL     1      54.380 -26.313 185.317  0.00  0.00    +0.000 OA
ATOM      3  O   UNL     1      54.516 -21.759 183.848  0.00  0.00    +0.000 OA
ATOM      4  O   UNL     1      46.057 -24.256 184.286  0.00  0.00    +0.000 OA
ATOM      5  O   UNL     1      55.428 -23.714 188.438  0.00  0.00    +0.000 OA
ATOM      6  O   UNL     1      49.500 -15.075 192.600  0.00  0.00    +0.000 OA
ATOM      7  O   UNL     1      45.669 -24.531 189.842  0.00  0.00    +0.000 OA
ATOM      8  O   UNL     1      46.093 -16.459 189.322  0.00  0.00    +0.000 OA
ATOM      9  O   UNL     1      54.077 -16.534 191.969  0.00  0.00    +0.000 OA
ATOM     10  O   UNL     1      44.545 -20.247 189.677  0.00  0.00    +0.000 OA
ATOM     11  O   UNL     1      54.376 -20.810 191.486  0.00  0.00    +0.000 OA
ATOM     12  N   UNL     1      52.530 -25.765 185.475  0.00  0.00    +0.000 NA
ATOM     13  N   UNL     1      49.590 -24.774 185.403  0.00  0.00    +0.000 NA
ATOM     14  N   UNL     1      54.745 -23.616 184.509  0.00  0.00    +0.000 NA
ATOM     15  N   UNL     1      55.370 -21.625 186.909  0.00  0.00    +0.000 NA
ATOM     16  N   UNL     1      46.967 -23.511 186.423  0.00  0.00    +0.000 NA
ATOM     17  N   UNL     1      50.700 -15.347 190.593  0.00  0.00    +0.000 N 
ATOM     18  N   UNL     1      48.243 -17.132 189.956  0.00  0.00    +0.000 N 
ATOM     19  N   UNL     1      46.218 -19.209 189.803  0.00  0.00    +0.000 NA
ATOM     20  N   UNL     1      47.109 -22.828 189.394  0.00  0.00    +0.000 NA
ATOM     21  N   UNL     1      53.582 -20.763 189.135  0.00  0.00    +0.000 NA
ATOM     22  N   UNL     1      52.432 -17.911 190.859  0.00  0.00    +0.000 NA
ATOM     23  C   UNL     1      51.555 -26.144 186.351  0.00  0.00    +0.000 C 
ATOM     24  C   UNL     1      53.507 -24.031 184.792  0.00  0.00    +0.000 C 
ATOM     25  C   UNL     1      48.336 -24.881 184.834  0.00  0.00    +0.000 C 
ATOM     26  C   UNL     1      51.599 -27.320 187.077  0.00  0.00    +0.000 C 
ATOM     27  C   UNL     1      52.891 -23.657 183.499  0.00  0.00    +0.000 C 
ATOM     28  C   UNL     1      50.244 -25.789 186.109  0.00  0.00    +0.000 C 
ATOM     29  C   UNL     1      53.784 -25.183 185.446  0.00  0.00    +0.000 C 
ATOM     30  C   UNL     1      55.697 -22.405 185.916  0.00  0.00    +0.000 C 
ATOM     31  C   UNL     1      54.707 -22.366 184.980  0.00  0.00    +0.000 C 
ATOM     32  C   UNL     1      47.202 -23.945 185.101  0.00  0.00    +0.000 C 
ATOM     33  C   UNL     1      52.770 -27.918 186.516  0.00  0.00    +0.000 C 
ATOM     34  C   UNL     1      50.326 -27.781 187.140  0.00  0.00    +0.000 C 
ATOM     35  C   UNL     1      53.279 -26.899 185.726  0.00  0.00    +0.000 C 
ATOM     36  C   UNL     1      54.465 -23.034 183.242  0.00  0.00    +0.000 C 
ATOM     37  C   UNL     1      46.149 -24.176 187.370  0.00  0.00    +0.000 C 
ATOM     38  C   UNL     1      48.448 -16.375 191.080  0.00  0.00    +0.000 A 
ATOM     39  C   UNL     1      54.944 -22.590 187.718  0.00  0.00    +0.000 C 
ATOM     40  C   UNL     1      51.992 -15.588 191.126  0.00  0.00    +0.000 C 
ATOM     41  C   UNL     1      46.407 -18.361 188.763  0.00  0.00    +0.000 C 
ATOM     42  C   UNL     1      56.792 -21.210 187.018  0.00  0.00    +0.000 C 
ATOM     43  C   UNL     1      47.611 -16.205 192.226  0.00  0.00    +0.000 A 
ATOM     44  C   UNL     1      52.501 -13.873 191.413  0.00  0.00    +0.000 C 
ATOM     45  C   UNL     1      54.173 -21.857 188.763  0.00  0.00    +0.000 C 
ATOM     46  C   UNL     1      45.207 -17.453 188.803  0.00  0.00    +0.000 C 
ATOM     47  C   UNL     1      45.313 -25.180 186.795  0.00  0.00    +0.000 C 
ATOM     48  C   UNL     1      49.595 -15.635 191.348  0.00  0.00    +0.000 A 
ATOM     49  C   UNL     1      46.268 -23.900 188.693  0.00  0.00    +0.000 C 
ATOM     50  C   UNL     1      47.072 -17.318 189.389  0.00  0.00    +0.000 C 
ATOM     51  C   UNL     1      52.800 -16.676 191.358  0.00  0.00    +0.000 C 
ATOM     52  C   UNL     1      46.517 -21.504 189.185  0.00  0.00    +0.000 C 
ATOM     53  C   UNL     1      46.278 -16.836 192.530  0.00  0.00    +0.000 C 
ATOM     54  C   UNL     1      48.290 -15.418 193.120  0.00  0.00    +0.000 A 
ATOM     55  C   UNL     1      45.794 -20.288 189.073  0.00  0.00    +0.000 C 
ATOM     56  C   UNL     1      53.104 -19.008 191.000  0.00  0.00    +0.000 C 
ATOM     57  C   UNL     1      54.733 -23.022 189.212  0.00  0.00    +0.000 C 
ATOM     58  C   UNL     1      51.281 -14.154 190.853  0.00  0.00    +0.000 C 
ATOM     59  C   UNL     1      45.052 -25.740 185.768  0.00  0.00    +0.000 C 
ATOM     60  C   UNL     1      53.634 -20.280 190.367  0.00  0.00    +0.000 C 
ATOM     61  C   UNL     1      44.725 -18.870 190.136  0.00  0.00    +0.000 C 
ATOM     62  C   UNL     1      46.417 -23.612 190.198  0.00  0.00    +0.000 C 
ATOM     63  C   UNL     1      53.884 -19.726 191.843  0.00  0.00    +0.000 C 
ATOM     64  H   UNL     1      47.835 -23.226 186.879  0.00  0.00    +0.000 HD
ATOM     65  H   UNL     1      49.004 -17.751 189.687  0.00  0.00    +0.000 HD
ATOM     66  H   UNL     1      53.280 -20.127 188.401  0.00  0.00    +0.000 HD
ATOM     67  H   UNL     1      51.797 -17.813 190.072  0.00  0.00    +0.000 HD
ATOM     68  C   UNL     1      47.889 -25.994 184.320  0.00  0.00    +0.000 C 
ATOM     69  C   UNL     1      46.616 -26.562 184.035  0.00  0.00    +0.000 C 
ATOM     70  C   UNL     1      45.568 -25.603 184.438  0.00  0.00    +0.000 C 
ATOM     71  C   UNL     1      52.732 -24.268 181.949  0.00  0.00    +0.000 C 
ATOM     72  C   UNL     1      51.668 -24.156 181.156  0.00  0.00    +0.000 C 
ATOM     73  C   UNL     1      53.906 -23.532 182.132  0.00  0.00    +0.000 C 
ATOM     74  C   UNL     1      57.103 -21.982 185.857  0.00  0.00    +0.000 C 
ATOM     75  C   UNL     1      58.107 -21.900 186.812  0.00  0.00    +0.000 C 
ATOM     76  C   UNL     1      59.433 -21.164 186.524  0.00  0.00    +0.000 C 
ATOM     77  C   UNL     1      57.620 -21.573 188.064  0.00  0.00    +0.000 C 
ATOM     78  C   UNL     1      43.674 -17.327 188.360  0.00  0.00    +0.000 C 
ATOM     79  C   UNL     1      42.869 -16.315 188.046  0.00  0.00    +0.000 C 
ATOM     80  C   UNL     1      43.751 -18.240 189.413  0.00  0.00    +0.000 C 
ATOM     81  C   UNL     1      53.718 -13.927 191.960  0.00  0.00    +0.000 C 
ATOM     82  C   UNL     1      54.479 -12.698 192.334  0.00  0.00    +0.000 C 
ATOM     83  C   UNL     1      54.258 -15.225 192.136  0.00  0.00    +0.000 C 
ENDROOT
BRANCH  69  84
ATOM     84  C   UNL     1      46.347 -27.933 183.808  0.00  0.00    +0.000 C 
ATOM     85  C   UNL     1      46.111 -29.094 183.615  0.00  0.00    +0.000 C 
BRANCH  85  86
ATOM     86  C   UNL     1      45.805 -30.575 183.369  0.00  0.00    +0.000 C 
ATOM     87  C   UNL     1      45.540 -31.862 183.151  0.00  0.00    +0.000 C 
ENDBRANCH  85  86
ENDBRANCH  69  84
BRANCH  13  88
ATOM     88  C   UNL     1      50.149 -23.436 185.515  0.00  0.00    +0.000 C 
BRANCH  88  89
ATOM     89  O   UNL     1      50.641 -22.208 185.603  0.00  0.00    +0.000 OA
ATOM     90  H   UNL     1      50.241 -21.742 186.359  0.00  0.00    +0.000 HD
ENDBRANCH  88  89
ENDBRANCH  13  88
TORSDOF 4
ENDMDL
