MODEL 1
REMARK VINA RESULT:      -6.1      0.000      0.000
REMARK  Name = CyclosporineA.pdb
REMARK  40 active torsions:
REMARK  status: ('A' for Active; 'I' for Inactive)
REMARK    1  A    between atoms: C1_1  and  C78_78
REMARK    2  A    between atoms: N7_7  and  C8_8
REMARK    3  A    between atoms: C9_9  and  C15_15
REMARK    4  A    between atoms: N11_11  and  C20_20
REMARK    5  A    between atoms: C12_12  and  C21_21
REMARK    6  A    between atoms: N14_14  and  C23_23
REMARK    7  A    between atoms: C15_15  and  C16_16
REMARK    8  A    between atoms: C16_16  and  C17_17
REMARK    9  A    between atoms: C16_16  and  C18_18
REMARK   10  A    between atoms: C21_21  and  C82_82
REMARK   11  A    between atoms: C24_24  and  C25_25
REMARK   12  A    between atoms: C25_25  and  C30_30
REMARK   13  A    between atoms: C25_25  and  C31_31
REMARK   14  A    between atoms: C26_26  and  O27_27
REMARK   15  A    between atoms: N28_28  and  C29_29
REMARK   16  A    between atoms: C32_32  and  C34_34
REMARK   17  A    between atoms: C34_34  and  C35_35
REMARK   18  A    between atoms: C34_34  and  O40_40
REMARK   19  A    between atoms: C35_35  and  C36_36
REMARK   20  A    between atoms: C35_35  and  C41_41
REMARK   21  A    between atoms: C36_36  and  C37_37
REMARK   22  A    between atoms: C38_38  and  C39_39
REMARK   23  A    between atoms: C44_44  and  C45_45
REMARK   24  A    between atoms: C45_45  and  C46_46
REMARK   25  A    between atoms: N49_49  and  C77_77
REMARK   26  A    between atoms: C53_53  and  C57_57
REMARK   27  A    between atoms: C57_57  and  C58_58
REMARK   28  A    between atoms: C58_58  and  C59_59
REMARK   29  A    between atoms: C58_58  and  C76_76
REMARK   30  A    between atoms: C61_61  and  C62_62
REMARK   31  A    between atoms: C62_62  and  C63_63
REMARK   32  A    between atoms: C62_62  and  C64_64
REMARK   33  A    between atoms: N66_66  and  C68_68
REMARK   34  A    between atoms: C67_67  and  C75_75
REMARK   35  A    between atoms: C73_73  and  C74_74
REMARK   36  A    between atoms: C75_75  and  C79_79
REMARK   37  A    between atoms: C79_79  and  C80_80
REMARK   38  A    between atoms: C79_79  and  C81_81
REMARK   39  A    between atoms: C82_82  and  C83_83
REMARK   40  A    between atoms: C82_82  and  C84_84
REMARK                            x       y       z     vdW  Elec       q    Type
REMARK                         _______ _______ _______ _____ _____    ______ ____
ROOT
ATOM      1  C1  UNK     0      31.960   3.655 202.812  0.00  0.00    +0.000 C 
ATOM      2  C2  UNK     0      33.081   3.875 201.757  0.00  0.00    +0.000 C 
ATOM      3  N3  UNK     0      30.938   2.857 202.153  0.00  0.00    +0.000 N 
ATOM      4  C4  UNK     0      30.067   2.035 202.826  0.00  0.00    +0.000 C 
ATOM      5  O5  UNK     0      30.138   1.834 204.037  0.00  0.00    +0.000 OA
ATOM      6  C6  UNK     0      33.160   5.071 201.140  0.00  0.00    +0.000 C 
ATOM      7  N7  UNK     0      33.958   2.784 201.464  0.00  0.00    +0.000 N 
ATOM      8  C8  UNK     0      33.879   1.521 202.222  0.00  0.00    +0.000 C 
ATOM      9  C9  UNK     0      34.990   2.838 200.364  0.00  0.00    +0.000 C 
ATOM     10  C10 UNK     0      34.356   2.476 198.974  0.00  0.00    +0.000 C 
ATOM     11  N11 UNK     0      34.844   3.135 197.803  0.00  0.00    +0.000 N 
ATOM     12  C12 UNK     0      34.032   3.273 196.550  0.00  0.00    +0.000 C 
ATOM     13  C13 UNK     0      34.597   2.368 195.406  0.00  0.00    +0.000 C 
ATOM     14  N14 UNK     0      34.343   2.768 194.067  0.00  0.00    +0.000 N 
ATOM     15  C19 UNK     0      33.357   1.571 198.912  0.00  0.00    +0.000 C 
ATOM     16  C20 UNK     0      36.146   3.818 197.774  0.00  0.00    +0.000 C 
ATOM     17  C22 UNK     0      35.351   1.281 195.663  0.00  0.00    +0.000 C 
ATOM     18  C23 UNK     0      35.562   3.310 193.394  0.00  0.00    +0.000 C 
ATOM     19  C24 UNK     0      33.516   1.869 193.138  0.00  0.00    +0.000 C 
ATOM     20  C26 UNK     0      33.216   2.655 191.772  0.00  0.00    +0.000 C 
ATOM     21  N28 UNK     0      32.277   1.967 190.883  0.00  0.00    +0.000 NA
ATOM     22  C29 UNK     0      32.967   0.961 190.068  0.00  0.00    +0.000 C 
ATOM     23  C32 UNK     0      31.391   2.857 190.063  0.00  0.00    +0.000 C 
ATOM     24  C33 UNK     0      30.196   1.969 189.621  0.00  0.00    +0.000 C 
ATOM     25  O42 UNK     0      29.946   1.671 188.459  0.00  0.00    +0.000 OA
ATOM     26  N43 UNK     0      29.472   1.516 190.709  0.00  0.00    +0.000 N 
ATOM     27  C44 UNK     0      28.301   0.671 190.593  0.00  0.00    +0.000 C 
ATOM     28  C47 UNK     0      27.089   1.542 190.181  0.00  0.00    +0.000 C 
ATOM     29  C48 UNK     0      26.491   1.194 189.023  0.00  0.00    +0.000 C 
ATOM     30  N49 UNK     0      26.634   2.643 190.954  0.00  0.00    +0.000 N 
ATOM     31  C50 UNK     0      27.280   3.166 192.191  0.00  0.00    +0.000 C 
ATOM     32  C51 UNK     0      26.329   3.098 193.400  0.00  0.00    +0.000 C 
ATOM     33  N52 UNK     0      25.383   2.098 193.306  0.00  0.00    +0.000 N 
ATOM     34  C53 UNK     0      24.571   1.696 194.445  0.00  0.00    +0.000 C 
ATOM     35  C54 UNK     0      25.445   0.817 195.378  0.00  0.00    +0.000 C 
ATOM     36  N55 UNK     0      24.969   0.735 196.673  0.00  0.00    +0.000 N 
ATOM     37  O56 UNK     0      26.431   3.833 194.379  0.00  0.00    +0.000 OA
ATOM     38  O60 UNK     0      26.435   0.211 194.981  0.00  0.00    +0.000 OA
ATOM     39  C61 UNK     0      25.691   0.079 197.773  0.00  0.00    +0.000 C 
ATOM     40  C65 UNK     0      26.795   1.063 198.263  0.00  0.00    +0.000 C 
ATOM     41  N66 UNK     0      26.380   2.300 198.795  0.00  0.00    +0.000 N 
ATOM     42  C67 UNK     0      27.465   3.255 199.169  0.00  0.00    +0.000 C 
ATOM     43  C68 UNK     0      25.105   2.442 199.499  0.00  0.00    +0.000 C 
ATOM     44  O69 UNK     0      27.996   0.775 198.213  0.00  0.00    +0.000 OA
ATOM     45  C70 UNK     0      27.923   2.889 200.601  0.00  0.00    +0.000 C 
ATOM     46  N71 UNK     0      28.855   1.868 200.642  0.00  0.00    +0.000 N 
ATOM     47  O72 UNK     0      27.424   3.377 201.612  0.00  0.00    +0.000 OA
ATOM     48  C73 UNK     0      29.153   1.195 201.909  0.00  0.00    +0.000 C 
ATOM     49  C74 UNK     0      29.844  -0.138 201.637  0.00  0.00    +0.000 C 
ATOM     50  C77 UNK     0      25.613   3.571 190.428  0.00  0.00    +0.000 C 
ATOM     51  C78 UNK     0      31.331   4.906 203.438  0.00  0.00    +0.000 C 
ATOM     52  H2  UNK     0      30.831   2.951 201.151  0.00  0.00    +0.000 HD
ATOM     53  H58 UNK     0      29.932   1.596 191.606  0.00  0.00    +0.000 HD
ATOM     54  H69 UNK     0      25.557   1.432 192.557  0.00  0.00    +0.000 HD
ATOM     55  H71 UNK     0      24.326   1.466 196.943  0.00  0.00    +0.000 HD
ATOM     56  H90 UNK     0      28.920   1.314 199.785  0.00  0.00    +0.000 HD
ENDROOT
BRANCH  39  57
ATOM     57  C62 UNK     0      26.208  -1.354 197.475  0.00  0.00    +0.000 C 
ATOM     58  C63 UNK     0      26.773  -2.006 198.748  0.00  0.00    +0.000 C 
ATOM     59  C64 UNK     0      25.096  -2.261 196.930  0.00  0.00    +0.000 C 
ENDBRANCH  39  57
BRANCH  19  60
ATOM     60  C25 UNK     0      32.172   1.333 193.758  0.00  0.00    +0.000 C 
ATOM     61  C30 UNK     0      32.309   0.046 194.576  0.00  0.00    +0.000 C 
ATOM     62  C31 UNK     0      31.332   2.365 194.516  0.00  0.00    +0.000 C 
ENDBRANCH  19  60
BRANCH  20  63
ATOM     63  O27 UNK     0      32.769   3.980 192.083  0.00  0.00    +0.000 OA
ATOM     64  H34 UNK     0      31.839   3.997 191.775  0.00  0.00    +0.000 HD
ENDBRANCH  20  63
BRANCH  27  65
ATOM     65  C45 UNK     0      28.088  -0.169 191.864  0.00  0.00    +0.000 C 
ATOM     66  C46 UNK     0      29.388  -0.580 192.541  0.00  0.00    +0.000 C 
ENDBRANCH  27  65
BRANCH  23  67
ATOM     67  C34 UNK     0      32.032   3.622 188.863  0.00  0.00    +0.000 C 
BRANCH  67  68
ATOM     68  C35 UNK     0      31.452   5.046 188.600  0.00  0.00    +0.000 C 
ATOM     69  C41 UNK     0      31.122   5.843 189.866  0.00  0.00    +0.000 C 
BRANCH  68  70
ATOM     70  C36 UNK     0      30.200   4.932 187.689  0.00  0.00    +0.000 C 
BRANCH  70  71
ATOM     71  C37 UNK     0      30.157   5.960 186.589  0.00  0.00    +0.000 C 
ATOM     72  C38 UNK     0      30.822   5.844 185.430  0.00  0.00    +0.000 C 
ATOM     73  C39 UNK     0      30.790   6.865 184.341  0.00  0.00    +0.000 C 
ENDBRANCH  70  71
ENDBRANCH  68  70
ENDBRANCH  67  68
BRANCH  67  74
ATOM     74  O40 UNK     0      33.445   3.810 189.106  0.00  0.00    +0.000 OA
ATOM     75  H54 UNK     0      33.514   4.647 189.608  0.00  0.00    +0.000 HD
ENDBRANCH  67  74
ENDBRANCH  23  67
BRANCH  34  76
ATOM     76  C57 UNK     0      23.340   0.930 193.936  0.00  0.00    +0.000 C 
BRANCH  76  77
ATOM     77  C58 UNK     0      23.500  -0.593 193.761  0.00  0.00    +0.000 C 
ATOM     78  C59 UNK     0      22.347  -1.381 194.384  0.00  0.00    +0.000 C 
ATOM     79  C76 UNK     0      23.602  -0.929 192.268  0.00  0.00    +0.000 C 
ENDBRANCH  76  77
ENDBRANCH  34  76
BRANCH  12  80
ATOM     80  C21 UNK     0      33.884   4.764 196.127  0.00  0.00    +0.000 C 
BRANCH  80  81
ATOM     81  C82 UNK     0      32.641   5.493 196.675  0.00  0.00    +0.000 C 
ATOM     82  C83 UNK     0      31.810   4.612 197.606  0.00  0.00    +0.000 C 
ATOM     83  C84 UNK     0      31.769   5.970 195.509  0.00  0.00    +0.000 C 
ENDBRANCH  80  81
ENDBRANCH  12  80
BRANCH  42  84
ATOM     84  C75 UNK     0      27.012   4.724 199.045  0.00  0.00    +0.000 C 
BRANCH  84  85
ATOM     85  C79 UNK     0      27.905   5.596 198.138  0.00  0.00    +0.000 C 
ATOM     86  C80 UNK     0      28.620   4.793 197.051  0.00  0.00    +0.000 C 
ATOM     87  C81 UNK     0      28.942   6.332 198.992  0.00  0.00    +0.000 C 
ENDBRANCH  84  85
ENDBRANCH  42  84
BRANCH   9  88
ATOM     88  C15 UNK     0      36.289   2.029 200.653  0.00  0.00    +0.000 C 
BRANCH  88  89
ATOM     89  C16 UNK     0      37.337   2.809 201.482  0.00  0.00    +0.000 C 
ATOM     90  C17 UNK     0      37.781   2.066 202.740  0.00  0.00    +0.000 C 
ATOM     91  C18 UNK     0      38.558   3.120 200.612  0.00  0.00    +0.000 C 
ENDBRANCH  88  89
ENDBRANCH   9  88
TORSDOF 17
ENDMDL
MODEL 2
REMARK VINA RESULT:      -6.0     34.171     39.491
REMARK  Name = CyclosporineA.pdb
REMARK  40 active torsions:
REMARK  status: ('A' for Active; 'I' for Inactive)
REMARK    1  A    between atoms: C1_1  and  C78_78
REMARK    2  A    between atoms: N7_7  and  C8_8
REMARK    3  A    between atoms: C9_9  and  C15_15
REMARK    4  A    between atoms: N11_11  and  C20_20
REMARK    5  A    between atoms: C12_12  and  C21_21
REMARK    6  A    between atoms: N14_14  and  C23_23
REMARK    7  A    between atoms: C15_15  and  C16_16
REMARK    8  A    between atoms: C16_16  and  C17_17
REMARK    9  A    between atoms: C16_16  and  C18_18
REMARK   10  A    between atoms: C21_21  and  C82_82
REMARK   11  A    between atoms: C24_24  and  C25_25
REMARK   12  A    between atoms: C25_25  and  C30_30
REMARK   13  A    between atoms: C25_25  and  C31_31
REMARK   14  A    between atoms: C26_26  and  O27_27
REMARK   15  A    between atoms: N28_28  and  C29_29
REMARK   16  A    between atoms: C32_32  and  C34_34
REMARK   17  A    between atoms: C34_34  and  C35_35
REMARK   18  A    between atoms: C34_34  and  O40_40
REMARK   19  A    between atoms: C35_35  and  C36_36
REMARK   20  A    between atoms: C35_35  and  C41_41
REMARK   21  A    between atoms: C36_36  and  C37_37
REMARK   22  A    between atoms: C38_38  and  C39_39
REMARK   23  A    between atoms: C44_44  and  C45_45
REMARK   24  A    between atoms: C45_45  and  C46_46
REMARK   25  A    between atoms: N49_49  and  C77_77
REMARK   26  A    between atoms: C53_53  and  C57_57
REMARK   27  A    between atoms: C57_57  and  C58_58
REMARK   28  A    between atoms: C58_58  and  C59_59
REMARK   29  A    between atoms: C58_58  and  C76_76
REMARK   30  A    between atoms: C61_61  and  C62_62
REMARK   31  A    between atoms: C62_62  and  C63_63
REMARK   32  A    between atoms: C62_62  and  C64_64
REMARK   33  A    between atoms: N66_66  and  C68_68
REMARK   34  A    between atoms: C67_67  and  C75_75
REMARK   35  A    between atoms: C73_73  and  C74_74
REMARK   36  A    between atoms: C75_75  and  C79_79
REMARK   37  A    between atoms: C79_79  and  C80_80
REMARK   38  A    between atoms: C79_79  and  C81_81
REMARK   39  A    between atoms: C82_82  and  C83_83
REMARK   40  A    between atoms: C82_82  and  C84_84
REMARK                            x       y       z     vdW  Elec       q    Type
REMARK                         _______ _______ _______ _____ _____    ______ ____
ROOT
ATOM      1  C1  UNK     0      36.365 -29.737 176.125  0.00  0.00    +0.000 C 
ATOM      2  C2  UNK     0      35.633 -29.867 174.761  0.00  0.00    +0.000 C 
ATOM      3  N3  UNK     0      37.113 -28.491 176.063  0.00  0.00    +0.000 N 
ATOM      4  C4  UNK     0      37.463 -27.760 177.173  0.00  0.00    +0.000 C 
ATOM      5  O5  UNK     0      37.094 -28.052 178.309  0.00  0.00    +0.000 OA
ATOM      6  C6  UNK     0      36.131 -30.717 173.840  0.00  0.00    +0.000 C 
ATOM      7  N7  UNK     0      34.479 -29.053 174.530  0.00  0.00    +0.000 N 
ATOM      8  C8  UNK     0      33.929 -28.197 175.599  0.00  0.00    +0.000 C 
ATOM      9  C9  UNK     0      33.772 -28.995 173.198  0.00  0.00    +0.000 C 
ATOM     10  C10 UNK     0      34.471 -27.975 172.230  0.00  0.00    +0.000 C 
ATOM     11  N11 UNK     0      34.499 -28.265 170.830  0.00  0.00    +0.000 N 
ATOM     12  C12 UNK     0      35.524 -27.685 169.901  0.00  0.00    +0.000 C 
ATOM     13  C13 UNK     0      34.884 -26.629 168.941  0.00  0.00    +0.000 C 
ATOM     14  N14 UNK     0      35.518 -26.412 167.689  0.00  0.00    +0.000 N 
ATOM     15  C19 UNK     0      35.044 -26.862 172.734  0.00  0.00    +0.000 C 
ATOM     16  C20 UNK     0      33.585 -29.237 170.214  0.00  0.00    +0.000 C 
ATOM     17  C22 UNK     0      33.740 -25.986 169.249  0.00  0.00    +0.000 C 
ATOM     18  C23 UNK     0      34.746 -26.997 166.551  0.00  0.00    +0.000 C 
ATOM     19  C24 UNK     0      36.102 -25.033 167.349  0.00  0.00    +0.000 C 
ATOM     20  C26 UNK     0      36.928 -25.132 165.979  0.00  0.00    +0.000 C 
ATOM     21  N28 UNK     0      37.686 -23.923 165.651  0.00  0.00    +0.000 NA
ATOM     22  C29 UNK     0      36.833 -22.936 164.981  0.00  0.00    +0.000 C 
ATOM     23  C32 UNK     0      38.980 -24.145 164.927  0.00  0.00    +0.000 C 
ATOM     24  C33 UNK     0      39.809 -22.849 165.141  0.00  0.00    +0.000 C 
ATOM     25  O42 UNK     0      40.142 -22.083 164.243  0.00  0.00    +0.000 OA
ATOM     26  N43 UNK     0      40.089 -22.641 166.479  0.00  0.00    +0.000 N 
ATOM     27  C44 UNK     0      40.851 -21.511 166.970  0.00  0.00    +0.000 C 
ATOM     28  C47 UNK     0      42.357 -21.772 166.723  0.00  0.00    +0.000 C 
ATOM     29  C48 UNK     0      42.985 -20.861 165.950  0.00  0.00    +0.000 C 
ATOM     30  N49 UNK     0      43.040 -22.897 167.256  0.00  0.00    +0.000 N 
ATOM     31  C50 UNK     0      42.421 -24.004 168.037  0.00  0.00    +0.000 C 
ATOM     32  C51 UNK     0      43.029 -24.114 169.447  0.00  0.00    +0.000 C 
ATOM     33  N52 UNK     0      43.524 -22.922 169.932  0.00  0.00    +0.000 N 
ATOM     34  C53 UNK     0      43.892 -22.752 171.330  0.00  0.00    +0.000 C 
ATOM     35  C54 UNK     0      42.592 -22.578 172.157  0.00  0.00    +0.000 C 
ATOM     36  N55 UNK     0      42.748 -22.845 173.504  0.00  0.00    +0.000 N 
ATOM     37  O56 UNK     0      43.031 -25.155 170.100  0.00  0.00    +0.000 OA
ATOM     38  O60 UNK     0      41.540 -22.186 171.662  0.00  0.00    +0.000 OA
ATOM     39  C61 UNK     0      41.637 -22.885 174.467  0.00  0.00    +0.000 C 
ATOM     40  C65 UNK     0      40.918 -24.257 174.298  0.00  0.00    +0.000 C 
ATOM     41  N66 UNK     0      41.663 -25.423 174.562  0.00  0.00    +0.000 N 
ATOM     42  C67 UNK     0      40.972 -26.721 174.302  0.00  0.00    +0.000 C 
ATOM     43  C68 UNK     0      42.740 -25.437 175.553  0.00  0.00    +0.000 C 
ATOM     44  O69 UNK     0      39.731 -24.336 173.965  0.00  0.00    +0.000 OA
ATOM     45  C70 UNK     0      40.149 -27.062 175.567  0.00  0.00    +0.000 C 
ATOM     46  N71 UNK     0      38.909 -26.450 175.605  0.00  0.00    +0.000 N 
ATOM     47  O72 UNK     0      40.595 -27.722 176.503  0.00  0.00    +0.000 OA
ATOM     48  C73 UNK     0      38.145 -26.413 176.854  0.00  0.00    +0.000 C 
ATOM     49  C74 UNK     0      37.065 -25.339 176.769  0.00  0.00    +0.000 C 
ATOM     50  C77 UNK     0      44.416 -23.222 166.831  0.00  0.00    +0.000 C 
ATOM     51  C78 UNK     0      37.292 -30.888 176.537  0.00  0.00    +0.000 C 
ATOM     52  H2  UNK     0      37.435 -28.171 175.158  0.00  0.00    +0.000 HD
ATOM     53  H58 UNK     0      39.533 -23.178 167.132  0.00  0.00    +0.000 HD
ATOM     54  H69 UNK     0      43.255 -22.108 169.384  0.00  0.00    +0.000 HD
ATOM     55  H71 UNK     0      43.557 -23.402 173.742  0.00  0.00    +0.000 HD
ATOM     56  H90 UNK     0      38.802 -25.663 174.961  0.00  0.00    +0.000 HD
ENDROOT
BRANCH  39  57
ATOM     57  C62 UNK     0      40.682 -21.663 174.440  0.00  0.00    +0.000 C 
ATOM     58  C63 UNK     0      39.631 -21.766 175.557  0.00  0.00    +0.000 C 
ATOM     59  C64 UNK     0      41.440 -20.340 174.621  0.00  0.00    +0.000 C 
ENDBRANCH  39  57
BRANCH  19  60
ATOM     60  C25 UNK     0      36.999 -24.398 168.476  0.00  0.00    +0.000 C 
ATOM     61  C30 UNK     0      36.237 -23.571 169.515  0.00  0.00    +0.000 C 
ATOM     62  C31 UNK     0      37.980 -25.352 169.162  0.00  0.00    +0.000 C 
ENDBRANCH  19  60
BRANCH  20  63
ATOM     63  O27 UNK     0      37.778 -26.286 166.027  0.00  0.00    +0.000 OA
ATOM     64  H34 UNK     0      38.530 -26.006 166.590  0.00  0.00    +0.000 HD
ENDBRANCH  20  63
BRANCH  27  65
ATOM     65  C45 UNK     0      40.486 -21.178 168.427  0.00  0.00    +0.000 C 
ATOM     66  C46 UNK     0      38.986 -21.178 168.688  0.00  0.00    +0.000 C 
ENDBRANCH  27  65
BRANCH  23  67
ATOM     67  C34 UNK     0      38.916 -24.562 163.425  0.00  0.00    +0.000 C 
BRANCH  67  68
ATOM     68  C35 UNK     0      40.291 -24.915 162.776  0.00  0.00    +0.000 C 
ATOM     69  C41 UNK     0      40.197 -25.792 161.524  0.00  0.00    +0.000 C 
BRANCH  68  70
ATOM     70  C36 UNK     0      41.204 -25.583 163.839  0.00  0.00    +0.000 C 
BRANCH  70  71
ATOM     71  C37 UNK     0      42.602 -25.024 163.871  0.00  0.00    +0.000 C 
ATOM     72  C38 UNK     0      42.976 -23.905 163.232  0.00  0.00    +0.000 C 
ATOM     73  C39 UNK     0      44.363 -23.354 163.253  0.00  0.00    +0.000 C 
ENDBRANCH  70  71
ENDBRANCH  68  70
ENDBRANCH  67  68
BRANCH  67  74
ATOM     74  O40 UNK     0      38.097 -25.746 163.284  0.00  0.00    +0.000 OA
ATOM     75  H54 UNK     0      38.411 -26.363 163.976  0.00  0.00    +0.000 HD
ENDBRANCH  67  74
ENDBRANCH  23  67
BRANCH  34  76
ATOM     76  C57 UNK     0      44.814 -21.528 171.459  0.00  0.00    +0.000 C 
BRANCH  76  77
ATOM     77  C58 UNK     0      44.329 -20.397 172.388  0.00  0.00    +0.000 C 
ATOM     78  C59 UNK     0      45.483 -19.679 173.090  0.00  0.00    +0.000 C 
ATOM     79  C76 UNK     0      43.512 -19.383 171.578  0.00  0.00    +0.000 C 
ENDBRANCH  76  77
ENDBRANCH  34  76
BRANCH  12  80
ATOM     80  C21 UNK     0      36.303 -28.801 169.144  0.00  0.00    +0.000 C 
BRANCH  80  81
ATOM     81  C82 UNK     0      37.544 -29.357 169.869  0.00  0.00    +0.000 C 
ATOM     82  C83 UNK     0      37.362 -30.808 170.309  0.00  0.00    +0.000 C 
ATOM     83  C84 UNK     0      37.860 -28.487 171.090  0.00  0.00    +0.000 C 
ENDBRANCH  80  81
ENDBRANCH  12  80
BRANCH  42  84
ATOM     84  C75 UNK     0      41.964 -27.838 173.916  0.00  0.00    +0.000 C 
BRANCH  84  85
ATOM     85  C79 UNK     0      41.671 -28.515 172.560  0.00  0.00    +0.000 C 
ATOM     86  C80 UNK     0      41.077 -27.557 171.529  0.00  0.00    +0.000 C 
ATOM     87  C81 UNK     0      40.715 -29.693 172.770  0.00  0.00    +0.000 C 
ENDBRANCH  84  85
ENDBRANCH  42  84
BRANCH   9  88
ATOM     88  C15 UNK     0      32.234 -28.768 173.290  0.00  0.00    +0.000 C 
BRANCH  88  89
ATOM     89  C16 UNK     0      31.407 -30.075 173.240  0.00  0.00    +0.000 C 
ATOM     90  C17 UNK     0      31.507 -30.898 174.522  0.00  0.00    +0.000 C 
ATOM     91  C18 UNK     0      29.939 -29.748 172.953  0.00  0.00    +0.000 C 
ENDBRANCH  88  89
ENDBRANCH   9  88
TORSDOF 17
ENDMDL
MODEL 3
REMARK VINA RESULT:      -5.7     35.474     38.663
REMARK  Name = CyclosporineA.pdb
REMARK  40 active torsions:
REMARK  status: ('A' for Active; 'I' for Inactive)
REMARK    1  A    between atoms: C1_1  and  C78_78
REMARK    2  A    between atoms: N7_7  and  C8_8
REMARK    3  A    between atoms: C9_9  and  C15_15
REMARK    4  A    between atoms: N11_11  and  C20_20
REMARK    5  A    between atoms: C12_12  and  C21_21
REMARK    6  A    between atoms: N14_14  and  C23_23
REMARK    7  A    between atoms: C15_15  and  C16_16
REMARK    8  A    between atoms: C16_16  and  C17_17
REMARK    9  A    between atoms: C16_16  and  C18_18
REMARK   10  A    between atoms: C21_21  and  C82_82
REMARK   11  A    between atoms: C24_24  and  C25_25
REMARK   12  A    between atoms: C25_25  and  C30_30
REMARK   13  A    between atoms: C25_25  and  C31_31
REMARK   14  A    between atoms: C26_26  and  O27_27
REMARK   15  A    between atoms: N28_28  and  C29_29
REMARK   16  A    between atoms: C32_32  and  C34_34
REMARK   17  A    between atoms: C34_34  and  C35_35
REMARK   18  A    between atoms: C34_34  and  O40_40
REMARK   19  A    between atoms: C35_35  and  C36_36
REMARK   20  A    between atoms: C35_35  and  C41_41
REMARK   21  A    between atoms: C36_36  and  C37_37
REMARK   22  A    between atoms: C38_38  and  C39_39
REMARK   23  A    between atoms: C44_44  and  C45_45
REMARK   24  A    between atoms: C45_45  and  C46_46
REMARK   25  A    between atoms: N49_49  and  C77_77
REMARK   26  A    between atoms: C53_53  and  C57_57
REMARK   27  A    between atoms: C57_57  and  C58_58
REMARK   28  A    between atoms: C58_58  and  C59_59
REMARK   29  A    between atoms: C58_58  and  C76_76
REMARK   30  A    between atoms: C61_61  and  C62_62
REMARK   31  A    between atoms: C62_62  and  C63_63
REMARK   32  A    between atoms: C62_62  and  C64_64
REMARK   33  A    between atoms: N66_66  and  C68_68
REMARK   34  A    between atoms: C67_67  and  C75_75
REMARK   35  A    between atoms: C73_73  and  C74_74
REMARK   36  A    between atoms: C75_75  and  C79_79
REMARK   37  A    between atoms: C79_79  and  C80_80
REMARK   38  A    between atoms: C79_79  and  C81_81
REMARK   39  A    between atoms: C82_82  and  C83_83
REMARK   40  A    between atoms: C82_82  and  C84_84
REMARK                            x       y       z     vdW  Elec       q    Type
REMARK                         _______ _______ _______ _____ _____    ______ ____
ROOT
ATOM      1  C1  UNK     0      36.622 -31.609 179.132  0.00  0.00    +0.000 C 
ATOM      2  C2  UNK     0      38.076 -31.061 179.123  0.00  0.00    +0.000 C 
ATOM      3  N3  UNK     0      36.151 -31.522 177.759  0.00  0.00    +0.000 N 
ATOM      4  C4  UNK     0      35.170 -32.333 177.241  0.00  0.00    +0.000 C 
ATOM      5  O5  UNK     0      34.671 -33.264 177.870  0.00  0.00    +0.000 OA
ATOM      6  C6  UNK     0      38.297 -29.813 179.585  0.00  0.00    +0.000 C 
ATOM      7  N7  UNK     0      39.111 -31.894 178.594  0.00  0.00    +0.000 N 
ATOM      8  C8  UNK     0      38.830 -33.280 178.175  0.00  0.00    +0.000 C 
ATOM      9  C9  UNK     0      40.531 -31.417 178.410  0.00  0.00    +0.000 C 
ATOM     10  C10 UNK     0      40.697 -30.644 177.052  0.00  0.00    +0.000 C 
ATOM     11  N11 UNK     0      41.606 -29.543 176.995  0.00  0.00    +0.000 N 
ATOM     12  C12 UNK     0      41.490 -28.446 175.978  0.00  0.00    +0.000 C 
ATOM     13  C13 UNK     0      42.642 -28.527 174.923  0.00  0.00    +0.000 C 
ATOM     14  N14 UNK     0      43.021 -27.323 174.271  0.00  0.00    +0.000 N 
ATOM     15  C19 UNK     0      39.970 -31.020 175.979  0.00  0.00    +0.000 C 
ATOM     16  C20 UNK     0      42.665 -29.349 177.995  0.00  0.00    +0.000 C 
ATOM     17  C22 UNK     0      43.304 -29.676 174.677  0.00  0.00    +0.000 C 
ATOM     18  C23 UNK     0      44.337 -26.805 174.752  0.00  0.00    +0.000 C 
ATOM     19  C24 UNK     0      42.862 -27.188 172.751  0.00  0.00    +0.000 C 
ATOM     20  C26 UNK     0      43.166 -25.674 172.320  0.00  0.00    +0.000 C 
ATOM     21  N28 UNK     0      42.865 -25.381 170.917  0.00  0.00    +0.000 NA
ATOM     22  C29 UNK     0      43.979 -25.776 170.049  0.00  0.00    +0.000 C 
ATOM     23  C32 UNK     0      42.385 -23.988 170.634  0.00  0.00    +0.000 C 
ATOM     24  C33 UNK     0      41.670 -24.062 169.258  0.00  0.00    +0.000 C 
ATOM     25  O42 UNK     0      42.051 -23.483 168.247  0.00  0.00    +0.000 OA
ATOM     26  N43 UNK     0      40.571 -24.901 169.301  0.00  0.00    +0.000 N 
ATOM     27  C44 UNK     0      39.715 -25.155 168.161  0.00  0.00    +0.000 C 
ATOM     28  C47 UNK     0      38.757 -23.953 167.972  0.00  0.00    +0.000 C 
ATOM     29  C48 UNK     0      38.841 -23.326 166.780  0.00  0.00    +0.000 C 
ATOM     30  N49 UNK     0      37.856 -23.521 168.981  0.00  0.00    +0.000 N 
ATOM     31  C50 UNK     0      37.754 -24.081 170.357  0.00  0.00    +0.000 C 
ATOM     32  C51 UNK     0      36.354 -24.659 170.634  0.00  0.00    +0.000 C 
ATOM     33  N52 UNK     0      35.701 -25.095 169.501  0.00  0.00    +0.000 N 
ATOM     34  C53 UNK     0      34.495 -25.908 169.571  0.00  0.00    +0.000 C 
ATOM     35  C54 UNK     0      34.908 -27.361 169.925  0.00  0.00    +0.000 C 
ATOM     36  N55 UNK     0      33.880 -28.122 170.448  0.00  0.00    +0.000 N 
ATOM     37  O56 UNK     0      35.881 -24.764 171.763  0.00  0.00    +0.000 OA
ATOM     38  O60 UNK     0      36.033 -27.801 169.705  0.00  0.00    +0.000 OA
ATOM     39  C61 UNK     0      34.054 -29.479 170.987  0.00  0.00    +0.000 C 
ATOM     40  C65 UNK     0      34.656 -29.342 172.417  0.00  0.00    +0.000 C 
ATOM     41  N66 UNK     0      33.889 -28.669 173.388  0.00  0.00    +0.000 N 
ATOM     42  C67 UNK     0      34.533 -28.476 174.721  0.00  0.00    +0.000 C 
ATOM     43  C68 UNK     0      32.426 -28.690 173.360  0.00  0.00    +0.000 C 
ATOM     44  O69 UNK     0      35.756 -29.821 172.712  0.00  0.00    +0.000 OA
ATOM     45  C70 UNK     0      34.282 -29.764 175.541  0.00  0.00    +0.000 C 
ATOM     46  N71 UNK     0      35.195 -30.772 175.284  0.00  0.00    +0.000 N 
ATOM     47  O72 UNK     0      33.302 -29.921 176.264  0.00  0.00    +0.000 OA
ATOM     48  C73 UNK     0      34.923 -32.141 175.730  0.00  0.00    +0.000 C 
ATOM     49  C74 UNK     0      35.815 -33.118 174.971  0.00  0.00    +0.000 C 
ATOM     50  C77 UNK     0      37.112 -22.253 168.843  0.00  0.00    +0.000 C 
ATOM     51  C78 UNK     0      35.622 -30.930 180.077  0.00  0.00    +0.000 C 
ATOM     52  H2  UNK     0      36.530 -30.792 177.169  0.00  0.00    +0.000 HD
ATOM     53  H58 UNK     0      40.527 -25.525 170.096  0.00  0.00    +0.000 HD
ATOM     54  H69 UNK     0      36.294 -25.154 168.677  0.00  0.00    +0.000 HD
ATOM     55  H71 UNK     0      33.103 -27.595 170.824  0.00  0.00    +0.000 HD
ATOM     56  H90 UNK     0      35.732 -30.652 174.423  0.00  0.00    +0.000 HD
ENDROOT
BRANCH  39  57
ATOM     57  C62 UNK     0      34.821 -30.470 170.070  0.00  0.00    +0.000 C 
ATOM     58  C63 UNK     0      34.784 -31.892 170.654  0.00  0.00    +0.000 C 
ATOM     59  C64 UNK     0      34.224 -30.520 168.657  0.00  0.00    +0.000 C 
ENDBRANCH  39  57
BRANCH  19  60
ATOM     60  C25 UNK     0      41.461 -27.638 172.189  0.00  0.00    +0.000 C 
ATOM     61  C30 UNK     0      41.353 -29.127 171.848  0.00  0.00    +0.000 C 
ATOM     62  C31 UNK     0      40.243 -27.181 172.995  0.00  0.00    +0.000 C 
ENDBRANCH  19  60
BRANCH  20  63
ATOM     63  O27 UNK     0      42.467 -24.787 173.203  0.00  0.00    +0.000 OA
ATOM     64  H34 UNK     0      41.709 -24.467 172.670  0.00  0.00    +0.000 HD
ENDBRANCH  20  63
BRANCH  27  65
ATOM     65  C45 UNK     0      39.018 -26.522 168.276  0.00  0.00    +0.000 C 
ATOM     66  C46 UNK     0      39.526 -27.362 169.440  0.00  0.00    +0.000 C 
ENDBRANCH  27  65
BRANCH  23  67
ATOM     67  C34 UNK     0      43.428 -22.829 170.696  0.00  0.00    +0.000 C 
BRANCH  67  68
ATOM     68  C35 UNK     0      42.899 -21.496 171.310  0.00  0.00    +0.000 C 
ATOM     69  C41 UNK     0      43.033 -20.276 170.395  0.00  0.00    +0.000 C 
BRANCH  68  70
ATOM     70  C36 UNK     0      43.610 -21.237 172.666  0.00  0.00    +0.000 C 
BRANCH  70  71
ATOM     71  C37 UNK     0      44.548 -20.059 172.642  0.00  0.00    +0.000 C 
ATOM     72  C38 UNK     0      45.801 -20.089 173.120  0.00  0.00    +0.000 C 
ATOM     73  C39 UNK     0      46.730 -18.920 173.106  0.00  0.00    +0.000 C 
ENDBRANCH  70  71
ENDBRANCH  68  70
ENDBRANCH  67  68
BRANCH  67  74
ATOM     74  O40 UNK     0      44.548 -23.226 171.520  0.00  0.00    +0.000 OA
ATOM     75  H54 UNK     0      44.153 -23.632 172.318  0.00  0.00    +0.000 HD
ENDBRANCH  67  74
ENDBRANCH  23  67
BRANCH  34  76
ATOM     76  C57 UNK     0      33.766 -25.840 168.219  0.00  0.00    +0.000 C 
BRANCH  76  77
ATOM     77  C58 UNK     0      34.581 -25.309 167.023  0.00  0.00    +0.000 C 
ATOM     78  C59 UNK     0      35.196 -26.432 166.187  0.00  0.00    +0.000 C 
ATOM     79  C76 UNK     0      33.681 -24.442 166.135  0.00  0.00    +0.000 C 
ENDBRANCH  76  77
ENDBRANCH  34  76
BRANCH  12  80
ATOM     80  C21 UNK     0      41.385 -27.048 176.656  0.00  0.00    +0.000 C 
BRANCH  80  81
ATOM     81  C82 UNK     0      39.956 -26.493 176.821  0.00  0.00    +0.000 C 
ATOM     82  C83 UNK     0      38.885 -27.548 176.556  0.00  0.00    +0.000 C 
ATOM     83  C84 UNK     0      39.753 -25.306 175.874  0.00  0.00    +0.000 C 
ENDBRANCH  80  81
ENDBRANCH  12  80
BRANCH  42  84
ATOM     84  C75 UNK     0      34.021 -27.206 175.434  0.00  0.00    +0.000 C 
BRANCH  84  85
ATOM     85  C79 UNK     0      35.090 -26.114 175.643  0.00  0.00    +0.000 C 
ATOM     86  C80 UNK     0      36.321 -26.303 174.757  0.00  0.00    +0.000 C 
ATOM     87  C81 UNK     0      35.521 -26.091 177.113  0.00  0.00    +0.000 C 
ENDBRANCH  84  85
ENDBRANCH  42  84
BRANCH   9  88
ATOM     88  C15 UNK     0      41.615 -32.517 178.603  0.00  0.00    +0.000 C 
BRANCH  88  89
ATOM     89  C16 UNK     0      42.127 -32.639 180.059  0.00  0.00    +0.000 C 
ATOM     90  C17 UNK     0      41.751 -31.441 180.929  0.00  0.00    +0.000 C 
ATOM     91  C18 UNK     0      41.584 -33.924 180.692  0.00  0.00    +0.000 C 
ENDBRANCH  88  89
ENDBRANCH   9  88
TORSDOF 17
ENDMDL
MODEL 4
REMARK VINA RESULT:      -5.5     34.709     39.228
REMARK  Name = CyclosporineA.pdb
REMARK  40 active torsions:
REMARK  status: ('A' for Active; 'I' for Inactive)
REMARK    1  A    between atoms: C1_1  and  C78_78
REMARK    2  A    between atoms: N7_7  and  C8_8
REMARK    3  A    between atoms: C9_9  and  C15_15
REMARK    4  A    between atoms: N11_11  and  C20_20
REMARK    5  A    between atoms: C12_12  and  C21_21
REMARK    6  A    between atoms: N14_14  and  C23_23
REMARK    7  A    between atoms: C15_15  and  C16_16
REMARK    8  A    between atoms: C16_16  and  C17_17
REMARK    9  A    between atoms: C16_16  and  C18_18
REMARK   10  A    between atoms: C21_21  and  C82_82
REMARK   11  A    between atoms: C24_24  and  C25_25
REMARK   12  A    between atoms: C25_25  and  C30_30
REMARK   13  A    between atoms: C25_25  and  C31_31
REMARK   14  A    between atoms: C26_26  and  O27_27
REMARK   15  A    between atoms: N28_28  and  C29_29
REMARK   16  A    between atoms: C32_32  and  C34_34
REMARK   17  A    between atoms: C34_34  and  C35_35
REMARK   18  A    between atoms: C34_34  and  O40_40
REMARK   19  A    between atoms: C35_35  and  C36_36
REMARK   20  A    between atoms: C35_35  and  C41_41
REMARK   21  A    between atoms: C36_36  and  C37_37
REMARK   22  A    between atoms: C38_38  and  C39_39
REMARK   23  A    between atoms: C44_44  and  C45_45
REMARK   24  A    between atoms: C45_45  and  C46_46
REMARK   25  A    between atoms: N49_49  and  C77_77
REMARK   26  A    between atoms: C53_53  and  C57_57
REMARK   27  A    between atoms: C57_57  and  C58_58
REMARK   28  A    between atoms: C58_58  and  C59_59
REMARK   29  A    between atoms: C58_58  and  C76_76
REMARK   30  A    between atoms: C61_61  and  C62_62
REMARK   31  A    between atoms: C62_62  and  C63_63
REMARK   32  A    between atoms: C62_62  and  C64_64
REMARK   33  A    between atoms: N66_66  and  C68_68
REMARK   34  A    between atoms: C67_67  and  C75_75
REMARK   35  A    between atoms: C73_73  and  C74_74
REMARK   36  A    between atoms: C75_75  and  C79_79
REMARK   37  A    between atoms: C79_79  and  C80_80
REMARK   38  A    between atoms: C79_79  and  C81_81
REMARK   39  A    between atoms: C82_82  and  C83_83
REMARK   40  A    between atoms: C82_82  and  C84_84
REMARK                            x       y       z     vdW  Elec       q    Type
REMARK                         _______ _______ _______ _____ _____    ______ ____
ROOT
ATOM      1  C1  UNK     0      35.744 -34.731 177.110  0.00  0.00    +0.000 C 
ATOM      2  C2  UNK     0      36.934 -33.950 177.732  0.00  0.00    +0.000 C 
ATOM      3  N3  UNK     0      35.596 -34.226 175.754  0.00  0.00    +0.000 N 
ATOM      4  C4  UNK     0      35.043 -34.955 174.729  0.00  0.00    +0.000 C 
ATOM      5  O5  UNK     0      34.709 -36.132 174.850  0.00  0.00    +0.000 OA
ATOM      6  C6  UNK     0      36.667 -32.951 178.598  0.00  0.00    +0.000 C 
ATOM      7  N7  UNK     0      38.261 -34.305 177.332  0.00  0.00    +0.000 N 
ATOM      8  C8  UNK     0      38.503 -35.456 176.442  0.00  0.00    +0.000 C 
ATOM      9  C9  UNK     0      39.481 -33.528 177.764  0.00  0.00    +0.000 C 
ATOM     10  C10 UNK     0      39.719 -32.285 176.835  0.00  0.00    +0.000 C 
ATOM     11  N11 UNK     0      40.252 -31.089 177.410  0.00  0.00    +0.000 N 
ATOM     12  C12 UNK     0      40.055 -29.735 176.796  0.00  0.00    +0.000 C 
ATOM     13  C13 UNK     0      41.390 -29.188 176.191  0.00  0.00    +0.000 C 
ATOM     14  N14 UNK     0      41.537 -27.778 176.095  0.00  0.00    +0.000 N 
ATOM     15  C19 UNK     0      39.401 -32.360 175.526  0.00  0.00    +0.000 C 
ATOM     16  C20 UNK     0      40.948 -31.086 178.704  0.00  0.00    +0.000 C 
ATOM     17  C22 UNK     0      42.398 -30.007 175.830  0.00  0.00    +0.000 C 
ATOM     18  C23 UNK     0      42.496 -27.235 177.104  0.00  0.00    +0.000 C 
ATOM     19  C24 UNK     0      41.698 -27.113 174.721  0.00  0.00    +0.000 C 
ATOM     20  C26 UNK     0      41.634 -25.520 174.895  0.00  0.00    +0.000 C 
ATOM     21  N28 UNK     0      41.590 -24.784 173.629  0.00  0.00    +0.000 NA
ATOM     22  C29 UNK     0      42.939 -24.598 173.084  0.00  0.00    +0.000 C 
ATOM     23  C32 UNK     0      40.801 -23.509 173.649  0.00  0.00    +0.000 C 
ATOM     24  C33 UNK     0      40.474 -23.195 172.163  0.00  0.00    +0.000 C 
ATOM     25  O42 UNK     0      40.890 -22.215 171.555  0.00  0.00    +0.000 OA
ATOM     26  N43 UNK     0      39.691 -24.184 171.596  0.00  0.00    +0.000 N 
ATOM     27  C44 UNK     0      39.232 -24.149 170.223  0.00  0.00    +0.000 C 
ATOM     28  C47 UNK     0      38.034 -23.174 170.115  0.00  0.00    +0.000 C 
ATOM     29  C48 UNK     0      38.200 -22.141 169.264  0.00  0.00    +0.000 C 
ATOM     30  N49 UNK     0      36.839 -23.338 170.866  0.00  0.00    +0.000 N 
ATOM     31  C50 UNK     0      36.594 -24.385 171.897  0.00  0.00    +0.000 C 
ATOM     32  C51 UNK     0      35.401 -25.283 171.523  0.00  0.00    +0.000 C 
ATOM     33  N52 UNK     0      35.183 -25.377 170.165  0.00  0.00    +0.000 N 
ATOM     34  C53 UNK     0      34.287 -26.373 169.596  0.00  0.00    +0.000 C 
ATOM     35  C54 UNK     0      35.015 -27.742 169.601  0.00  0.00    +0.000 C 
ATOM     36  N55 UNK     0      34.165 -28.828 169.510  0.00  0.00    +0.000 N 
ATOM     37  O56 UNK     0      34.734 -25.895 172.353  0.00  0.00    +0.000 OA
ATOM     38  O60 UNK     0      36.239 -27.841 169.627  0.00  0.00    +0.000 OA
ATOM     39  C61 UNK     0      34.602 -30.226 169.634  0.00  0.00    +0.000 C 
ATOM     40  C65 UNK     0      34.792 -30.526 171.151  0.00  0.00    +0.000 C 
ATOM     41  N66 UNK     0      33.660 -30.431 171.984  0.00  0.00    +0.000 N 
ATOM     42  C67 UNK     0      33.895 -30.634 173.444  0.00  0.00    +0.000 C 
ATOM     43  C68 UNK     0      32.315 -30.723 171.487  0.00  0.00    +0.000 C 
ATOM     44  O69 UNK     0      35.886 -30.858 171.619  0.00  0.00    +0.000 OA
ATOM     45  C70 UNK     0      33.853 -32.159 173.706  0.00  0.00    +0.000 C 
ATOM     46  N71 UNK     0      35.055 -32.798 173.459  0.00  0.00    +0.000 N 
ATOM     47  O72 UNK     0      32.825 -32.764 173.996  0.00  0.00    +0.000 OA
ATOM     48  C73 UNK     0      35.103 -34.258 173.353  0.00  0.00    +0.000 C 
ATOM     49  C74 UNK     0      36.392 -34.685 172.658  0.00  0.00    +0.000 C 
ATOM     50  C77 UNK     0      35.808 -22.282 170.893  0.00  0.00    +0.000 C 
ATOM     51  C78 UNK     0      34.400 -34.667 177.846  0.00  0.00    +0.000 C 
ATOM     52  H2  UNK     0      35.869 -33.269 175.568  0.00  0.00    +0.000 HD
ATOM     53  H58 UNK     0      39.652 -25.057 172.104  0.00  0.00    +0.000 HD
ATOM     54  H69 UNK     0      35.940 -25.005 169.597  0.00  0.00    +0.000 HD
ATOM     55  H71 UNK     0      33.203 -28.643 169.761  0.00  0.00    +0.000 HD
ATOM     56  H90 UNK     0      35.716 -32.261 172.893  0.00  0.00    +0.000 HD
ENDROOT
BRANCH  39  57
ATOM     57  C62 UNK     0      35.814 -30.630 168.753  0.00  0.00    +0.000 C 
ATOM     58  C63 UNK     0      36.052 -32.148 168.815  0.00  0.00    +0.000 C 
ATOM     59  C64 UNK     0      35.606 -30.241 167.283  0.00  0.00    +0.000 C 
ENDBRANCH  39  57
BRANCH  19  60
ATOM     60  C25 UNK     0      40.660 -27.579 173.633  0.00  0.00    +0.000 C 
ATOM     61  C30 UNK     0      41.065 -28.832 172.853  0.00  0.00    +0.000 C 
ATOM     62  C31 UNK     0      39.207 -27.685 174.104  0.00  0.00    +0.000 C 
ENDBRANCH  19  60
BRANCH  20  63
ATOM     63  O27 UNK     0      40.523 -25.185 175.735  0.00  0.00    +0.000 OA
ATOM     64  H34 UNK     0      40.457 -24.209 175.666  0.00  0.00    +0.000 HD
ENDBRANCH  20  63
BRANCH  27  65
ATOM     65  C45 UNK     0      38.960 -25.565 169.686  0.00  0.00    +0.000 C 
ATOM     66  C46 UNK     0      38.629 -25.594 168.200  0.00  0.00    +0.000 C 
ENDBRANCH  27  65
BRANCH  23  67
ATOM     67  C34 UNK     0      41.414 -22.280 174.390  0.00  0.00    +0.000 C 
BRANCH  67  68
ATOM     68  C35 UNK     0      40.375 -21.264 174.958  0.00  0.00    +0.000 C 
ATOM     69  C41 UNK     0      38.985 -21.351 174.320  0.00  0.00    +0.000 C 
BRANCH  68  70
ATOM     70  C36 UNK     0      40.941 -19.824 174.829  0.00  0.00    +0.000 C 
BRANCH  70  71
ATOM     71  C37 UNK     0      41.776 -19.611 173.594  0.00  0.00    +0.000 C 
ATOM     72  C38 UNK     0      41.346 -18.959 172.503  0.00  0.00    +0.000 C 
ATOM     73  C39 UNK     0      42.167 -18.754 171.273  0.00  0.00    +0.000 C 
ENDBRANCH  70  71
ENDBRANCH  68  70
ENDBRANCH  67  68
BRANCH  67  74
ATOM     74  O40 UNK     0      42.184 -22.734 175.527  0.00  0.00    +0.000 OA
ATOM     75  H54 UNK     0      42.598 -21.929 175.899  0.00  0.00    +0.000 HD
ENDBRANCH  67  74
ENDBRANCH  23  67
BRANCH  34  76
ATOM     76  C57 UNK     0      33.900 -25.943 168.172  0.00  0.00    +0.000 C 
BRANCH  76  77
ATOM     77  C58 UNK     0      35.010 -25.291 167.324  0.00  0.00    +0.000 C 
ATOM     78  C59 UNK     0      35.484 -26.194 166.184  0.00  0.00    +0.000 C 
ATOM     79  C76 UNK     0      34.503 -23.963 166.749  0.00  0.00    +0.000 C 
ENDBRANCH  76  77
ENDBRANCH  34  76
BRANCH  12  80
ATOM     80  C21 UNK     0      39.392 -28.745 177.798  0.00  0.00    +0.000 C 
BRANCH  80  81
ATOM     81  C82 UNK     0      37.864 -28.585 177.665  0.00  0.00    +0.000 C 
ATOM     82  C83 UNK     0      37.277 -29.472 176.569  0.00  0.00    +0.000 C 
ATOM     83  C84 UNK     0      37.524 -27.120 177.375  0.00  0.00    +0.000 C 
ENDBRANCH  80  81
ENDBRANCH  12  80
BRANCH  42  84
ATOM     84  C75 UNK     0      32.885 -29.852 174.309  0.00  0.00    +0.000 C 
BRANCH  84  85
ATOM     85  C79 UNK     0      33.433 -29.389 175.675  0.00  0.00    +0.000 C 
ATOM     86  C80 UNK     0      32.664 -29.975 176.859  0.00  0.00    +0.000 C 
ATOM     87  C81 UNK     0      33.395 -27.860 175.752  0.00  0.00    +0.000 C 
ENDBRANCH  84  85
ENDBRANCH  42  84
BRANCH   9  88
ATOM     88  C15 UNK     0      40.766 -34.388 177.947  0.00  0.00    +0.000 C 
BRANCH  88  89
ATOM     89  C16 UNK     0      41.139 -34.645 179.427  0.00  0.00    +0.000 C 
ATOM     90  C17 UNK     0      39.937 -35.016 180.292  0.00  0.00    +0.000 C 
ATOM     91  C18 UNK     0      42.193 -35.753 179.509  0.00  0.00    +0.000 C 
ENDBRANCH  88  89
ENDBRANCH   9  88
TORSDOF 17
ENDMDL
MODEL 5
REMARK VINA RESULT:      -5.5      1.619      2.331
REMARK  Name = CyclosporineA.pdb
REMARK  40 active torsions:
REMARK  status: ('A' for Active; 'I' for Inactive)
REMARK    1  A    between atoms: C1_1  and  C78_78
REMARK    2  A    between atoms: N7_7  and  C8_8
REMARK    3  A    between atoms: C9_9  and  C15_15
REMARK    4  A    between atoms: N11_11  and  C20_20
REMARK    5  A    between atoms: C12_12  and  C21_21
REMARK    6  A    between atoms: N14_14  and  C23_23
REMARK    7  A    between atoms: C15_15  and  C16_16
REMARK    8  A    between atoms: C16_16  and  C17_17
REMARK    9  A    between atoms: C16_16  and  C18_18
REMARK   10  A    between atoms: C21_21  and  C82_82
REMARK   11  A    between atoms: C24_24  and  C25_25
REMARK   12  A    between atoms: C25_25  and  C30_30
REMARK   13  A    between atoms: C25_25  and  C31_31
REMARK   14  A    between atoms: C26_26  and  O27_27
REMARK   15  A    between atoms: N28_28  and  C29_29
REMARK   16  A    between atoms: C32_32  and  C34_34
REMARK   17  A    between atoms: C34_34  and  C35_35
REMARK   18  A    between atoms: C34_34  and  O40_40
REMARK   19  A    between atoms: C35_35  and  C36_36
REMARK   20  A    between atoms: C35_35  and  C41_41
REMARK   21  A    between atoms: C36_36  and  C37_37
REMARK   22  A    between atoms: C38_38  and  C39_39
REMARK   23  A    between atoms: C44_44  and  C45_45
REMARK   24  A    between atoms: C45_45  and  C46_46
REMARK   25  A    between atoms: N49_49  and  C77_77
REMARK   26  A    between atoms: C53_53  and  C57_57
REMARK   27  A    between atoms: C57_57  and  C58_58
REMARK   28  A    between atoms: C58_58  and  C59_59
REMARK   29  A    between atoms: C58_58  and  C76_76
REMARK   30  A    between atoms: C61_61  and  C62_62
REMARK   31  A    between atoms: C62_62  and  C63_63
REMARK   32  A    between atoms: C62_62  and  C64_64
REMARK   33  A    between atoms: N66_66  and  C68_68
REMARK   34  A    between atoms: C67_67  and  C75_75
REMARK   35  A    between atoms: C73_73  and  C74_74
REMARK   36  A    between atoms: C75_75  and  C79_79
REMARK   37  A    between atoms: C79_79  and  C80_80
REMARK   38  A    between atoms: C79_79  and  C81_81
REMARK   39  A    between atoms: C82_82  and  C83_83
REMARK   40  A    between atoms: C82_82  and  C84_84
REMARK                            x       y       z     vdW  Elec       q    Type
REMARK                         _______ _______ _______ _____ _____    ______ ____
ROOT
ATOM      1  C1  UNK     0      30.619   2.575 203.315  0.00  0.00    +0.000 C 
ATOM      2  C2  UNK     0      31.849   2.632 202.367  0.00  0.00    +0.000 C 
ATOM      3  N3  UNK     0      29.554   1.938 202.556  0.00  0.00    +0.000 N 
ATOM      4  C4  UNK     0      28.516   1.250 203.137  0.00  0.00    +0.000 C 
ATOM      5  O5  UNK     0      28.449   1.037 204.346  0.00  0.00    +0.000 OA
ATOM      6  C6  UNK     0      32.156   3.806 201.779  0.00  0.00    +0.000 C 
ATOM      7  N7  UNK     0      32.581   1.425 202.134  0.00  0.00    +0.000 N 
ATOM      8  C8  UNK     0      32.251   0.185 202.861  0.00  0.00    +0.000 C 
ATOM      9  C9  UNK     0      33.704   1.330 201.130  0.00  0.00    +0.000 C 
ATOM     10  C10 UNK     0      33.150   1.070 199.684  0.00  0.00    +0.000 C 
ATOM     11  N11 UNK     0      33.832   1.654 198.571  0.00  0.00    +0.000 N 
ATOM     12  C12 UNK     0      33.163   1.913 197.254  0.00  0.00    +0.000 C 
ATOM     13  C13 UNK     0      33.690   0.939 196.149  0.00  0.00    +0.000 C 
ATOM     14  N14 UNK     0      33.618   1.377 194.800  0.00  0.00    +0.000 N 
ATOM     15  C19 UNK     0      32.040   0.321 199.519  0.00  0.00    +0.000 C 
ATOM     16  C20 UNK     0      35.216   2.139 198.668  0.00  0.00    +0.000 C 
ATOM     17  C22 UNK     0      34.252  -0.248 196.454  0.00  0.00    +0.000 C 
ATOM     18  C23 UNK     0      34.958   1.736 194.246  0.00  0.00    +0.000 C 
ATOM     19  C24 UNK     0      32.755   0.612 193.787  0.00  0.00    +0.000 C 
ATOM     20  C26 UNK     0      32.696   1.437 192.413  0.00  0.00    +0.000 C 
ATOM     21  N28 UNK     0      31.750   0.898 191.434  0.00  0.00    +0.000 NA
ATOM     22  C29 UNK     0      32.356  -0.196 190.667  0.00  0.00    +0.000 C 
ATOM     23  C32 UNK     0      31.080   1.911 190.554  0.00  0.00    +0.000 C 
ATOM     24  C33 UNK     0      29.813   1.209 189.995  0.00  0.00    +0.000 C 
ATOM     25  O42 UNK     0      29.627   0.955 188.810  0.00  0.00    +0.000 OA
ATOM     26  N43 UNK     0      28.936   0.864 191.007  0.00  0.00    +0.000 N 
ATOM     27  C44 UNK     0      27.670   0.200 190.775  0.00  0.00    +0.000 C 
ATOM     28  C47 UNK     0      26.639   1.241 190.272  0.00  0.00    +0.000 C 
ATOM     29  C48 UNK     0      26.102   0.988 189.060  0.00  0.00    +0.000 C 
ATOM     30  N49 UNK     0      26.283   2.394 191.021  0.00  0.00    +0.000 N 
ATOM     31  C50 UNK     0      26.885   2.812 192.318  0.00  0.00    +0.000 C 
ATOM     32  C51 UNK     0      25.829   2.881 193.437  0.00  0.00    +0.000 C 
ATOM     33  N52 UNK     0      24.761   2.031 193.244  0.00  0.00    +0.000 N 
ATOM     34  C53 UNK     0      23.800   1.749 194.301  0.00  0.00    +0.000 C 
ATOM     35  C54 UNK     0      24.449   0.749 195.293  0.00  0.00    +0.000 C 
ATOM     36  N55 UNK     0      23.852   0.732 196.539  0.00  0.00    +0.000 N 
ATOM     37  O56 UNK     0      25.951   3.590 194.433  0.00  0.00    +0.000 OA
ATOM     38  O60 UNK     0      25.372   0.005 194.974  0.00  0.00    +0.000 OA
ATOM     39  C61 UNK     0      24.370  -0.026 197.688  0.00  0.00    +0.000 C 
ATOM     40  C65 UNK     0      25.558   0.784 198.288  0.00  0.00    +0.000 C 
ATOM     41  N66 UNK     0      25.282   2.066 198.802  0.00  0.00    +0.000 N 
ATOM     42  C67 UNK     0      26.457   2.851 199.285  0.00  0.00    +0.000 C 
ATOM     43  C68 UNK     0      23.984   2.393 199.393  0.00  0.00    +0.000 C 
ATOM     44  O69 UNK     0      26.703   0.324 198.339  0.00  0.00    +0.000 OA
ATOM     45  C70 UNK     0      26.726   2.417 200.746  0.00  0.00    +0.000 C 
ATOM     46  N71 UNK     0      27.493   1.270 200.852  0.00  0.00    +0.000 N 
ATOM     47  O72 UNK     0      26.216   2.970 201.717  0.00  0.00    +0.000 OA
ATOM     48  C73 UNK     0      27.575   0.557 202.129  0.00  0.00    +0.000 C 
ATOM     49  C74 UNK     0      28.086  -0.862 201.897  0.00  0.00    +0.000 C 
ATOM     50  C77 UNK     0      25.459   3.464 190.422  0.00  0.00    +0.000 C 
ATOM     51  C78 UNK     0      30.125   3.903 203.904  0.00  0.00    +0.000 C 
ATOM     52  H2  UNK     0      29.552   2.050 201.550  0.00  0.00    +0.000 HD
ATOM     53  H58 UNK     0      29.321   0.872 191.943  0.00  0.00    +0.000 HD
ATOM     54  H69 UNK     0      24.902   1.349 192.503  0.00  0.00    +0.000 HD
ATOM     55  H71 UNK     0      23.302   1.549 196.764  0.00  0.00    +0.000 HD
ATOM     56  H90 UNK     0      27.552   0.715 199.995  0.00  0.00    +0.000 HD
ENDROOT
BRANCH  39  57
ATOM     57  C62 UNK     0      24.697  -1.518 197.413  0.00  0.00    +0.000 C 
ATOM     58  C63 UNK     0      24.923  -2.279 198.730  0.00  0.00    +0.000 C 
ATOM     59  C64 UNK     0      23.567  -2.219 196.646  0.00  0.00    +0.000 C 
ENDBRANCH  39  57
BRANCH  19  60
ATOM     60  C25 UNK     0      31.297   0.277 194.278  0.00  0.00    +0.000 C 
ATOM     61  C30 UNK     0      31.153  -1.069 194.993  0.00  0.00    +0.000 C 
ATOM     62  C31 UNK     0      30.591   1.383 195.067  0.00  0.00    +0.000 C 
ENDBRANCH  19  60
BRANCH  20  63
ATOM     63  O27 UNK     0      32.421   2.813 192.705  0.00  0.00    +0.000 OA
ATOM     64  H34 UNK     0      31.465   2.825 192.921  0.00  0.00    +0.000 HD
ENDBRANCH  20  63
BRANCH  27  65
ATOM     65  C45 UNK     0      27.223  -0.604 192.008  0.00  0.00    +0.000 C 
ATOM     66  C46 UNK     0      25.812  -1.162 191.886  0.00  0.00    +0.000 C 
ENDBRANCH  27  65
BRANCH  23  67
ATOM     67  C34 UNK     0      31.931   2.577 189.428  0.00  0.00    +0.000 C 
BRANCH  67  68
ATOM     68  C35 UNK     0      31.618   4.083 189.166  0.00  0.00    +0.000 C 
ATOM     69  C41 UNK     0      30.616   4.338 188.037  0.00  0.00    +0.000 C 
BRANCH  68  70
ATOM     70  C36 UNK     0      32.945   4.844 188.897  0.00  0.00    +0.000 C 
BRANCH  70  71
ATOM     71  C37 UNK     0      33.313   5.820 189.984  0.00  0.00    +0.000 C 
ATOM     72  C38 UNK     0      32.636   5.947 191.135  0.00  0.00    +0.000 C 
ATOM     73  C39 UNK     0      32.992   6.920 192.210  0.00  0.00    +0.000 C 
ENDBRANCH  70  71
ENDBRANCH  68  70
ENDBRANCH  67  68
BRANCH  67  74
ATOM     74  O40 UNK     0      33.332   2.520 189.779  0.00  0.00    +0.000 OA
ATOM     75  H54 UNK     0      33.527   3.376 190.211  0.00  0.00    +0.000 HD
ENDBRANCH  67  74
ENDBRANCH  23  67
BRANCH  34  76
ATOM     76  C57 UNK     0      22.520   1.174 193.673  0.00  0.00    +0.000 C 
BRANCH  76  77
ATOM     77  C58 UNK     0      21.283   2.093 193.667  0.00  0.00    +0.000 C 
ATOM     78  C59 UNK     0      21.377   3.196 192.612  0.00  0.00    +0.000 C 
ATOM     79  C76 UNK     0      20.023   1.255 193.421  0.00  0.00    +0.000 C 
ENDBRANCH  76  77
ENDBRANCH  34  76
BRANCH  12  80
ATOM     80  C21 UNK     0      33.273   3.412 196.844  0.00  0.00    +0.000 C 
BRANCH  80  81
ATOM     81  C82 UNK     0      32.024   4.272 197.121  0.00  0.00    +0.000 C 
ATOM     82  C83 UNK     0      31.577   5.065 195.894  0.00  0.00    +0.000 C 
ATOM     83  C84 UNK     0      32.309   5.235 198.277  0.00  0.00    +0.000 C 
ENDBRANCH  80  81
ENDBRANCH  12  80
BRANCH  42  84
ATOM     84  C75 UNK     0      26.236   4.371 199.145  0.00  0.00    +0.000 C 
BRANCH  84  85
ATOM     85  C79 UNK     0      27.483   5.162 198.699  0.00  0.00    +0.000 C 
ATOM     86  C80 UNK     0      28.795   4.466 199.059  0.00  0.00    +0.000 C 
ATOM     87  C81 UNK     0      27.459   6.559 199.329  0.00  0.00    +0.000 C 
ENDBRANCH  84  85
ENDBRANCH  42  84
BRANCH   9  88
ATOM     88  C15 UNK     0      34.839   0.339 201.519  0.00  0.00    +0.000 C 
BRANCH  88  89
ATOM     89  C16 UNK     0      34.896  -0.925 200.628  0.00  0.00    +0.000 C 
ATOM     90  C17 UNK     0      36.243  -1.107 199.931  0.00  0.00    +0.000 C 
ATOM     91  C18 UNK     0      34.580  -2.165 201.468  0.00  0.00    +0.000 C 
ENDBRANCH  88  89
ENDBRANCH   9  88
TORSDOF 17
ENDMDL
MODEL 6
REMARK VINA RESULT:      -5.3     34.914     40.195
REMARK  Name = CyclosporineA.pdb
REMARK  40 active torsions:
REMARK  status: ('A' for Active; 'I' for Inactive)
REMARK    1  A    between atoms: C1_1  and  C78_78
REMARK    2  A    between atoms: N7_7  and  C8_8
REMARK    3  A    between atoms: C9_9  and  C15_15
REMARK    4  A    between atoms: N11_11  and  C20_20
REMARK    5  A    between atoms: C12_12  and  C21_21
REMARK    6  A    between atoms: N14_14  and  C23_23
REMARK    7  A    between atoms: C15_15  and  C16_16
REMARK    8  A    between atoms: C16_16  and  C17_17
REMARK    9  A    between atoms: C16_16  and  C18_18
REMARK   10  A    between atoms: C21_21  and  C82_82
REMARK   11  A    between atoms: C24_24  and  C25_25
REMARK   12  A    between atoms: C25_25  and  C30_30
REMARK   13  A    between atoms: C25_25  and  C31_31
REMARK   14  A    between atoms: C26_26  and  O27_27
REMARK   15  A    between atoms: N28_28  and  C29_29
REMARK   16  A    between atoms: C32_32  and  C34_34
REMARK   17  A    between atoms: C34_34  and  C35_35
REMARK   18  A    between atoms: C34_34  and  O40_40
REMARK   19  A    between atoms: C35_35  and  C36_36
REMARK   20  A    between atoms: C35_35  and  C41_41
REMARK   21  A    between atoms: C36_36  and  C37_37
REMARK   22  A    between atoms: C38_38  and  C39_39
REMARK   23  A    between atoms: C44_44  and  C45_45
REMARK   24  A    between atoms: C45_45  and  C46_46
REMARK   25  A    between atoms: N49_49  and  C77_77
REMARK   26  A    between atoms: C53_53  and  C57_57
REMARK   27  A    between atoms: C57_57  and  C58_58
REMARK   28  A    between atoms: C58_58  and  C59_59
REMARK   29  A    between atoms: C58_58  and  C76_76
REMARK   30  A    between atoms: C61_61  and  C62_62
REMARK   31  A    between atoms: C62_62  and  C63_63
REMARK   32  A    between atoms: C62_62  and  C64_64
REMARK   33  A    between atoms: N66_66  and  C68_68
REMARK   34  A    between atoms: C67_67  and  C75_75
REMARK   35  A    between atoms: C73_73  and  C74_74
REMARK   36  A    between atoms: C75_75  and  C79_79
REMARK   37  A    between atoms: C79_79  and  C80_80
REMARK   38  A    between atoms: C79_79  and  C81_81
REMARK   39  A    between atoms: C82_82  and  C83_83
REMARK   40  A    between atoms: C82_82  and  C84_84
REMARK                            x       y       z     vdW  Elec       q    Type
REMARK                         _______ _______ _______ _____ _____    ______ ____
ROOT
ATOM      1  C1  UNK     0      41.723 -21.513 167.666  0.00  0.00    +0.000 C 
ATOM      2  C2  UNK     0      41.068 -22.527 166.687  0.00  0.00    +0.000 C 
ATOM      3  N3  UNK     0      41.681 -22.137 168.979  0.00  0.00    +0.000 N 
ATOM      4  C4  UNK     0      42.567 -21.842 169.987  0.00  0.00    +0.000 C 
ATOM      5  O5  UNK     0      43.528 -21.091 169.834  0.00  0.00    +0.000 OA
ATOM      6  C6  UNK     0      39.804 -22.301 166.275  0.00  0.00    +0.000 C 
ATOM      7  N7  UNK     0      41.826 -23.675 166.292  0.00  0.00    +0.000 N 
ATOM      8  C8  UNK     0      43.231 -23.835 166.709  0.00  0.00    +0.000 C 
ATOM      9  C9  UNK     0      41.245 -24.791 165.459  0.00  0.00    +0.000 C 
ATOM     10  C10 UNK     0      40.472 -25.823 166.355  0.00  0.00    +0.000 C 
ATOM     11  N11 UNK     0      39.306 -26.457 165.824  0.00  0.00    +0.000 N 
ATOM     12  C12 UNK     0      38.228 -27.035 166.692  0.00  0.00    +0.000 C 
ATOM     13  C13 UNK     0      38.231 -28.598 166.634  0.00  0.00    +0.000 C 
ATOM     14  N14 UNK     0      37.007 -29.267 166.903  0.00  0.00    +0.000 N 
ATOM     15  C19 UNK     0      40.908 -26.078 167.606  0.00  0.00    +0.000 C 
ATOM     16  C20 UNK     0      39.027 -26.499 164.381  0.00  0.00    +0.000 C 
ATOM     17  C22 UNK     0      39.328 -29.297 166.281  0.00  0.00    +0.000 C 
ATOM     18  C23 UNK     0      36.388 -29.840 165.670  0.00  0.00    +0.000 C 
ATOM     19  C24 UNK     0      36.895 -30.213 168.105  0.00  0.00    +0.000 C 
ATOM     20  C26 UNK     0      35.365 -30.659 168.287  0.00  0.00    +0.000 C 
ATOM     21  N28 UNK     0      35.106 -31.415 169.514  0.00  0.00    +0.000 NA
ATOM     22  C29 UNK     0      35.422 -32.835 169.331  0.00  0.00    +0.000 C 
ATOM     23  C32 UNK     0      33.755 -31.205 170.131  0.00  0.00    +0.000 C 
ATOM     24  C33 UNK     0      33.892 -31.666 171.608  0.00  0.00    +0.000 C 
ATOM     25  O42 UNK     0      33.292 -32.618 172.095  0.00  0.00    +0.000 OA
ATOM     26  N43 UNK     0      34.810 -30.894 172.296  0.00  0.00    +0.000 N 
ATOM     27  C44 UNK     0      35.135 -31.097 173.693  0.00  0.00    +0.000 C 
ATOM     28  C47 UNK     0      34.009 -30.491 174.567  0.00  0.00    +0.000 C 
ATOM     29  C48 UNK     0      33.386 -31.356 175.394  0.00  0.00    +0.000 C 
ATOM     30  N49 UNK     0      33.638 -29.122 174.503  0.00  0.00    +0.000 N 
ATOM     31  C50 UNK     0      34.195 -28.111 173.560  0.00  0.00    +0.000 C 
ATOM     32  C51 UNK     0      34.873 -26.949 174.309  0.00  0.00    +0.000 C 
ATOM     33  N52 UNK     0      35.365 -27.300 175.548  0.00  0.00    +0.000 N 
ATOM     34  C53 UNK     0      36.265 -26.433 176.294  0.00  0.00    +0.000 C 
ATOM     35  C54 UNK     0      37.680 -26.548 175.670  0.00  0.00    +0.000 C 
ATOM     36  N55 UNK     0      38.512 -25.486 175.972  0.00  0.00    +0.000 N 
ATOM     37  O56 UNK     0      35.005 -25.826 173.829  0.00  0.00    +0.000 OA
ATOM     38  O60 UNK     0      38.037 -27.523 175.015  0.00  0.00    +0.000 OA
ATOM     39  C61 UNK     0      39.848 -25.298 175.388  0.00  0.00    +0.000 C 
ATOM     40  C65 UNK     0      39.657 -24.716 173.957  0.00  0.00    +0.000 C 
ATOM     41  N66 UNK     0      39.036 -23.457 173.839  0.00  0.00    +0.000 N 
ATOM     42  C67 UNK     0      38.786 -22.970 172.450  0.00  0.00    +0.000 C 
ATOM     43  C68 UNK     0      39.167 -22.437 174.881  0.00  0.00    +0.000 C 
ATOM     44  O69 UNK     0      40.051 -25.314 172.950  0.00  0.00    +0.000 OA
ATOM     45  C70 UNK     0      40.084 -22.279 171.967  0.00  0.00    +0.000 C 
ATOM     46  N71 UNK     0      41.022 -23.157 171.454  0.00  0.00    +0.000 N 
ATOM     47  O72 UNK     0      40.308 -21.083 172.127  0.00  0.00    +0.000 OA
ATOM     48  C73 UNK     0      42.404 -22.717 171.248  0.00  0.00    +0.000 C 
ATOM     49  C74 UNK     0      43.318 -23.931 171.109  0.00  0.00    +0.000 C 
ATOM     50  C77 UNK     0      32.430 -28.628 175.194  0.00  0.00    +0.000 C 
ATOM     51  C78 UNK     0      41.114 -20.106 167.731  0.00  0.00    +0.000 C 
ATOM     52  H2  UNK     0      40.930 -22.786 169.176  0.00  0.00    +0.000 HD
ATOM     53  H58 UNK     0      35.430 -30.336 171.725  0.00  0.00    +0.000 HD
ATOM     54  H69 UNK     0      35.385 -28.303 175.717  0.00  0.00    +0.000 HD
ATOM     55  H71 UNK     0      38.042 -24.645 176.277  0.00  0.00    +0.000 HD
ATOM     56  H90 UNK     0      40.869 -24.138 171.699  0.00  0.00    +0.000 HD
ENDROOT
BRANCH  39  57
ATOM     57  C62 UNK     0      40.786 -26.533 175.449  0.00  0.00    +0.000 C 
ATOM     58  C63 UNK     0      42.238 -26.132 175.139  0.00  0.00    +0.000 C 
ATOM     59  C64 UNK     0      40.762 -27.202 176.830  0.00  0.00    +0.000 C 
ENDBRANCH  39  57
BRANCH  19  60
ATOM     60  C25 UNK     0      37.452 -29.634 169.459  0.00  0.00    +0.000 C 
ATOM     61  C30 UNK     0      38.953 -29.839 169.678  0.00  0.00    +0.000 C 
ATOM     62  C31 UNK     0      37.055 -28.190 169.777  0.00  0.00    +0.000 C 
ENDBRANCH  19  60
BRANCH  20  63
ATOM     63  O27 UNK     0      34.526 -29.501 168.197  0.00  0.00    +0.000 OA
ATOM     64  H34 UNK     0      33.748 -29.726 168.748  0.00  0.00    +0.000 HD
ENDBRANCH  20  63
BRANCH  27  65
ATOM     65  C45 UNK     0      36.549 -30.587 174.020  0.00  0.00    +0.000 C 
ATOM     66  C46 UNK     0      37.586 -30.970 172.973  0.00  0.00    +0.000 C 
ENDBRANCH  27  65
BRANCH  23  67
ATOM     67  C34 UNK     0      32.521 -31.848 169.424  0.00  0.00    +0.000 C 
BRANCH  67  68
ATOM     68  C35 UNK     0      31.139 -31.247 169.831  0.00  0.00    +0.000 C 
ATOM     69  C41 UNK     0      30.025 -31.460 168.802  0.00  0.00    +0.000 C 
BRANCH  68  70
ATOM     70  C36 UNK     0      31.307 -29.735 170.143  0.00  0.00    +0.000 C 
BRANCH  70  71
ATOM     71  C37 UNK     0      30.781 -29.336 171.497  0.00  0.00    +0.000 C 
ATOM     72  C38 UNK     0      29.961 -30.098 172.235  0.00  0.00    +0.000 C 
ATOM     73  C39 UNK     0      29.430 -29.701 173.574  0.00  0.00    +0.000 C 
ENDBRANCH  70  71
ENDBRANCH  68  70
ENDBRANCH  67  68
BRANCH  67  74
ATOM     74  O40 UNK     0      32.627 -31.660 167.995  0.00  0.00    +0.000 OA
ATOM     75  H54 UNK     0      31.706 -31.642 167.665  0.00  0.00    +0.000 HD
ENDBRANCH  67  74
ENDBRANCH  23  67
BRANCH  34  76
ATOM     76  C57 UNK     0      36.261 -26.859 177.771  0.00  0.00    +0.000 C 
BRANCH  76  77
ATOM     77  C58 UNK     0      36.449 -28.363 178.054  0.00  0.00    +0.000 C 
ATOM     78  C59 UNK     0      37.685 -28.649 178.908  0.00  0.00    +0.000 C 
ATOM     79  C76 UNK     0      35.202 -28.911 178.757  0.00  0.00    +0.000 C 
ENDBRANCH  76  77
ENDBRANCH  34  76
BRANCH  12  80
ATOM     80  C21 UNK     0      36.838 -26.417 166.362  0.00  0.00    +0.000 C 
BRANCH  80  81
ATOM     81  C82 UNK     0      36.409 -25.229 167.246  0.00  0.00    +0.000 C 
ATOM     82  C83 UNK     0      37.469 -24.859 168.282  0.00  0.00    +0.000 C 
ATOM     83  C84 UNK     0      35.094 -25.563 167.955  0.00  0.00    +0.000 C 
ENDBRANCH  80  81
ENDBRANCH  12  80
BRANCH  42  84
ATOM     84  C75 UNK     0      37.553 -22.046 172.372  0.00  0.00    +0.000 C 
BRANCH  84  85
ATOM     85  C79 UNK     0      36.592 -22.355 171.205  0.00  0.00    +0.000 C 
ATOM     86  C80 UNK     0      36.021 -23.771 171.259  0.00  0.00    +0.000 C 
ATOM     87  C81 UNK     0      37.320 -22.150 169.873  0.00  0.00    +0.000 C 
ENDBRANCH  84  85
ENDBRANCH  42  84
BRANCH   9  88
ATOM     88  C15 UNK     0      42.260 -25.479 164.500  0.00  0.00    +0.000 C 
BRANCH  88  89
ATOM     89  C16 UNK     0      42.613 -26.931 164.903  0.00  0.00    +0.000 C 
ATOM     90  C17 UNK     0      42.305 -27.948 163.807  0.00  0.00    +0.000 C 
ATOM     91  C18 UNK     0      44.094 -27.017 165.283  0.00  0.00    +0.000 C 
ENDBRANCH  88  89
ENDBRANCH   9  88
TORSDOF 17
ENDMDL
MODEL 7
REMARK VINA RESULT:      -5.3     29.448     33.816
REMARK  Name = CyclosporineA.pdb
REMARK  40 active torsions:
REMARK  status: ('A' for Active; 'I' for Inactive)
REMARK    1  A    between atoms: C1_1  and  C78_78
REMARK    2  A    between atoms: N7_7  and  C8_8
REMARK    3  A    between atoms: C9_9  and  C15_15
REMARK    4  A    between atoms: N11_11  and  C20_20
REMARK    5  A    between atoms: C12_12  and  C21_21
REMARK    6  A    between atoms: N14_14  and  C23_23
REMARK    7  A    between atoms: C15_15  and  C16_16
REMARK    8  A    between atoms: C16_16  and  C17_17
REMARK    9  A    between atoms: C16_16  and  C18_18
REMARK   10  A    between atoms: C21_21  and  C82_82
REMARK   11  A    between atoms: C24_24  and  C25_25
REMARK   12  A    between atoms: C25_25  and  C30_30
REMARK   13  A    between atoms: C25_25  and  C31_31
REMARK   14  A    between atoms: C26_26  and  O27_27
REMARK   15  A    between atoms: N28_28  and  C29_29
REMARK   16  A    between atoms: C32_32  and  C34_34
REMARK   17  A    between atoms: C34_34  and  C35_35
REMARK   18  A    between atoms: C34_34  and  O40_40
REMARK   19  A    between atoms: C35_35  and  C36_36
REMARK   20  A    between atoms: C35_35  and  C41_41
REMARK   21  A    between atoms: C36_36  and  C37_37
REMARK   22  A    between atoms: C38_38  and  C39_39
REMARK   23  A    between atoms: C44_44  and  C45_45
REMARK   24  A    between atoms: C45_45  and  C46_46
REMARK   25  A    between atoms: N49_49  and  C77_77
REMARK   26  A    between atoms: C53_53  and  C57_57
REMARK   27  A    between atoms: C57_57  and  C58_58
REMARK   28  A    between atoms: C58_58  and  C59_59
REMARK   29  A    between atoms: C58_58  and  C76_76
REMARK   30  A    between atoms: C61_61  and  C62_62
REMARK   31  A    between atoms: C62_62  and  C63_63
REMARK   32  A    between atoms: C62_62  and  C64_64
REMARK   33  A    between atoms: N66_66  and  C68_68
REMARK   34  A    between atoms: C67_67  and  C75_75
REMARK   35  A    between atoms: C73_73  and  C74_74
REMARK   36  A    between atoms: C75_75  and  C79_79
REMARK   37  A    between atoms: C79_79  and  C80_80
REMARK   38  A    between atoms: C79_79  and  C81_81
REMARK   39  A    between atoms: C82_82  and  C83_83
REMARK   40  A    between atoms: C82_82  and  C84_84
REMARK                            x       y       z     vdW  Elec       q    Type
REMARK                         _______ _______ _______ _____ _____    ______ ____
ROOT
ATOM      1  C1  UNK     0      12.926 -20.680 182.974  0.00  0.00    +0.000 C 
ATOM      2  C2  UNK     0      13.546 -21.428 181.761  0.00  0.00    +0.000 C 
ATOM      3  N3  UNK     0      11.908 -19.798 182.426  0.00  0.00    +0.000 N 
ATOM      4  C4  UNK     0      10.817 -19.364 183.138  0.00  0.00    +0.000 C 
ATOM      5  O5  UNK     0      10.560 -19.759 184.274  0.00  0.00    +0.000 OA
ATOM      6  C6  UNK     0      14.753 -21.032 181.308  0.00  0.00    +0.000 C 
ATOM      7  N7  UNK     0      12.792 -22.484 181.159  0.00  0.00    +0.000 N 
ATOM      8  C8  UNK     0      11.513 -22.931 181.741  0.00  0.00    +0.000 C 
ATOM      9  C9  UNK     0      13.232 -23.185 179.897  0.00  0.00    +0.000 C 
ATOM     10  C10 UNK     0      12.797 -22.380 178.621  0.00  0.00    +0.000 C 
ATOM     11  N11 UNK     0      13.654 -22.390 177.477  0.00  0.00    +0.000 N 
ATOM     12  C12 UNK     0      13.632 -21.310 176.436  0.00  0.00    +0.000 C 
ATOM     13  C13 UNK     0      13.022 -21.831 175.093  0.00  0.00    +0.000 C 
ATOM     14  N14 UNK     0      13.424 -21.181 173.894  0.00  0.00    +0.000 N 
ATOM     15  C19 UNK     0      11.641 -21.684 178.633  0.00  0.00    +0.000 C 
ATOM     16  C20 UNK     0      14.696 -23.410 177.288  0.00  0.00    +0.000 C 
ATOM     17  C22 UNK     0      12.195 -22.894 175.050  0.00  0.00    +0.000 C 
ATOM     18  C23 UNK     0      14.353 -22.018 173.077  0.00  0.00    +0.000 C 
ATOM     19  C24 UNK     0      12.388 -20.448 173.032  0.00  0.00    +0.000 C 
ATOM     20  C26 UNK     0      13.143 -19.643 171.869  0.00  0.00    +0.000 C 
ATOM     21  N28 UNK     0      12.272 -18.756 171.095  0.00  0.00    +0.000 NA
ATOM     22  C29 UNK     0      11.580 -19.496 170.034  0.00  0.00    +0.000 C 
ATOM     23  C32 UNK     0      12.912 -17.497 170.590  0.00  0.00    +0.000 C 
ATOM     24  C33 UNK     0      11.741 -16.528 170.274  0.00  0.00    +0.000 C 
ATOM     25  O42 UNK     0      11.466 -16.115 169.153  0.00  0.00    +0.000 OA
ATOM     26  N43 UNK     0      11.015 -16.222 171.411  0.00  0.00    +0.000 N 
ATOM     27  C44 UNK     0       9.869 -15.336 171.412  0.00  0.00    +0.000 C 
ATOM     28  C47 UNK     0      10.364 -13.869 171.365  0.00  0.00    +0.000 C 
ATOM     29  C48 UNK     0       9.937 -13.146 170.308  0.00  0.00    +0.000 C 
ATOM     30  N49 UNK     0      11.220 -13.314 172.353  0.00  0.00    +0.000 N 
ATOM     31  C50 UNK     0      11.822 -14.051 173.499  0.00  0.00    +0.000 C 
ATOM     32  C51 UNK     0      11.385 -13.454 174.850  0.00  0.00    +0.000 C 
ATOM     33  N52 UNK     0      10.159 -12.826 174.807  0.00  0.00    +0.000 N 
ATOM     34  C53 UNK     0       9.451 -12.436 176.018  0.00  0.00    +0.000 C 
ATOM     35  C54 UNK     0       8.809 -13.705 176.637  0.00  0.00    +0.000 C 
ATOM     36  N55 UNK     0       8.495 -13.575 177.977  0.00  0.00    +0.000 N 
ATOM     37  O56 UNK     0      12.046 -13.566 175.879  0.00  0.00    +0.000 OA
ATOM     38  O60 UNK     0       8.558 -14.709 175.976  0.00  0.00    +0.000 OA
ATOM     39  C61 UNK     0       8.008 -14.679 178.817  0.00  0.00    +0.000 C 
ATOM     40  C65 UNK     0       9.240 -15.548 179.210  0.00  0.00    +0.000 C 
ATOM     41  N66 UNK     0      10.254 -14.938 179.974  0.00  0.00    +0.000 N 
ATOM     42  C67 UNK     0      11.461 -15.771 180.255  0.00  0.00    +0.000 C 
ATOM     43  C68 UNK     0       9.958 -13.866 180.925  0.00  0.00    +0.000 C 
ATOM     44  O69 UNK     0       9.330 -16.738 178.889  0.00  0.00    +0.000 OA
ATOM     45  C70 UNK     0      11.147 -16.623 181.509  0.00  0.00    +0.000 C 
ATOM     46  N71 UNK     0      10.452 -17.786 181.230  0.00  0.00    +0.000 N 
ATOM     47  O72 UNK     0      11.390 -16.250 182.653  0.00  0.00    +0.000 OA
ATOM     48  C73 UNK     0       9.810 -18.536 182.312  0.00  0.00    +0.000 C 
ATOM     49  C74 UNK     0       8.769 -19.489 181.734  0.00  0.00    +0.000 C 
ATOM     50  C77 UNK     0      11.835 -11.985 172.165  0.00  0.00    +0.000 C 
ATOM     51  C78 UNK     0      13.883 -19.887 183.873  0.00  0.00    +0.000 C 
ATOM     52  H2  UNK     0      12.038 -19.446 181.485  0.00  0.00    +0.000 HD
ATOM     53  H58 UNK     0      11.164 -16.832 172.204  0.00  0.00    +0.000 HD
ATOM     54  H69 UNK     0       9.631 -13.005 173.957  0.00  0.00    +0.000 HD
ATOM     55  H71 UNK     0       8.979 -12.833 178.462  0.00  0.00    +0.000 HD
ATOM     56  H90 UNK     0      10.006 -17.807 180.310  0.00  0.00    +0.000 HD
ENDROOT
BRANCH  39  57
ATOM     57  C62 UNK     0       6.821 -15.492 178.234  0.00  0.00    +0.000 C 
ATOM     58  C63 UNK     0       6.298 -16.507 179.263  0.00  0.00    +0.000 C 
ATOM     59  C64 UNK     0       5.653 -14.584 177.825  0.00  0.00    +0.000 C 
ENDBRANCH  39  57
BRANCH  19  60
ATOM     60  C25 UNK     0      11.431 -19.481 173.824  0.00  0.00    +0.000 C 
ATOM     61  C30 UNK     0      10.225 -20.162 174.478  0.00  0.00    +0.000 C 
ATOM     62  C31 UNK     0      12.114 -18.532 174.812  0.00  0.00    +0.000 C 
ENDBRANCH  19  60
BRANCH  20  63
ATOM     63  O27 UNK     0      14.248 -18.929 172.436  0.00  0.00    +0.000 OA
ATOM     64  H34 UNK     0      14.122 -19.022 173.404  0.00  0.00    +0.000 HD
ENDBRANCH  20  63
BRANCH  27  65
ATOM     65  C45 UNK     0       8.914 -15.655 172.575  0.00  0.00    +0.000 C 
ATOM     66  C46 UNK     0       8.712 -17.148 172.797  0.00  0.00    +0.000 C 
ENDBRANCH  27  65
BRANCH  23  67
ATOM     67  C34 UNK     0      13.918 -17.614 169.402  0.00  0.00    +0.000 C 
BRANCH  67  68
ATOM     68  C35 UNK     0      14.520 -16.261 168.910  0.00  0.00    +0.000 C 
ATOM     69  C41 UNK     0      14.382 -16.014 167.405  0.00  0.00    +0.000 C 
BRANCH  68  70
ATOM     70  C36 UNK     0      16.009 -16.174 169.340  0.00  0.00    +0.000 C 
BRANCH  70  71
ATOM     71  C37 UNK     0      16.498 -14.764 169.540  0.00  0.00    +0.000 C 
ATOM     72  C38 UNK     0      15.852 -13.844 170.272  0.00  0.00    +0.000 C 
ATOM     73  C39 UNK     0      16.329 -12.443 170.464  0.00  0.00    +0.000 C 
ENDBRANCH  70  71
ENDBRANCH  68  70
ENDBRANCH  67  68
BRANCH  67  74
ATOM     74  O40 UNK     0      15.046 -18.427 169.799  0.00  0.00    +0.000 OA
ATOM     75  H54 UNK     0      15.448 -17.961 170.560  0.00  0.00    +0.000 HD
ENDBRANCH  67  74
ENDBRANCH  23  67
BRANCH  34  76
ATOM     76  C57 UNK     0       8.390 -11.383 175.660  0.00  0.00    +0.000 C 
BRANCH  76  77
ATOM     77  C58 UNK     0       8.617  -9.961 176.211  0.00  0.00    +0.000 C 
ATOM     78  C59 UNK     0       9.704  -9.915 177.286  0.00  0.00    +0.000 C 
ATOM     79  C76 UNK     0       8.994  -9.020 175.060  0.00  0.00    +0.000 C 
ENDBRANCH  76  77
ENDBRANCH  34  76
BRANCH  12  80
ATOM     80  C21 UNK     0      15.037 -20.664 176.254  0.00  0.00    +0.000 C 
BRANCH  80  81
ATOM     81  C82 UNK     0      15.291 -19.380 177.069  0.00  0.00    +0.000 C 
ATOM     82  C83 UNK     0      16.427 -19.543 178.077  0.00  0.00    +0.000 C 
ATOM     83  C84 UNK     0      14.009 -18.975 177.804  0.00  0.00    +0.000 C 
ENDBRANCH  80  81
ENDBRANCH  12  80
BRANCH  42  84
ATOM     84  C75 UNK     0      12.732 -14.913 180.420  0.00  0.00    +0.000 C 
BRANCH  84  85
ATOM     85  C79 UNK     0      13.665 -14.906 179.191  0.00  0.00    +0.000 C 
ATOM     86  C80 UNK     0      15.022 -15.554 179.465  0.00  0.00    +0.000 C 
ATOM     87  C81 UNK     0      13.877 -13.465 178.715  0.00  0.00    +0.000 C 
ENDBRANCH  84  85
ENDBRANCH  42  84
BRANCH   9  88
ATOM     88  C15 UNK     0      12.830 -24.687 179.817  0.00  0.00    +0.000 C 
BRANCH  88  89
ATOM     89  C16 UNK     0      11.581 -24.953 178.943  0.00  0.00    +0.000 C 
ATOM     90  C17 UNK     0      11.896 -25.734 177.669  0.00  0.00    +0.000 C 
ATOM     91  C18 UNK     0      10.528 -25.707 179.761  0.00  0.00    +0.000 C 
ENDBRANCH  88  89
ENDBRANCH   9  88
TORSDOF 17
ENDMDL
MODEL 8
REMARK VINA RESULT:      -5.3     34.275     38.619
REMARK  Name = CyclosporineA.pdb
REMARK  40 active torsions:
REMARK  status: ('A' for Active; 'I' for Inactive)
REMARK    1  A    between atoms: C1_1  and  C78_78
REMARK    2  A    between atoms: N7_7  and  C8_8
REMARK    3  A    between atoms: C9_9  and  C15_15
REMARK    4  A    between atoms: N11_11  and  C20_20
REMARK    5  A    between atoms: C12_12  and  C21_21
REMARK    6  A    between atoms: N14_14  and  C23_23
REMARK    7  A    between atoms: C15_15  and  C16_16
REMARK    8  A    between atoms: C16_16  and  C17_17
REMARK    9  A    between atoms: C16_16  and  C18_18
REMARK   10  A    between atoms: C21_21  and  C82_82
REMARK   11  A    between atoms: C24_24  and  C25_25
REMARK   12  A    between atoms: C25_25  and  C30_30
REMARK   13  A    between atoms: C25_25  and  C31_31
REMARK   14  A    between atoms: C26_26  and  O27_27
REMARK   15  A    between atoms: N28_28  and  C29_29
REMARK   16  A    between atoms: C32_32  and  C34_34
REMARK   17  A    between atoms: C34_34  and  C35_35
REMARK   18  A    between atoms: C34_34  and  O40_40
REMARK   19  A    between atoms: C35_35  and  C36_36
REMARK   20  A    between atoms: C35_35  and  C41_41
REMARK   21  A    between atoms: C36_36  and  C37_37
REMARK   22  A    between atoms: C38_38  and  C39_39
REMARK   23  A    between atoms: C44_44  and  C45_45
REMARK   24  A    between atoms: C45_45  and  C46_46
REMARK   25  A    between atoms: N49_49  and  C77_77
REMARK   26  A    between atoms: C53_53  and  C57_57
REMARK   27  A    between atoms: C57_57  and  C58_58
REMARK   28  A    between atoms: C58_58  and  C59_59
REMARK   29  A    between atoms: C58_58  and  C76_76
REMARK   30  A    between atoms: C61_61  and  C62_62
REMARK   31  A    between atoms: C62_62  and  C63_63
REMARK   32  A    between atoms: C62_62  and  C64_64
REMARK   33  A    between atoms: N66_66  and  C68_68
REMARK   34  A    between atoms: C67_67  and  C75_75
REMARK   35  A    between atoms: C73_73  and  C74_74
REMARK   36  A    between atoms: C75_75  and  C79_79
REMARK   37  A    between atoms: C79_79  and  C80_80
REMARK   38  A    between atoms: C79_79  and  C81_81
REMARK   39  A    between atoms: C82_82  and  C83_83
REMARK   40  A    between atoms: C82_82  and  C84_84
REMARK                            x       y       z     vdW  Elec       q    Type
REMARK                         _______ _______ _______ _____ _____    ______ ____
ROOT
ATOM      1  C1  UNK     0      36.950 -31.643 178.917  0.00  0.00    +0.000 C 
ATOM      2  C2  UNK     0      38.273 -30.834 178.819  0.00  0.00    +0.000 C 
ATOM      3  N3  UNK     0      36.415 -31.707 177.566  0.00  0.00    +0.000 N 
ATOM      4  C4  UNK     0      35.585 -32.709 177.124  0.00  0.00    +0.000 C 
ATOM      5  O5  UNK     0      35.297 -33.688 177.809  0.00  0.00    +0.000 OA
ATOM      6  C6  UNK     0      38.273 -29.548 179.224  0.00  0.00    +0.000 C 
ATOM      7  N7  UNK     0      39.424 -31.482 178.270  0.00  0.00    +0.000 N 
ATOM      8  C8  UNK     0      39.392 -32.913 177.914  0.00  0.00    +0.000 C 
ATOM      9  C9  UNK     0      40.720 -30.756 178.001  0.00  0.00    +0.000 C 
ATOM     10  C10 UNK     0      40.682 -30.027 176.610  0.00  0.00    +0.000 C 
ATOM     11  N11 UNK     0      41.364 -28.779 176.470  0.00  0.00    +0.000 N 
ATOM     12  C12 UNK     0      41.002 -27.769 175.421  0.00  0.00    +0.000 C 
ATOM     13  C13 UNK     0      42.105 -27.680 174.316  0.00  0.00    +0.000 C 
ATOM     14  N14 UNK     0      42.223 -26.456 173.604  0.00  0.00    +0.000 N 
ATOM     15  C19 UNK     0      39.997 -30.579 175.587  0.00  0.00    +0.000 C 
ATOM     16  C20 UNK     0      42.407 -28.347 177.411  0.00  0.00    +0.000 C 
ATOM     17  C22 UNK     0      42.961 -28.694 174.080  0.00  0.00    +0.000 C 
ATOM     18  C23 UNK     0      43.437 -25.680 174.002  0.00  0.00    +0.000 C 
ATOM     19  C24 UNK     0      41.980 -26.420 172.089  0.00  0.00    +0.000 C 
ATOM     20  C26 UNK     0      41.976 -24.896 171.591  0.00  0.00    +0.000 C 
ATOM     21  N28 UNK     0      41.568 -24.727 170.194  0.00  0.00    +0.000 NA
ATOM     22  C29 UNK     0      42.701 -24.945 169.288  0.00  0.00    +0.000 C 
ATOM     23  C32 UNK     0      40.824 -23.462 169.885  0.00  0.00    +0.000 C 
ATOM     24  C33 UNK     0      40.080 -23.729 168.548  0.00  0.00    +0.000 C 
ATOM     25  O42 UNK     0      40.304 -23.133 167.500  0.00  0.00    +0.000 OA
ATOM     26  N43 UNK     0      39.162 -24.756 168.674  0.00  0.00    +0.000 N 
ATOM     27  C44 UNK     0      38.323 -25.215 167.586  0.00  0.00    +0.000 C 
ATOM     28  C47 UNK     0      37.149 -24.223 167.400  0.00  0.00    +0.000 C 
ATOM     29  C48 UNK     0      37.064 -23.644 166.184  0.00  0.00    +0.000 C 
ATOM     30  N49 UNK     0      36.224 -23.923 168.436  0.00  0.00    +0.000 N 
ATOM     31  C50 UNK     0      36.286 -24.431 169.835  0.00  0.00    +0.000 C 
ATOM     32  C51 UNK     0      35.032 -25.247 170.198  0.00  0.00    +0.000 C 
ATOM     33  N52 UNK     0      34.428 -25.847 169.114  0.00  0.00    +0.000 N 
ATOM     34  C53 UNK     0      33.401 -26.867 169.272  0.00  0.00    +0.000 C 
ATOM     35  C54 UNK     0      34.094 -28.200 169.657  0.00  0.00    +0.000 C 
ATOM     36  N55 UNK     0      33.250 -29.116 170.255  0.00  0.00    +0.000 N 
ATOM     37  O56 UNK     0      34.633 -25.388 171.352  0.00  0.00    +0.000 OA
ATOM     38  O60 UNK     0      35.272 -28.431 169.399  0.00  0.00    +0.000 OA
ATOM     39  C61 UNK     0      33.699 -30.391 170.833  0.00  0.00    +0.000 C 
ATOM     40  C65 UNK     0      34.321 -30.082 172.227  0.00  0.00    +0.000 C 
ATOM     41  N66 UNK     0      33.481 -29.521 173.209  0.00  0.00    +0.000 N 
ATOM     42  C67 UNK     0      34.130 -29.153 174.502  0.00  0.00    +0.000 C 
ATOM     43  C68 UNK     0      32.048 -29.817 173.253  0.00  0.00    +0.000 C 
ATOM     44  O69 UNK     0      35.503 -30.334 172.486  0.00  0.00    +0.000 OA
ATOM     45  C70 UNK     0      34.160 -30.429 175.378  0.00  0.00    +0.000 C 
ATOM     46  N71 UNK     0      35.236 -31.258 175.115  0.00  0.00    +0.000 N 
ATOM     47  O72 UNK     0      33.258 -30.733 176.153  0.00  0.00    +0.000 OA
ATOM     48  C73 UNK     0      35.245 -32.633 175.621  0.00  0.00    +0.000 C 
ATOM     49  C74 UNK     0      36.274 -33.459 174.856  0.00  0.00    +0.000 C 
ATOM     50  C77 UNK     0      35.250 -22.823 168.288  0.00  0.00    +0.000 C 
ATOM     51  C78 UNK     0      35.878 -31.123 179.884  0.00  0.00    +0.000 C 
ATOM     52  H2  UNK     0      36.626 -30.946 176.932  0.00  0.00    +0.000 HD
ATOM     53  H58 UNK     0      39.269 -25.342 169.492  0.00  0.00    +0.000 HD
ATOM     54  H69 UNK     0      34.988 -25.830 168.265  0.00  0.00    +0.000 HD
ATOM     55  H71 UNK     0      32.404 -28.728 170.649  0.00  0.00    +0.000 HD
ATOM     56  H90 UNK     0      35.706 -31.078 174.224  0.00  0.00    +0.000 HD
ENDROOT
BRANCH  39  57
ATOM     57  C62 UNK     0      34.600 -31.261 169.917  0.00  0.00    +0.000 C 
ATOM     58  C63 UNK     0      34.861 -32.636 170.555  0.00  0.00    +0.000 C 
ATOM     59  C64 UNK     0      33.964 -31.489 168.539  0.00  0.00    +0.000 C 
ENDBRANCH  39  57
BRANCH  19  60
ATOM     60  C25 UNK     0      40.668 -27.148 171.611  0.00  0.00    +0.000 C 
ATOM     61  C30 UNK     0      40.830 -28.644 171.326  0.00  0.00    +0.000 C 
ATOM     62  C31 UNK     0      39.420 -26.895 172.461  0.00  0.00    +0.000 C 
ENDBRANCH  19  60
BRANCH  20  63
ATOM     63  O27 UNK     0      41.159 -24.117 172.474  0.00  0.00    +0.000 OA
ATOM     64  H34 UNK     0      41.051 -23.262 172.007  0.00  0.00    +0.000 HD
ENDBRANCH  20  63
BRANCH  27  65
ATOM     65  C45 UNK     0      37.902 -26.681 167.783  0.00  0.00    +0.000 C 
ATOM     66  C46 UNK     0      39.044 -27.582 168.233  0.00  0.00    +0.000 C 
ENDBRANCH  27  65
BRANCH  23  67
ATOM     67  C34 UNK     0      41.631 -22.127 169.855  0.00  0.00    +0.000 C 
BRANCH  67  68
ATOM     68  C35 UNK     0      40.789 -20.839 170.117  0.00  0.00    +0.000 C 
ATOM     69  C41 UNK     0      41.602 -19.636 170.602  0.00  0.00    +0.000 C 
BRANCH  68  70
ATOM     70  C36 UNK     0      39.650 -21.165 171.121  0.00  0.00    +0.000 C 
BRANCH  70  71
ATOM     71  C37 UNK     0      39.944 -20.723 172.531  0.00  0.00    +0.000 C 
ATOM     72  C38 UNK     0      38.999 -20.499 173.457  0.00  0.00    +0.000 C 
ATOM     73  C39 UNK     0      39.285 -20.052 174.853  0.00  0.00    +0.000 C 
ENDBRANCH  70  71
ENDBRANCH  68  70
ENDBRANCH  67  68
BRANCH  67  74
ATOM     74  O40 UNK     0      42.647 -22.151 170.884  0.00  0.00    +0.000 OA
ATOM     75  H54 UNK     0      43.438 -21.744 170.477  0.00  0.00    +0.000 HD
ENDBRANCH  67  74
ENDBRANCH  23  67
BRANCH  34  76
ATOM     76  C57 UNK     0      32.618 -26.996 167.955  0.00  0.00    +0.000 C 
BRANCH  76  77
ATOM     77  C58 UNK     0      31.094 -26.774 168.035  0.00  0.00    +0.000 C 
ATOM     78  C59 UNK     0      30.371 -27.197 166.756  0.00  0.00    +0.000 C 
ATOM     79  C76 UNK     0      30.526 -27.553 169.227  0.00  0.00    +0.000 C 
ENDBRANCH  76  77
ENDBRANCH  34  76
BRANCH  12  80
ATOM     80  C21 UNK     0      40.663 -26.387 176.054  0.00  0.00    +0.000 C 
BRANCH  80  81
ATOM     81  C82 UNK     0      39.196 -26.194 176.488  0.00  0.00    +0.000 C 
ATOM     82  C83 UNK     0      38.300 -27.350 176.048  0.00  0.00    +0.000 C 
ATOM     83  C84 UNK     0      38.658 -24.880 175.912  0.00  0.00    +0.000 C 
ENDBRANCH  80  81
ENDBRANCH  12  80
BRANCH  42  84
ATOM     84  C75 UNK     0      33.418 -27.971 175.193  0.00  0.00    +0.000 C 
BRANCH  84  85
ATOM     85  C79 UNK     0      34.282 -26.702 175.346  0.00  0.00    +0.000 C 
ATOM     86  C80 UNK     0      35.414 -26.622 174.322  0.00  0.00    +0.000 C 
ATOM     87  C81 UNK     0      34.871 -26.649 176.759  0.00  0.00    +0.000 C 
ENDBRANCH  84  85
ENDBRANCH  42  84
BRANCH   9  88
ATOM     88  C15 UNK     0      41.999 -31.625 178.181  0.00  0.00    +0.000 C 
BRANCH  88  89
ATOM     89  C16 UNK     0      42.461 -31.757 179.652  0.00  0.00    +0.000 C 
ATOM     90  C17 UNK     0      43.969 -31.947 179.792  0.00  0.00    +0.000 C 
ATOM     91  C18 UNK     0      42.023 -30.521 180.445  0.00  0.00    +0.000 C 
ENDBRANCH  88  89
ENDBRANCH   9  88
TORSDOF 17
ENDMDL
MODEL 9
REMARK VINA RESULT:      -5.3     28.534     33.553
REMARK  Name = CyclosporineA.pdb
REMARK  40 active torsions:
REMARK  status: ('A' for Active; 'I' for Inactive)
REMARK    1  A    between atoms: C1_1  and  C78_78
REMARK    2  A    between atoms: N7_7  and  C8_8
REMARK    3  A    between atoms: C9_9  and  C15_15
REMARK    4  A    between atoms: N11_11  and  C20_20
REMARK    5  A    between atoms: C12_12  and  C21_21
REMARK    6  A    between atoms: N14_14  and  C23_23
REMARK    7  A    between atoms: C15_15  and  C16_16
REMARK    8  A    between atoms: C16_16  and  C17_17
REMARK    9  A    between atoms: C16_16  and  C18_18
REMARK   10  A    between atoms: C21_21  and  C82_82
REMARK   11  A    between atoms: C24_24  and  C25_25
REMARK   12  A    between atoms: C25_25  and  C30_30
REMARK   13  A    between atoms: C25_25  and  C31_31
REMARK   14  A    between atoms: C26_26  and  O27_27
REMARK   15  A    between atoms: N28_28  and  C29_29
REMARK   16  A    between atoms: C32_32  and  C34_34
REMARK   17  A    between atoms: C34_34  and  C35_35
REMARK   18  A    between atoms: C34_34  and  O40_40
REMARK   19  A    between atoms: C35_35  and  C36_36
REMARK   20  A    between atoms: C35_35  and  C41_41
REMARK   21  A    between atoms: C36_36  and  C37_37
REMARK   22  A    between atoms: C38_38  and  C39_39
REMARK   23  A    between atoms: C44_44  and  C45_45
REMARK   24  A    between atoms: C45_45  and  C46_46
REMARK   25  A    between atoms: N49_49  and  C77_77
REMARK   26  A    between atoms: C53_53  and  C57_57
REMARK   27  A    between atoms: C57_57  and  C58_58
REMARK   28  A    between atoms: C58_58  and  C59_59
REMARK   29  A    between atoms: C58_58  and  C76_76
REMARK   30  A    between atoms: C61_61  and  C62_62
REMARK   31  A    between atoms: C62_62  and  C63_63
REMARK   32  A    between atoms: C62_62  and  C64_64
REMARK   33  A    between atoms: N66_66  and  C68_68
REMARK   34  A    between atoms: C67_67  and  C75_75
REMARK   35  A    between atoms: C73_73  and  C74_74
REMARK   36  A    between atoms: C75_75  and  C79_79
REMARK   37  A    between atoms: C79_79  and  C80_80
REMARK   38  A    between atoms: C79_79  and  C81_81
REMARK   39  A    between atoms: C82_82  and  C83_83
REMARK   40  A    between atoms: C82_82  and  C84_84
REMARK                            x       y       z     vdW  Elec       q    Type
REMARK                         _______ _______ _______ _____ _____    ______ ____
ROOT
ATOM      1  C1  UNK     0       8.237  -9.444 178.957  0.00  0.00    +0.000 C 
ATOM      2  C2  UNK     0       8.903 -10.032 180.232  0.00  0.00    +0.000 C 
ATOM      3  N3  UNK     0       7.807 -10.585 178.164  0.00  0.00    +0.000 N 
ATOM      4  C4  UNK     0       6.768 -10.537 177.266  0.00  0.00    +0.000 C 
ATOM      5  O5  UNK     0       6.055  -9.546 177.122  0.00  0.00    +0.000 OA
ATOM      6  C6  UNK     0      10.250 -10.042 180.309  0.00  0.00    +0.000 C 
ATOM      7  N7  UNK     0       8.057 -10.568 181.253  0.00  0.00    +0.000 N 
ATOM      8  C8  UNK     0       6.589 -10.463 181.155  0.00  0.00    +0.000 C 
ATOM      9  C9  UNK     0       8.595 -11.286 182.467  0.00  0.00    +0.000 C 
ATOM     10  C10 UNK     0       8.880 -12.797 182.151  0.00  0.00    +0.000 C 
ATOM     11  N11 UNK     0       9.989 -13.435 182.788  0.00  0.00    +0.000 N 
ATOM     12  C12 UNK     0      10.662 -14.650 182.221  0.00  0.00    +0.000 C 
ATOM     13  C13 UNK     0      10.356 -15.920 183.083  0.00  0.00    +0.000 C 
ATOM     14  N14 UNK     0      11.305 -16.977 183.053  0.00  0.00    +0.000 N 
ATOM     15  C19 UNK     0       8.090 -13.457 181.277  0.00  0.00    +0.000 C 
ATOM     16  C20 UNK     0      10.620 -12.886 183.996  0.00  0.00    +0.000 C 
ATOM     17  C22 UNK     0       9.270 -15.998 183.877  0.00  0.00    +0.000 C 
ATOM     18  C23 UNK     0      12.093 -17.071 184.319  0.00  0.00    +0.000 C 
ATOM     19  C24 UNK     0      10.904 -18.357 182.513  0.00  0.00    +0.000 C 
ATOM     20  C26 UNK     0      12.210 -19.282 182.405  0.00  0.00    +0.000 C 
ATOM     21  N28 UNK     0      11.981 -20.559 181.727  0.00  0.00    +0.000 NA
ATOM     22  C29 UNK     0      11.440 -21.556 182.657  0.00  0.00    +0.000 C 
ATOM     23  C32 UNK     0      13.138 -21.088 180.933  0.00  0.00    +0.000 C 
ATOM     24  C33 UNK     0      12.530 -22.115 179.938  0.00  0.00    +0.000 C 
ATOM     25  O42 UNK     0      12.775 -23.316 179.948  0.00  0.00    +0.000 OA
ATOM     26  N43 UNK     0      11.642 -21.512 179.067  0.00  0.00    +0.000 N 
ATOM     27  C44 UNK     0      10.930 -22.230 178.030  0.00  0.00    +0.000 C 
ATOM     28  C47 UNK     0      11.888 -22.479 176.839  0.00  0.00    +0.000 C 
ATOM     29  C48 UNK     0      12.084 -23.774 176.513  0.00  0.00    +0.000 C 
ATOM     30  N49 UNK     0      12.534 -21.426 176.138  0.00  0.00    +0.000 N 
ATOM     31  C50 UNK     0      12.461 -19.978 176.479  0.00  0.00    +0.000 C 
ATOM     32  C51 UNK     0      11.863 -19.153 175.324  0.00  0.00    +0.000 C 
ATOM     33  N52 UNK     0      11.004 -19.869 174.518  0.00  0.00    +0.000 N 
ATOM     34  C53 UNK     0      10.137 -19.219 173.546  0.00  0.00    +0.000 C 
ATOM     35  C54 UNK     0       8.940 -18.589 174.306  0.00  0.00    +0.000 C 
ATOM     36  N55 UNK     0       8.293 -17.592 173.600  0.00  0.00    +0.000 N 
ATOM     37  O56 UNK     0      12.092 -17.957 175.163  0.00  0.00    +0.000 OA
ATOM     38  O60 UNK     0       8.576 -18.984 175.409  0.00  0.00    +0.000 OA
ATOM     39  C61 UNK     0       7.223 -16.753 174.158  0.00  0.00    +0.000 C 
ATOM     40  C65 UNK     0       7.895 -15.663 175.045  0.00  0.00    +0.000 C 
ATOM     41  N66 UNK     0       8.769 -14.755 174.415  0.00  0.00    +0.000 N 
ATOM     42  C67 UNK     0       9.465 -13.782 175.308  0.00  0.00    +0.000 C 
ATOM     43  C68 UNK     0       8.582 -14.352 173.021  0.00  0.00    +0.000 C 
ATOM     44  O69 UNK     0       7.664 -15.570 176.255  0.00  0.00    +0.000 OA
ATOM     45  C70 UNK     0       8.507 -12.584 175.515  0.00  0.00    +0.000 C 
ATOM     46  N71 UNK     0       7.577 -12.785 176.519  0.00  0.00    +0.000 N 
ATOM     47  O72 UNK     0       8.498 -11.596 174.786  0.00  0.00    +0.000 OA
ATOM     48  C73 UNK     0       6.415 -11.899 176.633  0.00  0.00    +0.000 C 
ATOM     49  C74 UNK     0       5.342 -12.560 177.491  0.00  0.00    +0.000 C 
ATOM     50  C77 UNK     0      13.595 -21.710 175.151  0.00  0.00    +0.000 C 
ATOM     51  C78 UNK     0       9.081  -8.494 178.098  0.00  0.00    +0.000 C 
ATOM     52  H2  UNK     0       8.333 -11.447 178.243  0.00  0.00    +0.000 HD
ATOM     53  H58 UNK     0      11.319 -20.592 179.336  0.00  0.00    +0.000 HD
ATOM     54  H69 UNK     0      10.736 -20.774 174.898  0.00  0.00    +0.000 HD
ATOM     55  H71 UNK     0       8.829 -17.180 172.848  0.00  0.00    +0.000 HD
ATOM     56  H90 UNK     0       7.457 -13.760 176.802  0.00  0.00    +0.000 HD
ENDROOT
BRANCH  39  57
ATOM     57  C62 UNK     0       6.070 -17.518 174.862  0.00  0.00    +0.000 C 
ATOM     58  C63 UNK     0       4.965 -16.547 175.310  0.00  0.00    +0.000 C 
ATOM     59  C64 UNK     0       5.435 -18.569 173.940  0.00  0.00    +0.000 C 
ENDBRANCH  39  57
BRANCH  19  60
ATOM     60  C25 UNK     0      10.144 -18.333 181.134  0.00  0.00    +0.000 C 
ATOM     61  C30 UNK     0       8.621 -18.222 181.241  0.00  0.00    +0.000 C 
ATOM     62  C31 UNK     0      10.684 -17.348 180.094  0.00  0.00    +0.000 C 
ENDBRANCH  19  60
BRANCH  20  63
ATOM     63  O27 UNK     0      13.261 -18.536 181.778  0.00  0.00    +0.000 OA
ATOM     64  H34 UNK     0      14.052 -18.736 182.321  0.00  0.00    +0.000 HD
ENDBRANCH  20  63
BRANCH  27  65
ATOM     65  C45 UNK     0       9.614 -21.523 177.660  0.00  0.00    +0.000 C 
ATOM     66  C46 UNK     0       8.751 -22.322 176.693  0.00  0.00    +0.000 C 
ENDBRANCH  27  65
BRANCH  23  67
ATOM     67  C34 UNK     0      14.356 -21.673 181.714  0.00  0.00    +0.000 C 
BRANCH  67  68
ATOM     68  C35 UNK     0      15.594 -22.033 180.835  0.00  0.00    +0.000 C 
ATOM     69  C41 UNK     0      16.410 -23.224 181.344  0.00  0.00    +0.000 C 
BRANCH  68  70
ATOM     70  C36 UNK     0      16.499 -20.780 180.684  0.00  0.00    +0.000 C 
BRANCH  70  71
ATOM     71  C37 UNK     0      16.373 -20.102 179.345  0.00  0.00    +0.000 C 
ATOM     72  C38 UNK     0      16.606 -20.711 178.173  0.00  0.00    +0.000 C 
ATOM     73  C39 UNK     0      16.491 -20.039 176.845  0.00  0.00    +0.000 C 
ENDBRANCH  70  71
ENDBRANCH  68  70
ENDBRANCH  67  68
BRANCH  67  74
ATOM     74  O40 UNK     0      14.825 -20.703 182.679  0.00  0.00    +0.000 OA
ATOM     75  H54 UNK     0      14.672 -21.112 183.555  0.00  0.00    +0.000 HD
ENDBRANCH  67  74
ENDBRANCH  23  67
BRANCH  34  76
ATOM     76  C57 UNK     0       9.669 -20.260 172.517  0.00  0.00    +0.000 C 
BRANCH  76  77
ATOM     77  C58 UNK     0       9.302 -21.653 173.065  0.00  0.00    +0.000 C 
ATOM     78  C59 UNK     0       7.796 -21.921 173.027  0.00  0.00    +0.000 C 
ATOM     79  C76 UNK     0      10.034 -22.731 172.258  0.00  0.00    +0.000 C 
ENDBRANCH  76  77
ENDBRANCH  34  76
BRANCH  12  80
ATOM     80  C21 UNK     0      12.186 -14.412 182.012  0.00  0.00    +0.000 C 
BRANCH  80  81
ATOM     81  C82 UNK     0      12.599 -13.936 180.605  0.00  0.00    +0.000 C 
ATOM     82  C83 UNK     0      11.397 -13.669 179.702  0.00  0.00    +0.000 C 
ATOM     83  C84 UNK     0      13.507 -14.985 179.952  0.00  0.00    +0.000 C 
ENDBRANCH  80  81
ENDBRANCH  12  80
BRANCH  42  84
ATOM     84  C75 UNK     0      10.838 -13.357 174.744  0.00  0.00    +0.000 C 
BRANCH  84  85
ATOM     85  C79 UNK     0      12.021 -13.567 175.712  0.00  0.00    +0.000 C 
ATOM     86  C80 UNK     0      11.888 -14.835 176.555  0.00  0.00    +0.000 C 
ATOM     87  C81 UNK     0      12.149 -12.352 176.637  0.00  0.00    +0.000 C 
ENDBRANCH  84  85
ENDBRANCH  42  84
BRANCH   9  88
ATOM     88  C15 UNK     0       7.746 -11.099 183.759  0.00  0.00    +0.000 C 
BRANCH  88  89
ATOM     89  C16 UNK     0       6.958 -12.364 184.176  0.00  0.00    +0.000 C 
ATOM     90  C17 UNK     0       7.318 -12.860 185.574  0.00  0.00    +0.000 C 
ATOM     91  C18 UNK     0       5.454 -12.085 184.100  0.00  0.00    +0.000 C 
ENDBRANCH  88  89
ENDBRANCH   9  88
TORSDOF 17
ENDMDL
