MODEL 1
REMARK VINA RESULT:      -7.9      0.000      0.000
REMARK  Name = Danazol.pdbqt.pdb
REMARK  2 active torsions:
REMARK  status: ('A' for Active; 'I' for Inactive)
REMARK    1  A    between atoms: C_9  and  O_23
REMARK    2  A    between atoms: C_9  and  C_25
REMARK                            x       y       z     vdW  Elec       q    Type
REMARK                         _______ _______ _______ _____ _____    ______ ____
ROOT
ATOM      1  O   UNL     1      28.402   3.138 190.470  0.00  0.00    +0.000 OA
ATOM      2  N   UNL     1      28.960   2.513 189.335  0.00  0.00    +0.000 NA
ATOM      3  C   UNL     1      20.818   3.078 189.825  0.00  0.00    +0.000 C 
ATOM      4  C   UNL     1      20.180   2.173 188.646  0.00  0.00    +0.000 C 
ATOM      5  C   UNL     1      22.128   2.787 190.438  0.00  0.00    +0.000 C 
ATOM      6  C   UNL     1      23.110   1.742 189.982  0.00  0.00    +0.000 C 
ATOM      7  C   UNL     1      24.409   1.384 190.742  0.00  0.00    +0.000 C 
ATOM      8  C   UNL     1      21.272   1.286 188.217  0.00  0.00    +0.000 C 
ATOM      9  C   UNL     1      19.673   3.268 187.548  0.00  0.00    +0.000 C 
ATOM     10  C   UNL     1      22.630   1.057 188.832  0.00  0.00    +0.000 C 
ATOM     11  C   UNL     1      20.335   4.412 189.702  0.00  0.00    +0.000 C 
ATOM     12  C   UNL     1      22.644   3.587 191.482  0.00  0.00    +0.000 C 
ATOM     13  C   UNL     1      19.645   4.494 188.373  0.00  0.00    +0.000 C 
ATOM     14  C   UNL     1      24.960   2.561 191.775  0.00  0.00    +0.000 C 
ATOM     15  C   UNL     1      19.023   1.347 189.319  0.00  0.00    +0.000 C 
ATOM     16  C   UNL     1      23.986   3.519 192.148  0.00  0.00    +0.000 C 
ATOM     17  C   UNL     1      25.543   1.203 189.767  0.00  0.00    +0.000 C 
ATOM     18  C   UNL     1      24.174   0.103 191.591  0.00  0.00    +0.000 C 
ATOM     19  C   UNL     1      26.197   2.970 191.596  0.00  0.00    +0.000 C 
ATOM     20  C   UNL     1      26.859   1.737 189.644  0.00  0.00    +0.000 A 
ATOM     21  C   UNL     1      27.166   2.647 190.618  0.00  0.00    +0.000 A 
ATOM     22  C   UNL     1      28.012   1.674 188.867  0.00  0.00    +0.000 A 
ENDROOT
BRANCH   9  23
ATOM     23  O   UNL     1      18.360   3.028 187.018  0.00  0.00    +0.000 OA
ATOM     24  H   UNL     1      18.417   2.256 186.428  0.00  0.00    +0.000 HD
ENDBRANCH   9  23
BRANCH   9  25
ATOM     25  C   UNL     1      20.639   3.396 186.430  0.00  0.00    +0.000 C 
ATOM     26  C   UNL     1      21.403   3.520 185.519  0.00  0.00    +0.000 C 
ENDBRANCH   9  25
TORSDOF 2
ENDMDL
MODEL 2
REMARK VINA RESULT:      -6.9     28.791     32.491
REMARK  Name = Danazol.pdbqt.pdb
REMARK  2 active torsions:
REMARK  status: ('A' for Active; 'I' for Inactive)
REMARK    1  A    between atoms: C_9  and  O_23
REMARK    2  A    between atoms: C_9  and  C_25
REMARK                            x       y       z     vdW  Elec       q    Type
REMARK                         _______ _______ _______ _____ _____    ______ ____
ROOT
ATOM      1  O   UNL     1      37.614  -5.964 166.724  0.00  0.00    +0.000 OA
ATOM      2  N   UNL     1      37.661  -5.726 168.114  0.00  0.00    +0.000 NA
ATOM      3  C   UNL     1      44.355  -4.147 163.692  0.00  0.00    +0.000 C 
ATOM      4  C   UNL     1      45.574  -3.853 164.714  0.00  0.00    +0.000 C 
ATOM      5  C   UNL     1      43.215  -5.017 164.037  0.00  0.00    +0.000 C 
ATOM      6  C   UNL     1      42.932  -5.621 165.386  0.00  0.00    +0.000 C 
ATOM      7  C   UNL     1      41.798  -6.636 165.660  0.00  0.00    +0.000 C 
ATOM      8  C   UNL     1      45.120  -4.384 166.008  0.00  0.00    +0.000 C 
ATOM      9  C   UNL     1      45.767  -2.235 164.631  0.00  0.00    +0.000 C 
ATOM     10  C   UNL     1      43.909  -5.220 166.339  0.00  0.00    +0.000 C 
ATOM     11  C   UNL     1      44.204  -3.036 162.814  0.00  0.00    +0.000 C 
ATOM     12  C   UNL     1      42.179  -5.270 163.109  0.00  0.00    +0.000 C 
ATOM     13  C   UNL     1      45.060  -1.936 163.368  0.00  0.00    +0.000 C 
ATOM     14  C   UNL     1      40.566  -6.624 164.548  0.00  0.00    +0.000 C 
ATOM     15  C   UNL     1      46.797  -4.679 164.171  0.00  0.00    +0.000 C 
ATOM     16  C   UNL     1      40.899  -6.026 163.308  0.00  0.00    +0.000 C 
ATOM     17  C   UNL     1      41.112  -6.305 166.959  0.00  0.00    +0.000 C 
ATOM     18  C   UNL     1      42.387  -8.076 165.675  0.00  0.00    +0.000 C 
ATOM     19  C   UNL     1      39.351  -6.444 165.018  0.00  0.00    +0.000 C 
ATOM     20  C   UNL     1      39.761  -6.091 167.358  0.00  0.00    +0.000 A 
ATOM     21  C   UNL     1      38.872  -6.179 166.322  0.00  0.00    +0.000 A 
ATOM     22  C   UNL     1      38.962  -5.816 168.464  0.00  0.00    +0.000 A 
ENDROOT
BRANCH   9  23
ATOM     23  O   UNL     1      47.130  -1.794 164.523  0.00  0.00    +0.000 OA
ATOM     24  H   UNL     1      47.157  -0.857 164.785  0.00  0.00    +0.000 HD
ENDBRANCH   9  23
BRANCH   9  25
ATOM     25  C   UNL     1      45.120  -1.557 165.782  0.00  0.00    +0.000 C 
ATOM     26  C   UNL     1      44.623  -1.000 166.715  0.00  0.00    +0.000 C 
ENDBRANCH   9  25
TORSDOF 2
ENDMDL
MODEL 3
REMARK VINA RESULT:      -6.7      2.274      3.828
REMARK  Name = Danazol.pdbqt.pdb
REMARK  2 active torsions:
REMARK  status: ('A' for Active; 'I' for Inactive)
REMARK    1  A    between atoms: C_9  and  O_23
REMARK    2  A    between atoms: C_9  and  C_25
REMARK                            x       y       z     vdW  Elec       q    Type
REMARK                         _______ _______ _______ _____ _____    ______ ____
ROOT
ATOM      1  O   UNL     1      31.497   4.928 189.090  0.00  0.00    +0.000 OA
ATOM      2  N   UNL     1      31.747   4.718 187.717  0.00  0.00    +0.000 NA
ATOM      3  C   UNL     1      24.511   2.390 190.729  0.00  0.00    +0.000 C 
ATOM      4  C   UNL     1      23.752   1.519 189.597  0.00  0.00    +0.000 C 
ATOM      5  C   UNL     1      25.981   2.470 190.826  0.00  0.00    +0.000 C 
ATOM      6  C   UNL     1      26.968   1.908 189.840  0.00  0.00    +0.000 C 
ATOM      7  C   UNL     1      28.500   1.899 190.057  0.00  0.00    +0.000 C 
ATOM      8  C   UNL     1      24.806   1.137 188.644  0.00  0.00    +0.000 C 
ATOM      9  C   UNL     1      22.607   2.535 189.029  0.00  0.00    +0.000 C 
ATOM     10  C   UNL     1      26.303   1.291 188.745  0.00  0.00    +0.000 C 
ATOM     11  C   UNL     1      23.680   3.482 191.113  0.00  0.00    +0.000 C 
ATOM     12  C   UNL     1      26.609   3.223 191.844  0.00  0.00    +0.000 C 
ATOM     13  C   UNL     1      22.557   3.532 190.119  0.00  0.00    +0.000 C 
ATOM     14  C   UNL     1      29.055   3.014 191.154  0.00  0.00    +0.000 C 
ATOM     15  C   UNL     1      23.185   0.254 190.338  0.00  0.00    +0.000 C 
ATOM     16  C   UNL     1      28.068   3.512 192.039  0.00  0.00    +0.000 C 
ATOM     17  C   UNL     1      29.204   2.272 188.779  0.00  0.00    +0.000 C 
ATOM     18  C   UNL     1      28.941   0.497 190.566  0.00  0.00    +0.000 C 
ATOM     19  C   UNL     1      29.985   3.843 190.731  0.00  0.00    +0.000 C 
ATOM     20  C   UNL     1      30.192   3.234 188.418  0.00  0.00    +0.000 A 
ATOM     21  C   UNL     1      30.579   4.029 189.462  0.00  0.00    +0.000 A 
ATOM     22  C   UNL     1      30.953   3.691 187.346  0.00  0.00    +0.000 A 
ENDROOT
BRANCH   9  23
ATOM     23  O   UNL     1      21.306   1.949 188.868  0.00  0.00    +0.000 OA
ATOM     24  H   UNL     1      21.428   0.993 188.737  0.00  0.00    +0.000 HD
ENDBRANCH   9  23
BRANCH   9  25
ATOM     25  C   UNL     1      23.028   3.159 187.751  0.00  0.00    +0.000 C 
ATOM     26  C   UNL     1      23.361   3.687 186.732  0.00  0.00    +0.000 C 
ENDBRANCH   9  25
TORSDOF 2
ENDMDL
MODEL 4
REMARK VINA RESULT:      -6.5     23.268     25.897
REMARK  Name = Danazol.pdbqt.pdb
REMARK  2 active torsions:
REMARK  status: ('A' for Active; 'I' for Inactive)
REMARK    1  A    between atoms: C_9  and  O_23
REMARK    2  A    between atoms: C_9  and  C_25
REMARK                            x       y       z     vdW  Elec       q    Type
REMARK                         _______ _______ _______ _____ _____    ______ ____
ROOT
ATOM      1  O   UNL     1       9.835 -14.503 180.982  0.00  0.00    +0.000 OA
ATOM      2  N   UNL     1       8.604 -15.090 180.619  0.00  0.00    +0.000 NA
ATOM      3  C   UNL     1      15.501 -18.769 178.220  0.00  0.00    +0.000 C 
ATOM      4  C   UNL     1      15.110 -19.932 177.166  0.00  0.00    +0.000 C 
ATOM      5  C   UNL     1      14.688 -17.552 178.406  0.00  0.00    +0.000 C 
ATOM      6  C   UNL     1      13.343 -17.279 177.791  0.00  0.00    +0.000 C 
ATOM      7  C   UNL     1      12.595 -15.930 177.909  0.00  0.00    +0.000 C 
ATOM      8  C   UNL     1      13.740 -19.609 176.737  0.00  0.00    +0.000 C 
ATOM      9  C   UNL     1      15.285 -21.309 178.026  0.00  0.00    +0.000 C 
ATOM     10  C   UNL     1      12.910 -18.378 177.000  0.00  0.00    +0.000 C 
ATOM     11  C   UNL     1      16.240 -19.342 179.294  0.00  0.00    +0.000 C 
ATOM     12  C   UNL     1      15.075 -16.546 179.320  0.00  0.00    +0.000 C 
ATOM     13  C   UNL     1      16.122 -20.830 179.146  0.00  0.00    +0.000 C 
ATOM     14  C   UNL     1      13.065 -14.981 179.187  0.00  0.00    +0.000 C 
ATOM     15  C   UNL     1      16.119 -19.784 175.970  0.00  0.00    +0.000 C 
ATOM     16  C   UNL     1      14.334 -15.306 179.726  0.00  0.00    +0.000 C 
ATOM     17  C   UNL     1      11.130 -16.174 178.164  0.00  0.00    +0.000 C 
ATOM     18  C   UNL     1      12.820 -15.099 176.614  0.00  0.00    +0.000 C 
ATOM     19  C   UNL     1      12.119 -14.597 180.016  0.00  0.00    +0.000 C 
ATOM     20  C   UNL     1      10.189 -15.724 179.136  0.00  0.00    +0.000 A 
ATOM     21  C   UNL     1      10.739 -14.899 180.079  0.00  0.00    +0.000 A 
ATOM     22  C   UNL     1       8.850 -15.811 179.504  0.00  0.00    +0.000 A 
ENDROOT
BRANCH   9  23
ATOM     23  O   UNL     1      15.976 -22.365 177.341  0.00  0.00    +0.000 OA
ATOM     24  H   UNL     1      15.309 -23.010 177.047  0.00  0.00    +0.000 HD
ENDBRANCH   9  23
BRANCH   9  25
ATOM     25  C   UNL     1      13.976 -21.811 178.511  0.00  0.00    +0.000 C 
ATOM     26  C   UNL     1      12.934 -22.231 178.919  0.00  0.00    +0.000 C 
ENDBRANCH   9  25
TORSDOF 2
ENDMDL
MODEL 5
REMARK VINA RESULT:      -6.4     20.878     24.542
REMARK  Name = Danazol.pdbqt.pdb
REMARK  2 active torsions:
REMARK  status: ('A' for Active; 'I' for Inactive)
REMARK    1  A    between atoms: C_9  and  O_23
REMARK    2  A    between atoms: C_9  and  C_25
REMARK                            x       y       z     vdW  Elec       q    Type
REMARK                         _______ _______ _______ _____ _____    ______ ____
ROOT
ATOM      1  O   UNL     1      25.017  12.017 162.084  0.00  0.00    +0.000 OA
ATOM      2  N   UNL     1      24.151  10.997 161.637  0.00  0.00    +0.000 NA
ATOM      3  C   UNL     1      26.295  11.064 169.528  0.00  0.00    +0.000 C 
ATOM      4  C   UNL     1      25.795   9.678 170.195  0.00  0.00    +0.000 C 
ATOM      5  C   UNL     1      26.639  11.184 168.098  0.00  0.00    +0.000 C 
ATOM      6  C   UNL     1      26.443  10.128 167.044  0.00  0.00    +0.000 C 
ATOM      7  C   UNL     1      26.947  10.255 165.587  0.00  0.00    +0.000 C 
ATOM      8  C   UNL     1      25.529   8.784 169.058  0.00  0.00    +0.000 C 
ATOM      9  C   UNL     1      24.496  10.120 171.079  0.00  0.00    +0.000 C 
ATOM     10  C   UNL     1      25.837   8.965 167.593  0.00  0.00    +0.000 C 
ATOM     11  C   UNL     1      25.744  12.157 170.254  0.00  0.00    +0.000 C 
ATOM     12  C   UNL     1      27.095  12.407 167.554  0.00  0.00    +0.000 C 
ATOM     13  C   UNL     1      24.711  11.579 171.175  0.00  0.00    +0.000 C 
ATOM     14  C   UNL     1      27.227  11.810 165.078  0.00  0.00    +0.000 C 
ATOM     15  C   UNL     1      27.007   9.151 171.047  0.00  0.00    +0.000 C 
ATOM     16  C   UNL     1      27.385  12.752 166.124  0.00  0.00    +0.000 C 
ATOM     17  C   UNL     1      25.897   9.749 164.633  0.00  0.00    +0.000 C 
ATOM     18  C   UNL     1      28.284   9.476 165.433  0.00  0.00    +0.000 C 
ATOM     19  C   UNL     1      26.601  12.194 163.986  0.00  0.00    +0.000 C 
ATOM     20  C   UNL     1      25.250  10.275 163.476  0.00  0.00    +0.000 A 
ATOM     21  C   UNL     1      25.648  11.546 163.166  0.00  0.00    +0.000 A 
ATOM     22  C   UNL     1      24.320   9.963 162.490  0.00  0.00    +0.000 A 
ENDROOT
BRANCH   9  23
ATOM     23  O   UNL     1      24.446   9.563 172.401  0.00  0.00    +0.000 OA
ATOM     24  H   UNL     1      23.543   9.689 172.740  0.00  0.00    +0.000 HD
ENDBRANCH   9  23
BRANCH   9  25
ATOM     25  C   UNL     1      23.231   9.811 170.367  0.00  0.00    +0.000 C 
ATOM     26  C   UNL     1      22.198   9.569 169.816  0.00  0.00    +0.000 C 
ENDBRANCH   9  25
TORSDOF 2
ENDMDL
MODEL 6
REMARK VINA RESULT:      -6.4     28.666     32.529
REMARK  Name = Danazol.pdbqt.pdb
REMARK  2 active torsions:
REMARK  status: ('A' for Active; 'I' for Inactive)
REMARK    1  A    between atoms: C_9  and  O_23
REMARK    2  A    between atoms: C_9  and  C_25
REMARK                            x       y       z     vdW  Elec       q    Type
REMARK                         _______ _______ _______ _____ _____    ______ ____
ROOT
ATOM      1  O   UNL     1      54.622  -8.938 186.446  0.00  0.00    +0.000 OA
ATOM      2  N   UNL     1      54.061  -8.329 187.588  0.00  0.00    +0.000 NA
ATOM      3  C   UNL     1      53.587  -4.354 180.458  0.00  0.00    +0.000 C 
ATOM      4  C   UNL     1      53.060  -2.854 180.754  0.00  0.00    +0.000 C 
ATOM      5  C   UNL     1      54.349  -5.143 181.445  0.00  0.00    +0.000 C 
ATOM      6  C   UNL     1      54.613  -4.761 182.876  0.00  0.00    +0.000 C 
ATOM      7  C   UNL     1      55.534  -5.559 183.829  0.00  0.00    +0.000 C 
ATOM      8  C   UNL     1      53.267  -2.657 182.197  0.00  0.00    +0.000 C 
ATOM      9  C   UNL     1      51.507  -2.882 180.250  0.00  0.00    +0.000 C 
ATOM     10  C   UNL     1      53.999  -3.519 183.195  0.00  0.00    +0.000 C 
ATOM     11  C   UNL     1      52.717  -4.978 179.520  0.00  0.00    +0.000 C 
ATOM     12  C   UNL     1      54.814  -6.443 181.142  0.00  0.00    +0.000 C 
ATOM     13  C   UNL     1      51.517  -4.086 179.393  0.00  0.00    +0.000 C 
ATOM     14  C   UNL     1      55.784  -7.142 183.395  0.00  0.00    +0.000 C 
ATOM     15  C   UNL     1      53.992  -1.900 179.921  0.00  0.00    +0.000 C 
ATOM     16  C   UNL     1      55.499  -7.432 182.038  0.00  0.00    +0.000 C 
ATOM     17  C   UNL     1      54.902  -5.658 185.193  0.00  0.00    +0.000 C 
ATOM     18  C   UNL     1      56.929  -4.876 183.893  0.00  0.00    +0.000 C 
ATOM     19  C   UNL     1      55.496  -8.053 184.298  0.00  0.00    +0.000 C 
ATOM     20  C   UNL     1      54.598  -6.725 186.087  0.00  0.00    +0.000 A 
ATOM     21  C   UNL     1      54.929  -7.956 185.590  0.00  0.00    +0.000 A 
ATOM     22  C   UNL     1      54.066  -7.001 187.343  0.00  0.00    +0.000 A 
ENDROOT
BRANCH   9  23
ATOM     23  O   UNL     1      51.106  -1.749 179.465  0.00  0.00    +0.000 OA
ATOM     24  H   UNL     1      51.561  -0.967 179.823  0.00  0.00    +0.000 HD
ENDBRANCH   9  23
BRANCH   9  25
ATOM     25  C   UNL     1      50.574  -3.045 181.392  0.00  0.00    +0.000 C 
ATOM     26  C   UNL     1      49.802  -3.179 182.295  0.00  0.00    +0.000 C 
ENDBRANCH   9  25
TORSDOF 2
ENDMDL
MODEL 7
REMARK VINA RESULT:      -6.2     31.771     35.090
REMARK  Name = Danazol.pdbqt.pdb
REMARK  2 active torsions:
REMARK  status: ('A' for Active; 'I' for Inactive)
REMARK    1  A    between atoms: C_9  and  O_23
REMARK    2  A    between atoms: C_9  and  C_25
REMARK                            x       y       z     vdW  Elec       q    Type
REMARK                         _______ _______ _______ _____ _____    ______ ____
ROOT
ATOM      1  O   UNL     1      44.753 -11.640 159.526  0.00  0.00    +0.000 OA
ATOM      2  N   UNL     1      45.705 -10.870 158.826  0.00  0.00    +0.000 NA
ATOM      3  C   UNL     1      41.747  -7.376 165.070  0.00  0.00    +0.000 C 
ATOM      4  C   UNL     1      42.081  -5.794 165.053  0.00  0.00    +0.000 C 
ATOM      5  C   UNL     1      41.752  -8.208 163.851  0.00  0.00    +0.000 C 
ATOM      6  C   UNL     1      42.198  -7.775 162.481  0.00  0.00    +0.000 C 
ATOM      7  C   UNL     1      42.054  -8.643 161.209  0.00  0.00    +0.000 C 
ATOM      8  C   UNL     1      42.614  -5.533 163.707  0.00  0.00    +0.000 C 
ATOM      9  C   UNL     1      43.131  -5.606 166.288  0.00  0.00    +0.000 C 
ATOM     10  C   UNL     1      42.662  -6.431 162.496  0.00  0.00    +0.000 C 
ATOM     11  C   UNL     1      42.105  -7.915 166.338  0.00  0.00    +0.000 C 
ATOM     12  C   UNL     1      41.432  -9.584 163.901  0.00  0.00    +0.000 C 
ATOM     13  C   UNL     1      42.892  -6.852 167.046  0.00  0.00    +0.000 C 
ATOM     14  C   UNL     1      41.896 -10.271 161.489  0.00  0.00    +0.000 C 
ATOM     15  C   UNL     1      40.703  -5.064 165.258  0.00  0.00    +0.000 C 
ATOM     16  C   UNL     1      41.489 -10.605 162.804  0.00  0.00    +0.000 C 
ATOM     17  C   UNL     1      43.303  -8.543 160.372  0.00  0.00    +0.000 C 
ATOM     18  C   UNL     1      40.796  -8.191 160.415  0.00  0.00    +0.000 C 
ATOM     19  C   UNL     1      42.761 -11.059 160.888  0.00  0.00    +0.000 C 
ATOM     20  C   UNL     1      44.203  -9.483 159.791  0.00  0.00    +0.000 A 
ATOM     21  C   UNL     1      43.885 -10.782 160.075  0.00  0.00    +0.000 A 
ATOM     22  C   UNL     1      45.344  -9.581 158.999  0.00  0.00    +0.000 A 
ENDROOT
BRANCH   9  23
ATOM     23  O   UNL     1      42.867  -4.480 167.140  0.00  0.00    +0.000 OA
ATOM     24  H   UNL     1      43.071  -3.674 166.633  0.00  0.00    +0.000 HD
ENDBRANCH   9  23
BRANCH   9  25
ATOM     25  C   UNL     1      44.530  -5.536 165.799  0.00  0.00    +0.000 C 
ATOM     26  C   UNL     1      45.663  -5.502 165.420  0.00  0.00    +0.000 C 
ENDBRANCH   9  25
TORSDOF 2
ENDMDL
MODEL 8
REMARK VINA RESULT:      -6.1     24.053     26.394
REMARK  Name = Danazol.pdbqt.pdb
REMARK  2 active torsions:
REMARK  status: ('A' for Active; 'I' for Inactive)
REMARK    1  A    between atoms: C_9  and  O_23
REMARK    2  A    between atoms: C_9  and  C_25
REMARK                            x       y       z     vdW  Elec       q    Type
REMARK                         _______ _______ _______ _____ _____    ______ ____
ROOT
ATOM      1  O   UNL     1      15.256 -19.468 171.805  0.00  0.00    +0.000 OA
ATOM      2  N   UNL     1      14.240 -18.900 171.006  0.00  0.00    +0.000 NA
ATOM      3  C   UNL     1      14.152 -17.363 179.036  0.00  0.00    +0.000 C 
ATOM      4  C   UNL     1      12.749 -16.641 179.394  0.00  0.00    +0.000 C 
ATOM      5  C   UNL     1      14.304 -18.298 177.905  0.00  0.00    +0.000 C 
ATOM      6  C   UNL     1      13.270 -18.599 176.855  0.00  0.00    +0.000 C 
ATOM      7  C   UNL     1      13.431 -19.690 175.769  0.00  0.00    +0.000 C 
ATOM      8  C   UNL     1      11.878 -16.914 178.240  0.00  0.00    +0.000 C 
ATOM      9  C   UNL     1      13.165 -15.080 179.624  0.00  0.00    +0.000 C 
ATOM     10  C   UNL     1      12.092 -17.831 177.063  0.00  0.00    +0.000 C 
ATOM     11  C   UNL     1      15.227 -16.533 179.465  0.00  0.00    +0.000 C 
ATOM     12  C   UNL     1      15.541 -18.929 177.637  0.00  0.00    +0.000 C 
ATOM     13  C   UNL     1      14.623 -15.209 179.830  0.00  0.00    +0.000 C 
ATOM     14  C   UNL     1      14.998 -20.142 175.461  0.00  0.00    +0.000 C 
ATOM     15  C   UNL     1      12.211 -17.364 180.682  0.00  0.00    +0.000 C 
ATOM     16  C   UNL     1      15.918 -19.812 176.486  0.00  0.00    +0.000 C 
ATOM     17  C   UNL     1      12.939 -19.173 174.443  0.00  0.00    +0.000 C 
ATOM     18  C   UNL     1      12.663 -20.970 176.205  0.00  0.00    +0.000 C 
ATOM     19  C   UNL     1      15.401 -20.054 174.212  0.00  0.00    +0.000 C 
ATOM     20  C   UNL     1      13.486 -19.092 173.129  0.00  0.00    +0.000 A 
ATOM     21  C   UNL     1      14.766 -19.567 173.046  0.00  0.00    +0.000 A 
ATOM     22  C   UNL     1      13.190 -18.693 171.829  0.00  0.00    +0.000 A 
ENDROOT
BRANCH   9  23
ATOM     23  O   UNL     1      12.580 -14.463 180.781  0.00  0.00    +0.000 OA
ATOM     24  H   UNL     1      13.306 -14.200 181.373  0.00  0.00    +0.000 HD
ENDBRANCH   9  23
BRANCH   9  25
ATOM     25  C   UNL     1      12.864 -14.260 178.424  0.00  0.00    +0.000 C 
ATOM     26  C   UNL     1      12.637 -13.580 177.468  0.00  0.00    +0.000 C 
ENDBRANCH   9  25
TORSDOF 2
ENDMDL
MODEL 9
REMARK VINA RESULT:      -6.1      5.181      7.095
REMARK  Name = Danazol.pdbqt.pdb
REMARK  2 active torsions:
REMARK  status: ('A' for Active; 'I' for Inactive)
REMARK    1  A    between atoms: C_9  and  O_23
REMARK    2  A    between atoms: C_9  and  C_25
REMARK                            x       y       z     vdW  Elec       q    Type
REMARK                         _______ _______ _______ _____ _____    ______ ____
ROOT
ATOM      1  O   UNL     1      26.757  -5.055 196.361  0.00  0.00    +0.000 OA
ATOM      2  N   UNL     1      26.163  -5.181 197.634  0.00  0.00    +0.000 NA
ATOM      3  C   UNL     1      23.126   0.397 192.484  0.00  0.00    +0.000 C 
ATOM      4  C   UNL     1      22.083   1.323 193.304  0.00  0.00    +0.000 C 
ATOM      5  C   UNL     1      24.272  -0.276 193.124  0.00  0.00    +0.000 C 
ATOM      6  C   UNL     1      24.557  -0.337 194.600  0.00  0.00    +0.000 C 
ATOM      7  C   UNL     1      25.845  -0.939 195.209  0.00  0.00    +0.000 C 
ATOM      8  C   UNL     1      22.393   1.078 194.721  0.00  0.00    +0.000 C 
ATOM      9  C   UNL     1      20.622   0.808 192.790  0.00  0.00    +0.000 C 
ATOM     10  C   UNL     1      23.543   0.327 195.344  0.00  0.00    +0.000 C 
ATOM     11  C   UNL     1      22.461  -0.173 191.361  0.00  0.00    +0.000 C 
ATOM     12  C   UNL     1      25.177  -1.059 192.371  0.00  0.00    +0.000 C 
ATOM     13  C   UNL     1      20.999   0.103 191.548  0.00  0.00    +0.000 C 
ATOM     14  C   UNL     1      26.652  -2.004 194.224  0.00  0.00    +0.000 C 
ATOM     15  C   UNL     1      22.423   2.806 192.908  0.00  0.00    +0.000 C 
ATOM     16  C   UNL     1      26.322  -1.900 192.850  0.00  0.00    +0.000 C 
ATOM     17  C   UNL     1      25.505  -1.763 196.424  0.00  0.00    +0.000 C 
ATOM     18  C   UNL     1      26.838   0.207 195.555  0.00  0.00    +0.000 C 
ATOM     19  C   UNL     1      26.888  -3.200 194.717  0.00  0.00    +0.000 C 
ATOM     20  C   UNL     1      25.788  -3.093 196.850  0.00  0.00    +0.000 A 
ATOM     21  C   UNL     1      26.517  -3.808 195.939  0.00  0.00    +0.000 A 
ATOM     22  C   UNL     1      25.596  -3.985 197.901  0.00  0.00    +0.000 A 
ENDROOT
BRANCH   9  23
ATOM     23  O   UNL     1      19.690   1.854 192.474  0.00  0.00    +0.000 OA
ATOM     24  H   UNL     1      19.466   1.773 191.530  0.00  0.00    +0.000 HD
ENDBRANCH   9  23
BRANCH   9  25
ATOM     25  C   UNL     1      20.005  -0.122 193.769  0.00  0.00    +0.000 C 
ATOM     26  C   UNL     1      19.485  -0.870 194.542  0.00  0.00    +0.000 C 
ENDBRANCH   9  25
TORSDOF 2
ENDMDL
