MODEL 1
REMARK VINA RESULT:      -8.3      0.000      0.000
REMARK  Name = Dasatinib.pdbqt.pdb
REMARK  5 active torsions:
REMARK  status: ('A' for Active; 'I' for Inactive)
REMARK    1  A    between atoms: N_1  and  C_3
REMARK    2  A    between atoms: N_13  and  C_16
REMARK    3  A    between atoms: C_17  and  O_18
REMARK    4  A    between atoms: C_22  and  C_25
REMARK    5  A    between atoms: N_27  and  C_29
REMARK                            x       y       z     vdW  Elec       q    Type
REMARK                         _______ _______ _______ _____ _____    ______ ____
ROOT
ATOM      1  N   UNL     1      27.535   3.220 189.941  0.00  0.00    +0.000 N 
ATOM      2  H   UNL     1      27.241   4.010 190.502  0.00  0.00    +0.000 HD
ATOM      3  C   UNL     1      26.549   2.512 189.342  0.00  0.00    +0.000 A 
ATOM      4  S   UNL     1      24.902   2.906 189.696  0.00  0.00    +0.000 S 
ATOM      5  C   UNL     1      24.369   1.654 188.655  0.00  0.00    +0.000 A 
ATOM      6  C   UNL     1      25.471   1.024 188.127  0.00  0.00    +0.000 A 
ATOM      7  N   UNL     1      26.697   1.486 188.534  0.00  0.00    +0.000 NA
ENDROOT
BRANCH   1   8
ATOM      8  C   UNL     1      28.842   3.364 189.427  0.00  0.00    +0.000 A 
ATOM      9  N   UNL     1      29.146   4.314 188.535  0.00  0.00    +0.000 NA
ATOM     10  C   UNL     1      30.398   4.334 188.065  0.00  0.00    +0.000 A 
ATOM     11  N   UNL     1      31.376   3.496 188.426  0.00  0.00    +0.000 NA
ATOM     12  C   UNL     1      30.750   5.409 187.079  0.00  0.00    +0.000 C 
ATOM     13  C   UNL     1      31.069   2.553 189.334  0.00  0.00    +0.000 A 
ATOM     14  C   UNL     1      29.788   2.451 189.854  0.00  0.00    +0.000 A 
ATOM     15  N   UNL     1      32.045   1.602 189.733  0.00  0.00    +0.000 N 
ATOM     16  C   UNL     1      32.018   1.113 191.138  0.00  0.00    +0.000 C 
ATOM     17  C   UNL     1      33.194   1.040 192.149  0.00  0.00    +0.000 C 
ATOM     18  N   UNL     1      34.633   1.413 192.055  0.00  0.00    +0.000 N 
ATOM     19  C   UNL     1      34.599   1.886 190.643  0.00  0.00    +0.000 C 
ATOM     20  C   UNL     1      33.472   1.988 189.582  0.00  0.00    +0.000 C 
BRANCH  18  21
ATOM     21  C   UNL     1      35.389   0.168 192.061  0.00  0.00    +0.000 C 
ATOM     22  C   UNL     1      36.187  -1.142 192.068  0.00  0.00    +0.000 C 
BRANCH  22  23
ATOM     23  O   UNL     1      36.880  -2.275 192.074  0.00  0.00    +0.000 OA
ATOM     24  H   UNL     1      36.718  -2.776 191.257  0.00  0.00    +0.000 HD
ENDBRANCH  22  23
ENDBRANCH  18  21
ENDBRANCH   1   8
BRANCH   5  25
ATOM     25  C   UNL     1      22.961   1.410 188.438  0.00  0.00    +0.000 C 
ATOM     26  O   UNL     1      22.508   0.307 188.141  0.00  0.00    +0.000 OA
ATOM     27  N   UNL     1      22.165   2.546 188.510  0.00  0.00    +0.000 N 
ATOM     28  H   UNL     1      22.614   3.416 188.227  0.00  0.00    +0.000 HD
BRANCH  27  29
ATOM     29  C   UNL     1      20.747   2.536 188.343  0.00  0.00    +0.000 A 
ATOM     30  C   UNL     1      20.225   2.967 187.106  0.00  0.00    +0.000 A 
ATOM     31  C   UNL     1      18.855   2.957 186.850  0.00  0.00    +0.000 A 
ATOM     32  C   UNL     1      21.151   3.439 186.003  0.00  0.00    +0.000 C 
ATOM     33  C   UNL     1      17.972   2.535 187.835  0.00  0.00    +0.000 A 
ATOM     34  C   UNL     1      18.460   2.171 189.085  0.00  0.00    +0.000 A 
ATOM     35  C   UNL     1      19.833   2.178 189.349  0.00  0.00    +0.000 A 
ATOM     36 CL   UNL     1      20.270   1.970 191.008  0.00  0.00    +0.000 Cl
ENDBRANCH  27  29
ENDBRANCH   5  25
TORSDOF 5
ENDMDL
MODEL 2
REMARK VINA RESULT:      -8.1      7.971     12.040
REMARK  Name = Dasatinib.pdbqt.pdb
REMARK  5 active torsions:
REMARK  status: ('A' for Active; 'I' for Inactive)
REMARK    1  A    between atoms: N_1  and  C_3
REMARK    2  A    between atoms: N_13  and  C_16
REMARK    3  A    between atoms: C_17  and  O_18
REMARK    4  A    between atoms: C_22  and  C_25
REMARK    5  A    between atoms: N_27  and  C_29
REMARK                            x       y       z     vdW  Elec       q    Type
REMARK                         _______ _______ _______ _____ _____    ______ ____
ROOT
ATOM      1  N   UNL     1      22.047   2.082 194.170  0.00  0.00    +0.000 N 
ATOM      2  H   UNL     1      22.971   2.476 194.304  0.00  0.00    +0.000 HD
ATOM      3  C   UNL     1      21.460   2.325 192.976  0.00  0.00    +0.000 A 
ATOM      4  S   UNL     1      22.245   3.387 191.858  0.00  0.00    +0.000 S 
ATOM      5  C   UNL     1      20.959   3.179 190.745  0.00  0.00    +0.000 A 
ATOM      6  C   UNL     1      20.029   2.334 191.301  0.00  0.00    +0.000 A 
ATOM      7  N   UNL     1      20.294   1.876 192.566  0.00  0.00    +0.000 NA
ENDROOT
BRANCH   1   8
ATOM      8  C   UNL     1      21.821   0.930 194.955  0.00  0.00    +0.000 A 
ATOM      9  N   UNL     1      22.799   0.056 195.217  0.00  0.00    +0.000 NA
ATOM     10  C   UNL     1      22.472  -1.034 195.921  0.00  0.00    +0.000 A 
ATOM     11  N   UNL     1      21.254  -1.314 196.400  0.00  0.00    +0.000 NA
ATOM     12  C   UNL     1      23.568  -2.010 196.236  0.00  0.00    +0.000 C 
ATOM     13  C   UNL     1      20.279  -0.424 196.146  0.00  0.00    +0.000 A 
ATOM     14  C   UNL     1      20.530   0.721 195.404  0.00  0.00    +0.000 A 
ATOM     15  N   UNL     1      18.952  -0.674 196.585  0.00  0.00    +0.000 N 
ATOM     16  C   UNL     1      18.115   0.486 196.993  0.00  0.00    +0.000 C 
ATOM     17  C   UNL     1      17.293   0.661 198.298  0.00  0.00    +0.000 C 
ATOM     18  N   UNL     1      17.090  -0.209 199.491  0.00  0.00    +0.000 N 
ATOM     19  C   UNL     1      17.939  -1.341 199.026  0.00  0.00    +0.000 C 
ATOM     20  C   UNL     1      18.782  -1.585 197.747  0.00  0.00    +0.000 C 
BRANCH  18  21
ATOM     21  C   UNL     1      15.710  -0.672 199.439  0.00  0.00    +0.000 C 
ATOM     22  C   UNL     1      14.257  -1.161 199.386  0.00  0.00    +0.000 C 
BRANCH  22  23
ATOM     23  O   UNL     1      13.000  -1.586 199.342  0.00  0.00    +0.000 OA
ATOM     24  H   UNL     1      12.637  -1.667 200.240  0.00  0.00    +0.000 HD
ENDBRANCH  22  23
ENDBRANCH  18  21
ENDBRANCH   1   8
BRANCH   5  25
ATOM     25  C   UNL     1      20.975   3.828 189.453  0.00  0.00    +0.000 C 
ATOM     26  O   UNL     1      20.256   4.784 189.172  0.00  0.00    +0.000 OA
ATOM     27  N   UNL     1      21.815   3.230 188.522  0.00  0.00    +0.000 N 
ATOM     28  H   UNL     1      21.939   2.224 188.624  0.00  0.00    +0.000 HD
BRANCH  27  29
ATOM     29  C   UNL     1      21.998   3.713 187.190  0.00  0.00    +0.000 A 
ATOM     30  C   UNL     1      21.082   3.291 186.204  0.00  0.00    +0.000 A 
ATOM     31  C   UNL     1      21.171   3.741 184.888  0.00  0.00    +0.000 A 
ATOM     32  C   UNL     1      19.954   2.343 186.558  0.00  0.00    +0.000 C 
ATOM     33  C   UNL     1      22.192   4.608 184.522  0.00  0.00    +0.000 A 
ATOM     34  C   UNL     1      23.146   4.982 185.462  0.00  0.00    +0.000 A 
ATOM     35  C   UNL     1      23.063   4.535 186.784  0.00  0.00    +0.000 A 
ATOM     36 CL   UNL     1      24.453   4.852 187.761  0.00  0.00    +0.000 Cl
ENDBRANCH  27  29
ENDBRANCH   5  25
TORSDOF 5
ENDMDL
MODEL 3
REMARK VINA RESULT:      -8.0      7.656     12.601
REMARK  Name = Dasatinib.pdbqt.pdb
REMARK  5 active torsions:
REMARK  status: ('A' for Active; 'I' for Inactive)
REMARK    1  A    between atoms: N_1  and  C_3
REMARK    2  A    between atoms: N_13  and  C_16
REMARK    3  A    between atoms: C_17  and  O_18
REMARK    4  A    between atoms: C_22  and  C_25
REMARK    5  A    between atoms: N_27  and  C_29
REMARK                            x       y       z     vdW  Elec       q    Type
REMARK                         _______ _______ _______ _____ _____    ______ ____
ROOT
ATOM      1  N   UNL     1      21.012   1.893 194.495  0.00  0.00    +0.000 N 
ATOM      2  H   UNL     1      21.502   2.740 194.757  0.00  0.00    +0.000 HD
ATOM      3  C   UNL     1      21.018   1.580 193.179  0.00  0.00    +0.000 A 
ATOM      4  S   UNL     1      21.711   2.698 192.056  0.00  0.00    +0.000 S 
ATOM      5  C   UNL     1      21.325   1.649 190.758  0.00  0.00    +0.000 A 
ATOM      6  C   UNL     1      20.693   0.539 191.265  0.00  0.00    +0.000 A 
ATOM      7  N   UNL     1      20.494   0.511 192.622  0.00  0.00    +0.000 NA
ENDROOT
BRANCH   1   8
ATOM      8  C   UNL     1      20.948   0.948 195.543  0.00  0.00    +0.000 A 
ATOM      9  N   UNL     1      22.038   0.308 195.980  0.00  0.00    +0.000 NA
ATOM     10  C   UNL     1      21.866  -0.610 196.938  0.00  0.00    +0.000 A 
ATOM     11  N   UNL     1      20.698  -0.929 197.507  0.00  0.00    +0.000 NA
ATOM     12  C   UNL     1      23.088  -1.317 197.447  0.00  0.00    +0.000 C 
ATOM     13  C   UNL     1      19.608  -0.272 197.074  0.00  0.00    +0.000 A 
ATOM     14  C   UNL     1      19.697   0.679 196.069  0.00  0.00    +0.000 A 
ATOM     15  N   UNL     1      18.327  -0.588 197.601  0.00  0.00    +0.000 N 
ATOM     16  C   UNL     1      17.333   0.510 197.740  0.00  0.00    +0.000 C 
ATOM     17  C   UNL     1      16.489   0.884 198.988  0.00  0.00    +0.000 C 
ATOM     18  N   UNL     1      16.405   0.314 200.362  0.00  0.00    +0.000 N 
ATOM     19  C   UNL     1      17.408  -0.770 200.161  0.00  0.00    +0.000 C 
ATOM     20  C   UNL     1      18.282  -1.201 198.954  0.00  0.00    +0.000 C 
BRANCH  18  21
ATOM     21  C   UNL     1      15.105  -0.334 200.466  0.00  0.00    +0.000 C 
ATOM     22  C   UNL     1      13.736  -1.019 200.577  0.00  0.00    +0.000 C 
BRANCH  22  23
ATOM     23  O   UNL     1      12.553  -1.613 200.672  0.00  0.00    +0.000 OA
ATOM     24  H   UNL     1      12.417  -2.220 199.925  0.00  0.00    +0.000 HD
ENDBRANCH  22  23
ENDBRANCH  18  21
ENDBRANCH   1   8
BRANCH   5  25
ATOM     25  C   UNL     1      21.676   1.982 189.396  0.00  0.00    +0.000 C 
ATOM     26  O   UNL     1      22.222   1.192 188.629  0.00  0.00    +0.000 OA
ATOM     27  N   UNL     1      21.421   3.302 189.047  0.00  0.00    +0.000 N 
ATOM     28  H   UNL     1      21.490   3.980 189.805  0.00  0.00    +0.000 HD
BRANCH  27  29
ATOM     29  C   UNL     1      21.674   3.846 187.750  0.00  0.00    +0.000 A 
ATOM     30  C   UNL     1      22.781   4.708 187.601  0.00  0.00    +0.000 A 
ATOM     31  C   UNL     1      23.117   5.253 186.364  0.00  0.00    +0.000 A 
ATOM     32  C   UNL     1      23.654   5.051 188.791  0.00  0.00    +0.000 C 
ATOM     33  C   UNL     1      22.340   4.966 185.248  0.00  0.00    +0.000 A 
ATOM     34  C   UNL     1      21.206   4.175 185.386  0.00  0.00    +0.000 A 
ATOM     35  C   UNL     1      20.863   3.623 186.625  0.00  0.00    +0.000 A 
ATOM     36 CL   UNL     1      19.297   2.897 186.704  0.00  0.00    +0.000 Cl
ENDBRANCH  27  29
ENDBRANCH   5  25
TORSDOF 5
ENDMDL
MODEL 4
REMARK VINA RESULT:      -8.0      1.463      1.988
REMARK  Name = Dasatinib.pdbqt.pdb
REMARK  5 active torsions:
REMARK  status: ('A' for Active; 'I' for Inactive)
REMARK    1  A    between atoms: N_1  and  C_3
REMARK    2  A    between atoms: N_13  and  C_16
REMARK    3  A    between atoms: C_17  and  O_18
REMARK    4  A    between atoms: C_22  and  C_25
REMARK    5  A    between atoms: N_27  and  C_29
REMARK                            x       y       z     vdW  Elec       q    Type
REMARK                         _______ _______ _______ _____ _____    ______ ____
ROOT
ATOM      1  N   UNL     1      27.325   2.844 190.636  0.00  0.00    +0.000 N 
ATOM      2  H   UNL     1      27.300   3.235 191.570  0.00  0.00    +0.000 HD
ATOM      3  C   UNL     1      26.140   2.772 189.986  0.00  0.00    +0.000 A 
ATOM      4  S   UNL     1      24.694   3.198 190.833  0.00  0.00    +0.000 S 
ATOM      5  C   UNL     1      23.763   2.841 189.439  0.00  0.00    +0.000 A 
ATOM      6  C   UNL     1      24.609   2.417 188.443  0.00  0.00    +0.000 A 
ATOM      7  N   UNL     1      25.942   2.350 188.757  0.00  0.00    +0.000 NA
ENDROOT
BRANCH   1   8
ATOM      8  C   UNL     1      28.577   3.007 190.004  0.00  0.00    +0.000 A 
ATOM      9  N   UNL     1      28.780   3.954 189.081  0.00  0.00    +0.000 NA
ATOM     10  C   UNL     1      29.983   3.992 188.498  0.00  0.00    +0.000 A 
ATOM     11  N   UNL     1      31.006   3.175 188.774  0.00  0.00    +0.000 NA
ATOM     12  C   UNL     1      30.224   5.063 187.475  0.00  0.00    +0.000 C 
ATOM     13  C   UNL     1      30.801   2.236 189.714  0.00  0.00    +0.000 A 
ATOM     14  C   UNL     1      29.575   2.115 190.350  0.00  0.00    +0.000 A 
ATOM     15  N   UNL     1      31.827   1.306 190.029  0.00  0.00    +0.000 N 
ATOM     16  C   UNL     1      31.938   0.830 191.435  0.00  0.00    +0.000 C 
ATOM     17  C   UNL     1      33.203   0.787 192.334  0.00  0.00    +0.000 C 
ATOM     18  N   UNL     1      34.620   1.186 192.106  0.00  0.00    +0.000 N 
ATOM     19  C   UNL     1      34.448   1.645 190.700  0.00  0.00    +0.000 C 
ATOM     20  C   UNL     1      33.227   1.716 189.745  0.00  0.00    +0.000 C 
BRANCH  18  21
ATOM     21  C   UNL     1      35.397  -0.045 192.052  0.00  0.00    +0.000 C 
ATOM     22  C   UNL     1      36.216  -1.341 191.996  0.00  0.00    +0.000 C 
BRANCH  22  23
ATOM     23  O   UNL     1      36.928  -2.461 191.947  0.00  0.00    +0.000 OA
ATOM     24  H   UNL     1      37.836  -2.273 191.656  0.00  0.00    +0.000 HD
ENDBRANCH  22  23
ENDBRANCH  18  21
ENDBRANCH   1   8
BRANCH   5  25
ATOM     25  C   UNL     1      22.328   3.015 189.433  0.00  0.00    +0.000 C 
ATOM     26  O   UNL     1      21.778   4.084 189.690  0.00  0.00    +0.000 OA
ATOM     27  N   UNL     1      21.611   1.849 189.193  0.00  0.00    +0.000 N 
ATOM     28  H   UNL     1      22.051   0.988 189.515  0.00  0.00    +0.000 HD
BRANCH  27  29
ATOM     29  C   UNL     1      20.185   1.791 189.128  0.00  0.00    +0.000 A 
ATOM     30  C   UNL     1      19.500   1.181 190.200  0.00  0.00    +0.000 A 
ATOM     31  C   UNL     1      18.109   1.113 190.229  0.00  0.00    +0.000 A 
ATOM     32  C   UNL     1      20.266   0.596 191.369  0.00  0.00    +0.000 C 
ATOM     33  C   UNL     1      17.369   1.634 189.176  0.00  0.00    +0.000 A 
ATOM     34  C   UNL     1      18.026   2.177 188.077  0.00  0.00    +0.000 A 
ATOM     35  C   UNL     1      19.422   2.250 188.041  0.00  0.00    +0.000 A 
ATOM     36 CL   UNL     1      20.101   2.692 186.515  0.00  0.00    +0.000 Cl
ENDBRANCH  27  29
ENDBRANCH   5  25
TORSDOF 5
ENDMDL
MODEL 5
REMARK VINA RESULT:      -7.8     26.433     29.641
REMARK  Name = Dasatinib.pdbqt.pdb
REMARK  5 active torsions:
REMARK  status: ('A' for Active; 'I' for Inactive)
REMARK    1  A    between atoms: N_1  and  C_3
REMARK    2  A    between atoms: N_13  and  C_16
REMARK    3  A    between atoms: C_17  and  O_18
REMARK    4  A    between atoms: C_22  and  C_25
REMARK    5  A    between atoms: N_27  and  C_29
REMARK                            x       y       z     vdW  Elec       q    Type
REMARK                         _______ _______ _______ _____ _____    ______ ____
ROOT
ATOM      1  N   UNL     1      34.445  -6.947 163.538  0.00  0.00    +0.000 N 
ATOM      2  H   UNL     1      34.457  -7.451 162.659  0.00  0.00    +0.000 HD
ATOM      3  C   UNL     1      35.605  -6.930 164.234  0.00  0.00    +0.000 A 
ATOM      4  S   UNL     1      36.938  -7.872 163.662  0.00  0.00    +0.000 S 
ATOM      5  C   UNL     1      37.886  -7.354 164.992  0.00  0.00    +0.000 A 
ATOM      6  C   UNL     1      37.125  -6.519 165.775  0.00  0.00    +0.000 A 
ATOM      7  N   UNL     1      35.834  -6.302 165.366  0.00  0.00    +0.000 NA
ENDROOT
BRANCH   1   8
ATOM      8  C   UNL     1      33.477  -5.920 163.570  0.00  0.00    +0.000 A 
ATOM      9  N   UNL     1      33.761  -4.673 163.179  0.00  0.00    +0.000 NA
ATOM     10  C   UNL     1      32.793  -3.757 163.301  0.00  0.00    +0.000 A 
ATOM     11  N   UNL     1      31.560  -3.988 163.765  0.00  0.00    +0.000 NA
ATOM     12  C   UNL     1      33.100  -2.360 162.847  0.00  0.00    +0.000 C 
ATOM     13  C   UNL     1      31.275  -5.247 164.142  0.00  0.00    +0.000 A 
ATOM     14  C   UNL     1      32.229  -6.250 164.067  0.00  0.00    +0.000 A 
ATOM     15  N   UNL     1      29.999  -5.558 164.683  0.00  0.00    +0.000 N 
ATOM     16  C   UNL     1      29.422  -6.899 164.398  0.00  0.00    +0.000 C 
ATOM     17  C   UNL     1      28.005  -7.237 163.860  0.00  0.00    +0.000 C 
ATOM     18  N   UNL     1      26.841  -6.391 163.474  0.00  0.00    +0.000 N 
ATOM     19  C   UNL     1      27.473  -5.077 163.781  0.00  0.00    +0.000 C 
ATOM     20  C   UNL     1      28.869  -4.666 164.316  0.00  0.00    +0.000 C 
BRANCH  18  21
ATOM     21  C   UNL     1      25.814  -6.608 164.483  0.00  0.00    +0.000 C 
ATOM     22  C   UNL     1      24.733  -6.835 165.548  0.00  0.00    +0.000 C 
BRANCH  22  23
ATOM     23  O   UNL     1      23.799  -7.031 166.470  0.00  0.00    +0.000 OA
ATOM     24  H   UNL     1      23.876  -7.924 166.847  0.00  0.00    +0.000 HD
ENDBRANCH  22  23
ENDBRANCH  18  21
ENDBRANCH   1   8
BRANCH   5  25
ATOM     25  C   UNL     1      39.258  -7.784 165.146  0.00  0.00    +0.000 C 
ATOM     26  O   UNL     1      39.607  -8.959 165.070  0.00  0.00    +0.000 OA
ATOM     27  N   UNL     1      40.144  -6.764 165.471  0.00  0.00    +0.000 N 
ATOM     28  H   UNL     1      39.752  -5.998 166.017  0.00  0.00    +0.000 HD
BRANCH  27  29
ATOM     29  C   UNL     1      41.547  -6.958 165.655  0.00  0.00    +0.000 A 
ATOM     30  C   UNL     1      42.090  -6.679 166.926  0.00  0.00    +0.000 A 
ATOM     31  C   UNL     1      43.443  -6.873 167.198  0.00  0.00    +0.000 A 
ATOM     32  C   UNL     1      41.204  -6.175 168.048  0.00  0.00    +0.000 C 
ATOM     33  C   UNL     1      44.290  -7.331 166.197  0.00  0.00    +0.000 A 
ATOM     34  C   UNL     1      43.789  -7.546 164.918  0.00  0.00    +0.000 A 
ATOM     35  C   UNL     1      42.433  -7.354 164.639  0.00  0.00    +0.000 A 
ATOM     36 CL   UNL     1      42.010  -7.392 162.963  0.00  0.00    +0.000 Cl
ENDBRANCH  27  29
ENDBRANCH   5  25
TORSDOF 5
ENDMDL
MODEL 6
REMARK VINA RESULT:      -7.7      7.527     11.908
REMARK  Name = Dasatinib.pdbqt.pdb
REMARK  5 active torsions:
REMARK  status: ('A' for Active; 'I' for Inactive)
REMARK    1  A    between atoms: N_1  and  C_3
REMARK    2  A    between atoms: N_13  and  C_16
REMARK    3  A    between atoms: C_17  and  O_18
REMARK    4  A    between atoms: C_22  and  C_25
REMARK    5  A    between atoms: N_27  and  C_29
REMARK                            x       y       z     vdW  Elec       q    Type
REMARK                         _______ _______ _______ _____ _____    ______ ____
ROOT
ATOM      1  N   UNL     1      22.516  -1.017 193.861  0.00  0.00    +0.000 N 
ATOM      2  H   UNL     1      22.294  -1.843 193.318  0.00  0.00    +0.000 HD
ATOM      3  C   UNL     1      22.339   0.173 193.241  0.00  0.00    +0.000 A 
ATOM      4  S   UNL     1      21.907   0.187 191.567  0.00  0.00    +0.000 S 
ATOM      5  C   UNL     1      21.907   1.901 191.572  0.00  0.00    +0.000 A 
ATOM      6  C   UNL     1      22.243   2.335 192.832  0.00  0.00    +0.000 A 
ATOM      7  N   UNL     1      22.514   1.366 193.764  0.00  0.00    +0.000 NA
ENDROOT
BRANCH   1   8
ATOM      8  C   UNL     1      22.387  -1.222 195.252  0.00  0.00    +0.000 A 
ATOM      9  N   UNL     1      23.448  -1.480 196.026  0.00  0.00    +0.000 NA
ATOM     10  C   UNL     1      23.217  -1.716 197.322  0.00  0.00    +0.000 A 
ATOM     11  N   UNL     1      22.016  -1.699 197.913  0.00  0.00    +0.000 NA
ATOM     12  C   UNL     1      24.404  -1.986 198.200  0.00  0.00    +0.000 C 
ATOM     13  C   UNL     1      20.956  -1.426 197.133  0.00  0.00    +0.000 A 
ATOM     14  C   UNL     1      21.107  -1.191 195.776  0.00  0.00    +0.000 A 
ATOM     15  N   UNL     1      19.646  -1.433 197.682  0.00  0.00    +0.000 N 
ATOM     16  C   UNL     1      18.650  -0.472 197.137  0.00  0.00    +0.000 C 
ATOM     17  C   UNL     1      17.736   0.508 197.921  0.00  0.00    +0.000 C 
ATOM     18  N   UNL     1      17.570   0.794 199.374  0.00  0.00    +0.000 N 
ATOM     19  C   UNL     1      18.579  -0.189 199.860  0.00  0.00    +0.000 C 
ATOM     20  C   UNL     1      19.520  -1.192 199.143  0.00  0.00    +0.000 C 
BRANCH  18  21
ATOM     21  C   UNL     1      16.264   0.275 199.756  0.00  0.00    +0.000 C 
ATOM     22  C   UNL     1      14.888  -0.272 200.158  0.00  0.00    +0.000 C 
BRANCH  22  23
ATOM     23  O   UNL     1      13.699  -0.748 200.506  0.00  0.00    +0.000 OA
ATOM     24  H   UNL     1      13.321  -1.278 199.784  0.00  0.00    +0.000 HD
ENDBRANCH  22  23
ENDBRANCH  18  21
ENDBRANCH   1   8
BRANCH   5  25
ATOM     25  C   UNL     1      21.574   2.653 190.384  0.00  0.00    +0.000 C 
ATOM     26  O   UNL     1      21.344   3.860 190.395  0.00  0.00    +0.000 OA
ATOM     27  N   UNL     1      21.452   1.883 189.234  0.00  0.00    +0.000 N 
ATOM     28  H   UNL     1      21.131   0.926 189.377  0.00  0.00    +0.000 HD
BRANCH  27  29
ATOM     29  C   UNL     1      21.144   2.419 187.946  0.00  0.00    +0.000 A 
ATOM     30  C   UNL     1      22.219   2.818 187.125  0.00  0.00    +0.000 A 
ATOM     31  C   UNL     1      22.007   3.320 185.842  0.00  0.00    +0.000 A 
ATOM     32  C   UNL     1      23.648   2.693 187.612  0.00  0.00    +0.000 C 
ATOM     33  C   UNL     1      20.712   3.454 185.358  0.00  0.00    +0.000 A 
ATOM     34  C   UNL     1      19.636   3.131 186.177  0.00  0.00    +0.000 A 
ATOM     35  C   UNL     1      19.841   2.626 187.464  0.00  0.00    +0.000 A 
ATOM     36 CL   UNL     1      18.429   2.530 188.456  0.00  0.00    +0.000 Cl
ENDBRANCH  27  29
ENDBRANCH   5  25
TORSDOF 5
ENDMDL
MODEL 7
REMARK VINA RESULT:      -7.7      7.792      9.265
REMARK  Name = Dasatinib.pdbqt.pdb
REMARK  5 active torsions:
REMARK  status: ('A' for Active; 'I' for Inactive)
REMARK    1  A    between atoms: N_1  and  C_3
REMARK    2  A    between atoms: N_13  and  C_16
REMARK    3  A    between atoms: C_17  and  O_18
REMARK    4  A    between atoms: C_22  and  C_25
REMARK    5  A    between atoms: N_27  and  C_29
REMARK                            x       y       z     vdW  Elec       q    Type
REMARK                         _______ _______ _______ _____ _____    ______ ____
ROOT
ATOM      1  N   UNL     1      22.582  -1.310 194.253  0.00  0.00    +0.000 N 
ATOM      2  H   UNL     1      22.091  -2.084 193.824  0.00  0.00    +0.000 HD
ATOM      3  C   UNL     1      22.548  -0.134 193.584  0.00  0.00    +0.000 A 
ATOM      4  S   UNL     1      21.819  -0.084 192.017  0.00  0.00    +0.000 S 
ATOM      5  C   UNL     1      22.183   1.585 191.890  0.00  0.00    +0.000 A 
ATOM      6  C   UNL     1      22.837   1.979 193.033  0.00  0.00    +0.000 A 
ATOM      7  N   UNL     1      23.068   1.008 193.974  0.00  0.00    +0.000 NA
ENDROOT
BRANCH   1   8
ATOM      8  C   UNL     1      22.680  -1.430 195.657  0.00  0.00    +0.000 A 
ATOM      9  N   UNL     1      21.729  -0.957 196.471  0.00  0.00    +0.000 NA
ATOM     10  C   UNL     1      21.939  -1.068 197.787  0.00  0.00    +0.000 A 
ATOM     11  N   UNL     1      23.012  -1.628 198.358  0.00  0.00    +0.000 NA
ATOM     12  C   UNL     1      20.868  -0.557 198.705  0.00  0.00    +0.000 C 
ATOM     13  C   UNL     1      23.957  -2.116 197.535  0.00  0.00    +0.000 A 
ATOM     14  C   UNL     1      23.826  -2.021 196.158  0.00  0.00    +0.000 A 
ATOM     15  N   UNL     1      25.143  -2.686 198.068  0.00  0.00    +0.000 N 
ATOM     16  C   UNL     1      25.768  -3.821 197.338  0.00  0.00    +0.000 C 
ATOM     17  C   UNL     1      26.219  -5.194 197.907  0.00  0.00    +0.000 C 
ATOM     18  N   UNL     1      26.172  -5.788 199.273  0.00  0.00    +0.000 N 
ATOM     19  C   UNL     1      25.547  -4.617 199.950  0.00  0.00    +0.000 C 
ATOM     20  C   UNL     1      25.075  -3.226 199.452  0.00  0.00    +0.000 C 
BRANCH  18  21
ATOM     21  C   UNL     1      27.548  -5.859 199.745  0.00  0.00    +0.000 C 
ATOM     22  C   UNL     1      28.997  -5.935 200.243  0.00  0.00    +0.000 C 
BRANCH  22  23
ATOM     23  O   UNL     1      30.250  -6.004 200.675  0.00  0.00    +0.000 OA
ATOM     24  H   UNL     1      30.580  -5.118 200.902  0.00  0.00    +0.000 HD
ENDBRANCH  22  23
ENDBRANCH  18  21
ENDBRANCH   1   8
BRANCH   5  25
ATOM     25  C   UNL     1      21.798   2.349 190.725  0.00  0.00    +0.000 C 
ATOM     26  O   UNL     1      21.875   3.574 190.669  0.00  0.00    +0.000 OA
ATOM     27  N   UNL     1      21.252   1.590 189.698  0.00  0.00    +0.000 N 
ATOM     28  H   UNL     1      20.746   0.754 189.989  0.00  0.00    +0.000 HD
BRANCH  27  29
ATOM     29  C   UNL     1      20.817   2.134 188.451  0.00  0.00    +0.000 A 
ATOM     30  C   UNL     1      19.436   2.368 188.279  0.00  0.00    +0.000 A 
ATOM     31  C   UNL     1      18.934   2.927 187.106  0.00  0.00    +0.000 A 
ATOM     32  C   UNL     1      18.456   2.032 189.384  0.00  0.00    +0.000 C 
ATOM     33  C   UNL     1      19.799   3.246 186.067  0.00  0.00    +0.000 A 
ATOM     34  C   UNL     1      21.154   2.960 186.188  0.00  0.00    +0.000 A 
ATOM     35  C   UNL     1      21.665   2.400 187.363  0.00  0.00    +0.000 A 
ATOM     36 CL   UNL     1      23.301   1.851 187.270  0.00  0.00    +0.000 Cl
ENDBRANCH  27  29
ENDBRANCH   5  25
TORSDOF 5
ENDMDL
MODEL 8
REMARK VINA RESULT:      -7.7      7.975     11.117
REMARK  Name = Dasatinib.pdbqt.pdb
REMARK  5 active torsions:
REMARK  status: ('A' for Active; 'I' for Inactive)
REMARK    1  A    between atoms: N_1  and  C_3
REMARK    2  A    between atoms: N_13  and  C_16
REMARK    3  A    between atoms: C_17  and  O_18
REMARK    4  A    between atoms: C_22  and  C_25
REMARK    5  A    between atoms: N_27  and  C_29
REMARK                            x       y       z     vdW  Elec       q    Type
REMARK                         _______ _______ _______ _____ _____    ______ ____
ROOT
ATOM      1  N   UNL     1      22.969  -1.391 194.210  0.00  0.00    +0.000 N 
ATOM      2  H   UNL     1      22.405  -2.149 193.845  0.00  0.00    +0.000 HD
ATOM      3  C   UNL     1      22.901  -0.218 193.538  0.00  0.00    +0.000 A 
ATOM      4  S   UNL     1      22.001  -0.150 192.063  0.00  0.00    +0.000 S 
ATOM      5  C   UNL     1      22.409   1.504 191.880  0.00  0.00    +0.000 A 
ATOM      6  C   UNL     1      23.201   1.880 192.939  0.00  0.00    +0.000 A 
ATOM      7  N   UNL     1      23.503   0.906 193.856  0.00  0.00    +0.000 NA
ENDROOT
BRANCH   1   8
ATOM      8  C   UNL     1      23.221  -1.508 195.594  0.00  0.00    +0.000 A 
ATOM      9  N   UNL     1      24.358  -2.037 196.060  0.00  0.00    +0.000 NA
ATOM     10  C   UNL     1      24.479  -2.157 197.386  0.00  0.00    +0.000 A 
ATOM     11  N   UNL     1      23.566  -1.777 198.287  0.00  0.00    +0.000 NA
ATOM     12  C   UNL     1      25.761  -2.731 197.916  0.00  0.00    +0.000 C 
ATOM     13  C   UNL     1      22.431  -1.232 197.814  0.00  0.00    +0.000 A 
ATOM     14  C   UNL     1      22.218  -1.092 196.451  0.00  0.00    +0.000 A 
ATOM     15  N   UNL     1      21.398  -0.844 198.709  0.00  0.00    +0.000 N 
ATOM     16  C   UNL     1      20.577   0.346 198.361  0.00  0.00    +0.000 C 
ATOM     17  C   UNL     1      20.240   1.571 199.254  0.00  0.00    +0.000 C 
ATOM     18  N   UNL     1      20.608   1.936 200.650  0.00  0.00    +0.000 N 
ATOM     19  C   UNL     1      21.417   0.720 200.941  0.00  0.00    +0.000 C 
ATOM     20  C   UNL     1      21.793  -0.533 200.108  0.00  0.00    +0.000 C 
BRANCH  18  21
ATOM     21  C   UNL     1      19.391   1.829 201.444  0.00  0.00    +0.000 C 
ATOM     22  C   UNL     1      18.110   1.718 202.281  0.00  0.00    +0.000 C 
BRANCH  22  23
ATOM     23  O   UNL     1      17.002   1.624 203.006  0.00  0.00    +0.000 OA
ATOM     24  H   UNL     1      16.767   0.691 203.147  0.00  0.00    +0.000 HD
ENDBRANCH  22  23
ENDBRANCH  18  21
ENDBRANCH   1   8
BRANCH   5  25
ATOM     25  C   UNL     1      21.922   2.276 190.760  0.00  0.00    +0.000 C 
ATOM     26  O   UNL     1      21.939   3.504 190.730  0.00  0.00    +0.000 OA
ATOM     27  N   UNL     1      21.352   1.516 189.746  0.00  0.00    +0.000 N 
ATOM     28  H   UNL     1      20.903   0.651 190.044  0.00  0.00    +0.000 HD
BRANCH  27  29
ATOM     29  C   UNL     1      20.820   2.068 188.540  0.00  0.00    +0.000 A 
ATOM     30  C   UNL     1      19.428   2.283 188.471  0.00  0.00    +0.000 A 
ATOM     31  C   UNL     1      18.834   2.848 187.344  0.00  0.00    +0.000 A 
ATOM     32  C   UNL     1      18.534   1.921 189.640  0.00  0.00    +0.000 C 
ATOM     33  C   UNL     1      19.617   3.192 186.249  0.00  0.00    +0.000 A 
ATOM     34  C   UNL     1      20.981   2.924 186.270  0.00  0.00    +0.000 A 
ATOM     35  C   UNL     1      21.584   2.358 187.397  0.00  0.00    +0.000 A 
ATOM     36 CL   UNL     1      23.216   1.834 187.180  0.00  0.00    +0.000 Cl
ENDBRANCH  27  29
ENDBRANCH   5  25
TORSDOF 5
ENDMDL
MODEL 9
REMARK VINA RESULT:      -7.6      5.717      8.499
REMARK  Name = Dasatinib.pdbqt.pdb
REMARK  5 active torsions:
REMARK  status: ('A' for Active; 'I' for Inactive)
REMARK    1  A    between atoms: N_1  and  C_3
REMARK    2  A    between atoms: N_13  and  C_16
REMARK    3  A    between atoms: C_17  and  O_18
REMARK    4  A    between atoms: C_22  and  C_25
REMARK    5  A    between atoms: N_27  and  C_29
REMARK                            x       y       z     vdW  Elec       q    Type
REMARK                         _______ _______ _______ _____ _____    ______ ____
ROOT
ATOM      1  N   UNL     1      19.886   1.014 193.819  0.00  0.00    +0.000 N 
ATOM      2  H   UNL     1      19.321   1.737 194.247  0.00  0.00    +0.000 HD
ATOM      3  C   UNL     1      20.400   1.298 192.600  0.00  0.00    +0.000 A 
ATOM      4  S   UNL     1      19.939   2.772 191.821  0.00  0.00    +0.000 S 
ATOM      5  C   UNL     1      20.915   2.374 190.470  0.00  0.00    +0.000 A 
ATOM      6  C   UNL     1      21.507   1.155 190.701  0.00  0.00    +0.000 A 
ATOM      7  N   UNL     1      21.196   0.536 191.885  0.00  0.00    +0.000 NA
ENDROOT
BRANCH   1   8
ATOM      8  C   UNL     1      20.492   0.158 194.764  0.00  0.00    +0.000 A 
ATOM      9  N   UNL     1      19.766  -0.574 195.618  0.00  0.00    +0.000 NA
ATOM     10  C   UNL     1      20.434  -1.310 196.513  0.00  0.00    +0.000 A 
ATOM     11  N   UNL     1      21.765  -1.390 196.615  0.00  0.00    +0.000 NA
ATOM     12  C   UNL     1      19.626  -2.148 197.460  0.00  0.00    +0.000 C 
ATOM     13  C   UNL     1      22.489  -0.665 195.745  0.00  0.00    +0.000 A 
ATOM     14  C   UNL     1      21.874   0.142 194.800  0.00  0.00    +0.000 A 
ATOM     15  N   UNL     1      23.907  -0.667 195.821  0.00  0.00    +0.000 N 
ATOM     16  C   UNL     1      24.680  -0.551 194.555  0.00  0.00    +0.000 C 
ATOM     17  C   UNL     1      25.848  -1.446 194.061  0.00  0.00    +0.000 C 
ATOM     18  N   UNL     1      26.529  -2.636 194.646  0.00  0.00    +0.000 N 
ATOM     19  C   UNL     1      25.723  -2.699 195.897  0.00  0.00    +0.000 C 
ATOM     20  C   UNL     1      24.552  -1.847 196.454  0.00  0.00    +0.000 C 
BRANCH  18  21
ATOM     21  C   UNL     1      27.866  -2.205 195.030  0.00  0.00    +0.000 C 
ATOM     22  C   UNL     1      29.274  -1.749 195.435  0.00  0.00    +0.000 C 
BRANCH  22  23
ATOM     23  O   UNL     1      30.491  -1.353 195.784  0.00  0.00    +0.000 OA
ATOM     24  H   UNL     1      30.456  -0.824 196.599  0.00  0.00    +0.000 HD
ENDBRANCH  22  23
ENDBRANCH  18  21
ENDBRANCH   1   8
BRANCH   5  25
ATOM     25  C   UNL     1      21.028   3.267 189.339  0.00  0.00    +0.000 C 
ATOM     26  O   UNL     1      20.415   4.328 189.256  0.00  0.00    +0.000 OA
ATOM     27  N   UNL     1      21.827   2.787 188.309  0.00  0.00    +0.000 N 
ATOM     28  H   UNL     1      21.847   1.773 188.203  0.00  0.00    +0.000 HD
BRANCH  27  29
ATOM     29  C   UNL     1      22.091   3.508 187.104  0.00  0.00    +0.000 A 
ATOM     30  C   UNL     1      23.305   4.220 187.014  0.00  0.00    +0.000 A 
ATOM     31  C   UNL     1      23.653   4.922 185.862  0.00  0.00    +0.000 A 
ATOM     32  C   UNL     1      24.281   4.225 188.173  0.00  0.00    +0.000 C 
ATOM     33  C   UNL     1      22.784   4.945 184.778  0.00  0.00    +0.000 A 
ATOM     34  C   UNL     1      21.552   4.307 184.871  0.00  0.00    +0.000 A 
ATOM     35  C   UNL     1      21.197   3.601 186.024  0.00  0.00    +0.000 A 
ATOM     36 CL   UNL     1      19.545   3.097 186.104  0.00  0.00    +0.000 Cl
ENDBRANCH  27  29
ENDBRANCH   5  25
TORSDOF 5
ENDMDL
