MODEL 1
REMARK VINA RESULT:      -6.1      0.000      0.000
REMARK  Name = Decitabine.pdbqt.pdb
REMARK  4 active torsions:
REMARK  status: ('A' for Active; 'I' for Inactive)
REMARK    1  A    between atoms: N_2  and  C1*_8
REMARK    2  A    between atoms: C4*_10  and  C5*_13
REMARK    3  A    between atoms: C3*_11  and  O3*_16
REMARK    4  A    between atoms: C5*_13  and  O5*_14
REMARK                            x       y       z     vdW  Elec       q    Type
REMARK                         _______ _______ _______ _____ _____    ______ ____
ROOT
ATOM      1  O   UNL     1      20.415   5.351 188.433  0.00  0.00    +0.000 OA
ATOM      2  N   UNL     1      20.402   3.362 187.249  0.00  0.00    +0.000 N 
ATOM      3  N   UNL     1      21.622   5.216 186.495  0.00  0.00    +0.000 NA
ATOM      4  N   UNL     1      21.603   3.186 185.252  0.00  0.00    +0.000 NA
ATOM      5  C   UNL     1      20.779   4.682 187.471  0.00  0.00    +0.000 A 
ATOM      6  C   UNL     1      20.915   2.853 186.132  0.00  0.00    +0.000 A 
ATOM      7  C   UNL     1      22.003   4.492 185.474  0.00  0.00    +0.000 A 
ATOM      8  N   UNL     1      22.828   5.056 184.555  0.00  0.00    +0.000 N 
ATOM      9  H   UNL     1      22.763   4.651 183.631  0.00  0.00    +0.000 HD
ATOM     10  H   UNL     1      22.820   6.069 184.578  0.00  0.00    +0.000 HD
ENDROOT
BRANCH   2  11
ATOM     11  C1* UNL     1      19.593   2.611 188.042  0.00  0.00    +0.000 A 
ATOM     12  O4* UNL     1      20.080   1.920 189.157  0.00  0.00    +0.000 OA
ATOM     13  C4* UNL     1      18.986   1.266 189.739  0.00  0.00    +0.000 A 
ATOM     14  C3* UNL     1      17.801   1.550 188.971  0.00  0.00    +0.000 A 
ATOM     15  C2* UNL     1      18.204   2.401 187.927  0.00  0.00    +0.000 A 
BRANCH  14  16
ATOM     16  O3* UNL     1      16.571   1.590 189.562  0.00  0.00    +0.000 OA
ATOM     17  H3* UNL     1      16.650   1.692 190.527  0.00  0.00    +0.000 HD
ENDBRANCH  14  16
BRANCH  13  18
ATOM     18  C5* UNL     1      19.070   0.609 190.983  0.00  0.00    +0.000 C 
BRANCH  18  19
ATOM     19  O5* UNL     1      19.145  -0.013 192.155  0.00  0.00    +0.000 OA
ATOM     20  H5* UNL     1      20.041   0.069 192.523  0.00  0.00    +0.000 HD
ENDBRANCH  18  19
ENDBRANCH  13  18
ENDBRANCH   2  11
TORSDOF 4
ENDMDL
MODEL 2
REMARK VINA RESULT:      -6.0      2.793      5.845
REMARK  Name = Decitabine.pdbqt.pdb
REMARK  4 active torsions:
REMARK  status: ('A' for Active; 'I' for Inactive)
REMARK    1  A    between atoms: N_2  and  C1*_8
REMARK    2  A    between atoms: C4*_10  and  C5*_13
REMARK    3  A    between atoms: C3*_11  and  O3*_16
REMARK    4  A    between atoms: C5*_13  and  O5*_14
REMARK                            x       y       z     vdW  Elec       q    Type
REMARK                         _______ _______ _______ _____ _____    ______ ____
ROOT
ATOM      1  O   UNL     1      21.781   1.518 189.375  0.00  0.00    +0.000 OA
ATOM      2  N   UNL     1      19.962   2.383 188.234  0.00  0.00    +0.000 N 
ATOM      3  N   UNL     1      19.683   1.142 190.203  0.00  0.00    +0.000 NA
ATOM      4  N   UNL     1      17.798   2.005 189.032  0.00  0.00    +0.000 NA
ATOM      5  C   UNL     1      20.569   1.678 189.268  0.00  0.00    +0.000 A 
ATOM      6  C   UNL     1      18.635   2.409 188.328  0.00  0.00    +0.000 A 
ATOM      7  C   UNL     1      18.393   1.320 190.078  0.00  0.00    +0.000 A 
ATOM      8  N   UNL     1      17.573   0.784 191.018  0.00  0.00    +0.000 N 
ATOM      9  H   UNL     1      16.637   0.582 190.690  0.00  0.00    +0.000 HD
ATOM     10  H   UNL     1      18.007   0.040 191.550  0.00  0.00    +0.000 HD
ENDROOT
BRANCH   2  11
ATOM     11  C1* UNL     1      20.593   3.001 187.201  0.00  0.00    +0.000 A 
ATOM     12  O4* UNL     1      21.749   3.766 187.387  0.00  0.00    +0.000 OA
ATOM     13  C4* UNL     1      22.129   4.242 186.126  0.00  0.00    +0.000 A 
ATOM     14  C3* UNL     1      21.191   3.771 185.140  0.00  0.00    +0.000 A 
ATOM     15  C2* UNL     1      20.251   2.989 185.834  0.00  0.00    +0.000 A 
BRANCH  14  16
ATOM     16  O3* UNL     1      21.579   3.540 183.851  0.00  0.00    +0.000 OA
ATOM     17  H3* UNL     1      22.524   3.312 183.806  0.00  0.00    +0.000 HD
ENDBRANCH  14  16
BRANCH  13  18
ATOM     18  C5* UNL     1      23.350   4.909 185.903  0.00  0.00    +0.000 C 
BRANCH  18  19
ATOM     19  O5* UNL     1      24.500   5.543 185.693  0.00  0.00    +0.000 OA
ATOM     20  H5* UNL     1      24.653   5.654 184.739  0.00  0.00    +0.000 HD
ENDBRANCH  18  19
ENDBRANCH  13  18
ENDBRANCH   2  11
TORSDOF 4
ENDMDL
MODEL 3
REMARK VINA RESULT:      -5.8      2.658      4.382
REMARK  Name = Decitabine.pdbqt.pdb
REMARK  4 active torsions:
REMARK  status: ('A' for Active; 'I' for Inactive)
REMARK    1  A    between atoms: N_2  and  C1*_8
REMARK    2  A    between atoms: C4*_10  and  C5*_13
REMARK    3  A    between atoms: C3*_11  and  O3*_16
REMARK    4  A    between atoms: C5*_13  and  O5*_14
REMARK                            x       y       z     vdW  Elec       q    Type
REMARK                         _______ _______ _______ _____ _____    ______ ____
ROOT
ATOM      1  O   UNL     1      16.836   0.973 189.619  0.00  0.00    +0.000 OA
ATOM      2  N   UNL     1      19.040   1.434 190.155  0.00  0.00    +0.000 N 
ATOM      3  N   UNL     1      18.118   2.119 188.111  0.00  0.00    +0.000 NA
ATOM      4  N   UNL     1      20.393   2.584 188.636  0.00  0.00    +0.000 NA
ATOM      5  C   UNL     1      17.920   1.469 189.330  0.00  0.00    +0.000 A 
ATOM      6  C   UNL     1      20.102   2.028 189.619  0.00  0.00    +0.000 A 
ATOM      7  C   UNL     1      19.280   2.643 187.816  0.00  0.00    +0.000 A 
ATOM      8  N   UNL     1      19.419   3.271 186.620  0.00  0.00    +0.000 N 
ATOM      9  H   UNL     1      20.365   3.285 186.263  0.00  0.00    +0.000 HD
ATOM     10  H   UNL     1      18.713   3.006 185.944  0.00  0.00    +0.000 HD
ENDROOT
BRANCH   2  11
ATOM     11  C1* UNL     1      19.115   0.867 191.388  0.00  0.00    +0.000 A 
ATOM     12  O4* UNL     1      19.853  -0.298 191.626  0.00  0.00    +0.000 OA
ATOM     13  C4* UNL     1      19.717  -0.593 192.989  0.00  0.00    +0.000 A 
ATOM     14  C3* UNL     1      18.878   0.401 193.607  0.00  0.00    +0.000 A 
ATOM     15  C2* UNL     1      18.527   1.307 192.591  0.00  0.00    +0.000 A 
BRANCH  14  16
ATOM     16  O3* UNL     1      19.041   0.744 194.919  0.00  0.00    +0.000 OA
ATOM     17  H3* UNL     1      18.881   1.694 195.054  0.00  0.00    +0.000 HD
ENDBRANCH  14  16
BRANCH  13  18
ATOM     18  C5* UNL     1      20.465  -1.605 193.623  0.00  0.00    +0.000 C 
BRANCH  18  19
ATOM     19  O5* UNL     1      21.174  -2.559 194.219  0.00  0.00    +0.000 OA
ATOM     20  H5* UNL     1      22.111  -2.486 193.971  0.00  0.00    +0.000 HD
ENDBRANCH  18  19
ENDBRANCH  13  18
ENDBRANCH   2  11
TORSDOF 4
ENDMDL
MODEL 4
REMARK VINA RESULT:      -5.8      1.216      1.974
REMARK  Name = Decitabine.pdbqt.pdb
REMARK  4 active torsions:
REMARK  status: ('A' for Active; 'I' for Inactive)
REMARK    1  A    between atoms: N_2  and  C1*_8
REMARK    2  A    between atoms: C4*_10  and  C5*_13
REMARK    3  A    between atoms: C3*_11  and  O3*_16
REMARK    4  A    between atoms: C5*_13  and  O5*_14
REMARK                            x       y       z     vdW  Elec       q    Type
REMARK                         _______ _______ _______ _____ _____    ______ ____
ROOT
ATOM      1  O   UNL     1      21.093   5.870 188.133  0.00  0.00    +0.000 OA
ATOM      2  N   UNL     1      21.193   3.704 187.321  0.00  0.00    +0.000 N 
ATOM      3  N   UNL     1      21.856   5.528 186.005  0.00  0.00    +0.000 NA
ATOM      4  N   UNL     1      21.946   3.310 185.144  0.00  0.00    +0.000 NA
ATOM      5  C   UNL     1      21.358   5.083 187.230  0.00  0.00    +0.000 A 
ATOM      6  C   UNL     1      21.538   3.063 186.208  0.00  0.00    +0.000 A 
ATOM      7  C   UNL     1      22.136   4.678 185.050  0.00  0.00    +0.000 A 
ATOM      8  N   UNL     1      22.624   5.161 183.879  0.00  0.00    +0.000 N 
ATOM      9  H   UNL     1      22.437   4.575 183.076  0.00  0.00    +0.000 HD
ATOM     10  H   UNL     1      22.434   6.146 183.742  0.00  0.00    +0.000 HD
ENDROOT
BRANCH   2  11
ATOM     11  C1* UNL     1      20.728   3.018 188.398  0.00  0.00    +0.000 A 
ATOM     12  O4* UNL     1      19.363   2.789 188.601  0.00  0.00    +0.000 OA
ATOM     13  C4* UNL     1      19.245   2.055 189.787  0.00  0.00    +0.000 A 
ATOM     14  C3* UNL     1      20.558   1.827 190.335  0.00  0.00    +0.000 A 
ATOM     15  C2* UNL     1      21.465   2.426 189.443  0.00  0.00    +0.000 A 
BRANCH  14  16
ATOM     16  O3* UNL     1      20.830   0.710 191.072  0.00  0.00    +0.000 OA
ATOM     17  H3* UNL     1      21.076  -0.036 190.498  0.00  0.00    +0.000 HD
ENDBRANCH  14  16
BRANCH  13  18
ATOM     18  C5* UNL     1      18.025   1.498 190.216  0.00  0.00    +0.000 C 
BRANCH  18  19
ATOM     19  O5* UNL     1      16.870   0.976 190.621  0.00  0.00    +0.000 OA
ATOM     20  H5* UNL     1      16.714   0.123 190.181  0.00  0.00    +0.000 HD
ENDBRANCH  18  19
ENDBRANCH  13  18
ENDBRANCH   2  11
TORSDOF 4
ENDMDL
MODEL 5
REMARK VINA RESULT:      -5.6     33.042     34.222
REMARK  Name = Decitabine.pdbqt.pdb
REMARK  4 active torsions:
REMARK  status: ('A' for Active; 'I' for Inactive)
REMARK    1  A    between atoms: N_2  and  C1*_8
REMARK    2  A    between atoms: C4*_10  and  C5*_13
REMARK    3  A    between atoms: C3*_11  and  O3*_16
REMARK    4  A    between atoms: C5*_13  and  O5*_14
REMARK                            x       y       z     vdW  Elec       q    Type
REMARK                         _______ _______ _______ _____ _____    ______ ____
ROOT
ATOM      1  O   UNL     1      43.706  -7.133 167.833  0.00  0.00    +0.000 OA
ATOM      2  N   UNL     1      43.784  -6.535 165.598  0.00  0.00    +0.000 N 
ATOM      3  N   UNL     1      42.760  -8.528 166.288  0.00  0.00    +0.000 NA
ATOM      4  N   UNL     1      42.850  -7.942 163.982  0.00  0.00    +0.000 NA
ATOM      5  C   UNL     1      43.442  -7.368 166.658  0.00  0.00    +0.000 A 
ATOM      6  C   UNL     1      43.400  -7.010 164.416  0.00  0.00    +0.000 A 
ATOM      7  C   UNL     1      42.484  -8.767 165.032  0.00  0.00    +0.000 A 
ATOM      8  N   UNL     1      41.814  -9.907 164.723  0.00  0.00    +0.000 N 
ATOM      9  H   UNL     1      41.982 -10.250 163.787  0.00  0.00    +0.000 HD
ATOM     10  H   UNL     1      41.865 -10.611 165.450  0.00  0.00    +0.000 HD
ENDROOT
BRANCH   2  11
ATOM     11  C1* UNL     1      44.446  -5.351 165.684  0.00  0.00    +0.000 A 
ATOM     12  O4* UNL     1      43.850  -4.205 166.221  0.00  0.00    +0.000 OA
ATOM     13  C4* UNL     1      44.808  -3.184 166.162  0.00  0.00    +0.000 A 
ATOM     14  C3* UNL     1      46.017  -3.703 165.575  0.00  0.00    +0.000 A 
ATOM     15  C2* UNL     1      45.770  -5.059 165.299  0.00  0.00    +0.000 A 
BRANCH  14  16
ATOM     16  O3* UNL     1      47.239  -3.199 165.919  0.00  0.00    +0.000 OA
ATOM     17  H3* UNL     1      47.440  -3.378 166.854  0.00  0.00    +0.000 HD
ENDBRANCH  14  16
BRANCH  13  18
ATOM     18  C5* UNL     1      44.616  -1.929 166.772  0.00  0.00    +0.000 C 
BRANCH  18  19
ATOM     19  O5* UNL     1      44.430  -0.745 167.349  0.00  0.00    +0.000 OA
ATOM     20  H5* UNL     1      45.265  -0.246 167.368  0.00  0.00    +0.000 HD
ENDBRANCH  18  19
ENDBRANCH  13  18
ENDBRANCH   2  11
TORSDOF 4
ENDMDL
MODEL 6
REMARK VINA RESULT:      -5.4      1.807      2.542
REMARK  Name = Decitabine.pdbqt.pdb
REMARK  4 active torsions:
REMARK  status: ('A' for Active; 'I' for Inactive)
REMARK    1  A    between atoms: N_2  and  C1*_8
REMARK    2  A    between atoms: C4*_10  and  C5*_13
REMARK    3  A    between atoms: C3*_11  and  O3*_16
REMARK    4  A    between atoms: C5*_13  and  O5*_14
REMARK                            x       y       z     vdW  Elec       q    Type
REMARK                         _______ _______ _______ _____ _____    ______ ____
ROOT
ATOM      1  O   UNL     1      22.714   1.315 188.056  0.00  0.00    +0.000 OA
ATOM      2  N   UNL     1      20.648   2.355 188.151  0.00  0.00    +0.000 N 
ATOM      3  N   UNL     1      22.019   2.547 186.259  0.00  0.00    +0.000 NA
ATOM      4  N   UNL     1      19.907   3.642 186.345  0.00  0.00    +0.000 NA
ATOM      5  C   UNL     1      21.850   2.016 187.538  0.00  0.00    +0.000 A 
ATOM      6  C   UNL     1      19.879   3.135 187.396  0.00  0.00    +0.000 A 
ATOM      7  C   UNL     1      21.090   3.293 185.718  0.00  0.00    +0.000 A 
ATOM      8  N   UNL     1      21.300   3.780 184.468  0.00  0.00    +0.000 N 
ATOM      9  H   UNL     1      20.801   4.636 184.264  0.00  0.00    +0.000 HD
ATOM     10  H   UNL     1      22.276   3.781 184.197  0.00  0.00    +0.000 HD
ENDROOT
BRANCH   2  11
ATOM     11  C1* UNL     1      20.238   1.971 189.388  0.00  0.00    +0.000 A 
ATOM     12  O4* UNL     1      21.000   2.222 190.535  0.00  0.00    +0.000 OA
ATOM     13  C4* UNL     1      20.282   1.704 191.620  0.00  0.00    +0.000 A 
ATOM     14  C3* UNL     1      19.057   1.117 191.141  0.00  0.00    +0.000 A 
ATOM     15  C2* UNL     1      19.047   1.309 189.749  0.00  0.00    +0.000 A 
BRANCH  14  16
ATOM     16  O3* UNL     1      17.936   1.091 191.921  0.00  0.00    +0.000 OA
ATOM     17  H3* UNL     1      17.226   0.582 191.495  0.00  0.00    +0.000 HD
ENDBRANCH  14  16
BRANCH  13  18
ATOM     18  C5* UNL     1      20.666   1.927 192.957  0.00  0.00    +0.000 C 
BRANCH  18  19
ATOM     19  O5* UNL     1      21.023   2.136 194.221  0.00  0.00    +0.000 OA
ATOM     20  H5* UNL     1      21.160   1.288 194.677  0.00  0.00    +0.000 HD
ENDBRANCH  18  19
ENDBRANCH  13  18
ENDBRANCH   2  11
TORSDOF 4
ENDMDL
MODEL 7
REMARK VINA RESULT:      -5.2      4.431      6.688
REMARK  Name = Decitabine.pdbqt.pdb
REMARK  4 active torsions:
REMARK  status: ('A' for Active; 'I' for Inactive)
REMARK    1  A    between atoms: N_2  and  C1*_8
REMARK    2  A    between atoms: C4*_10  and  C5*_13
REMARK    3  A    between atoms: C3*_11  and  O3*_16
REMARK    4  A    between atoms: C5*_13  and  O5*_14
REMARK                            x       y       z     vdW  Elec       q    Type
REMARK                         _______ _______ _______ _____ _____    ______ ____
ROOT
ATOM      1  O   UNL     1      20.737   2.028 193.637  0.00  0.00    +0.000 OA
ATOM      2  N   UNL     1      20.154   0.153 192.411  0.00  0.00    +0.000 N 
ATOM      3  N   UNL     1      21.375  -0.029 194.404  0.00  0.00    +0.000 NA
ATOM      4  N   UNL     1      20.804  -1.968 193.147  0.00  0.00    +0.000 NA
ATOM      5  C   UNL     1      20.746   0.811 193.485  0.00  0.00    +0.000 A 
ATOM      6  C   UNL     1      20.307  -1.167 192.460  0.00  0.00    +0.000 A 
ATOM      7  C   UNL     1      21.377  -1.326 194.231  0.00  0.00    +0.000 A 
ATOM      8  N   UNL     1      21.997  -2.100 195.157  0.00  0.00    +0.000 N 
ATOM      9  H   UNL     1      22.332  -2.987 194.804  0.00  0.00    +0.000 HD
ATOM     10  H   UNL     1      22.663  -1.589 195.725  0.00  0.00    +0.000 HD
ENDROOT
BRANCH   2  11
ATOM     11  C1* UNL     1      19.481   0.733 191.383  0.00  0.00    +0.000 A 
ATOM     12  O4* UNL     1      20.142   1.346 190.313  0.00  0.00    +0.000 OA
ATOM     13  C4* UNL     1      19.153   1.824 189.444  0.00  0.00    +0.000 A 
ATOM     14  C3* UNL     1      17.856   1.509 189.985  0.00  0.00    +0.000 A 
ATOM     15  C2* UNL     1      18.088   0.817 191.186  0.00  0.00    +0.000 A 
BRANCH  14  16
ATOM     16  O3* UNL     1      16.786   1.287 189.165  0.00  0.00    +0.000 OA
ATOM     17  H3* UNL     1      16.985   0.594 188.511  0.00  0.00    +0.000 HD
ENDBRANCH  14  16
BRANCH  13  18
ATOM     18  C5* UNL     1      19.452   2.350 188.172  0.00  0.00    +0.000 C 
BRANCH  18  19
ATOM     19  O5* UNL     1      19.738   2.847 186.972  0.00  0.00    +0.000 OA
ATOM     20  H5* UNL     1      18.920   3.068 186.496  0.00  0.00    +0.000 HD
ENDBRANCH  18  19
ENDBRANCH  13  18
ENDBRANCH   2  11
TORSDOF 4
ENDMDL
MODEL 8
REMARK VINA RESULT:      -5.2      3.385      6.187
REMARK  Name = Decitabine.pdbqt.pdb
REMARK  4 active torsions:
REMARK  status: ('A' for Active; 'I' for Inactive)
REMARK    1  A    between atoms: N_2  and  C1*_8
REMARK    2  A    between atoms: C4*_10  and  C5*_13
REMARK    3  A    between atoms: C3*_11  and  O3*_16
REMARK    4  A    between atoms: C5*_13  and  O5*_14
REMARK                            x       y       z     vdW  Elec       q    Type
REMARK                         _______ _______ _______ _____ _____    ______ ____
ROOT
ATOM      1  O   UNL     1      22.061   0.760 190.897  0.00  0.00    +0.000 OA
ATOM      2  N   UNL     1      20.193   2.073 190.517  0.00  0.00    +0.000 N 
ATOM      3  N   UNL     1      20.221   0.464 192.222  0.00  0.00    +0.000 NA
ATOM      4  N   UNL     1      18.283   1.790 191.833  0.00  0.00    +0.000 NA
ATOM      5  C   UNL     1      20.913   1.085 191.181  0.00  0.00    +0.000 A 
ATOM      6  C   UNL     1      18.965   2.237 191.000  0.00  0.00    +0.000 A 
ATOM      7  C   UNL     1      18.997   0.820 192.515  0.00  0.00    +0.000 A 
ATOM      8  N   UNL     1      18.370   0.190 193.541  0.00  0.00    +0.000 N 
ATOM      9  H   UNL     1      17.361   0.182 193.472  0.00  0.00    +0.000 HD
ATOM     10  H   UNL     1      18.787  -0.702 193.778  0.00  0.00    +0.000 HD
ENDROOT
BRANCH   2  11
ATOM     11  C1* UNL     1      20.632   2.826 189.474  0.00  0.00    +0.000 A 
ATOM     12  O4* UNL     1      20.859   2.280 188.207  0.00  0.00    +0.000 OA
ATOM     13  C4* UNL     1      21.292   3.328 187.384  0.00  0.00    +0.000 A 
ATOM     14  C3* UNL     1      21.341   4.544 188.154  0.00  0.00    +0.000 A 
ATOM     15  C2* UNL     1      20.911   4.207 189.450  0.00  0.00    +0.000 A 
BRANCH  14  16
ATOM     16  O3* UNL     1      21.129   5.759 187.566  0.00  0.00    +0.000 OA
ATOM     17  H3* UNL     1      21.923   6.318 187.623  0.00  0.00    +0.000 HD
ENDBRANCH  14  16
BRANCH  13  18
ATOM     18  C5* UNL     1      21.454   3.182 185.993  0.00  0.00    +0.000 C 
BRANCH  18  19
ATOM     19  O5* UNL     1      21.602   3.047 184.678  0.00  0.00    +0.000 OA
ATOM     20  H5* UNL     1      22.218   3.719 184.338  0.00  0.00    +0.000 HD
ENDBRANCH  18  19
ENDBRANCH  13  18
ENDBRANCH   2  11
TORSDOF 4
ENDMDL
MODEL 9
REMARK VINA RESULT:      -5.2     32.101     34.093
REMARK  Name = Decitabine.pdbqt.pdb
REMARK  4 active torsions:
REMARK  status: ('A' for Active; 'I' for Inactive)
REMARK    1  A    between atoms: N_2  and  C1*_8
REMARK    2  A    between atoms: C4*_10  and  C5*_13
REMARK    3  A    between atoms: C3*_11  and  O3*_16
REMARK    4  A    between atoms: C5*_13  and  O5*_14
REMARK                            x       y       z     vdW  Elec       q    Type
REMARK                         _______ _______ _______ _____ _____    ______ ____
ROOT
ATOM      1  O   UNL     1      39.865  -7.001 164.848  0.00  0.00    +0.000 OA
ATOM      2  N   UNL     1      41.912  -7.797 165.581  0.00  0.00    +0.000 N 
ATOM      3  N   UNL     1      40.707  -6.215 166.823  0.00  0.00    +0.000 NA
ATOM      4  N   UNL     1      42.820  -7.005 167.584  0.00  0.00    +0.000 NA
ATOM      5  C   UNL     1      40.766  -7.014 165.681  0.00  0.00    +0.000 A 
ATOM      6  C   UNL     1      42.748  -7.629 166.602  0.00  0.00    +0.000 A 
ATOM      7  C   UNL     1      41.673  -6.238 167.704  0.00  0.00    +0.000 A 
ATOM      8  N   UNL     1      41.566  -5.447 168.802  0.00  0.00    +0.000 N 
ATOM      9  H   UNL     1      42.450  -5.181 169.214  0.00  0.00    +0.000 HD
ATOM     10  H   UNL     1      40.905  -4.688 168.685  0.00  0.00    +0.000 HD
ENDROOT
BRANCH   2  11
ATOM     11  C1* UNL     1      42.214  -8.659 164.575  0.00  0.00    +0.000 A 
ATOM     12  O4* UNL     1      41.602  -9.912 164.461  0.00  0.00    +0.000 OA
ATOM     13  C4* UNL     1      42.138 -10.523 163.320  0.00  0.00    +0.000 A 
ATOM     14  C3* UNL     1      43.103  -9.639 162.719  0.00  0.00    +0.000 A 
ATOM     15  C2* UNL     1      43.121  -8.478 163.512  0.00  0.00    +0.000 A 
BRANCH  14  16
ATOM     16  O3* UNL     1      43.326  -9.652 161.371  0.00  0.00    +0.000 OA
ATOM     17  H3* UNL     1      43.779 -10.469 161.100  0.00  0.00    +0.000 HD
ENDBRANCH  14  16
BRANCH  13  18
ATOM     18  C5* UNL     1      41.630 -11.728 162.797  0.00  0.00    +0.000 C 
BRANCH  18  19
ATOM     19  O5* UNL     1      41.155 -12.867 162.300  0.00  0.00    +0.000 OA
ATOM     20  H5* UNL     1      41.267 -12.885 161.335  0.00  0.00    +0.000 HD
ENDBRANCH  18  19
ENDBRANCH  13  18
ENDBRANCH   2  11
TORSDOF 4
ENDMDL
