MODEL 1
REMARK VINA RESULT:      -6.0      0.000      0.000
REMARK  Name = Deferoxamine.pdbqt.pdb
REMARK  19 active torsions:
REMARK  status: ('A' for Active; 'I' for Inactive)
REMARK    1  A    between atoms: C_1  and  C_2
REMARK    2  A    between atoms: C_3  and  C_4
REMARK    3  A    between atoms: C_4  and  N_5
REMARK    4  A    between atoms: C_6  and  C_9
REMARK    5  A    between atoms: C_10  and  C_11
REMARK    6  A    between atoms: N_13  and  O_14
REMARK    7  A    between atoms: N_13  and  C_16
REMARK    8  A    between atoms: C_17  and  C_18
REMARK    9  A    between atoms: C_19  and  C_20
REMARK   10  A    between atoms: C_20  and  N_21
REMARK   11  A    between atoms: C_24  and  N_25
REMARK   12  A    between atoms: N_25  and  O_28
REMARK   13  A    between atoms: C_26  and  C_30
REMARK   14  A    between atoms: C_31  and  C_32
REMARK   15  A    between atoms: N_34  and  C_36
REMARK   16  A    between atoms: C_37  and  C_38
REMARK   17  A    between atoms: C_38  and  C_39
REMARK   18  A    between atoms: C_40  and  N_41
REMARK   19  A    between atoms: N_41  and  O_45
REMARK                            x       y       z     vdW  Elec       q    Type
REMARK                         _______ _______ _______ _____ _____    ______ ____
ROOT
ATOM      1  C   UNL     1      43.682   1.344 176.207  0.00  0.00    +0.000 C 
ATOM      2  C   UNL     1      42.764   1.855 175.624  0.00  0.00    +0.000 C 
ENDROOT
BRANCH   2   3
ATOM      3  N   UNL     1      41.732   2.428 174.971  0.00  0.00    +0.000 N 
ATOM      4  C   UNL     1      41.298   3.742 174.944  0.00  0.00    +0.000 C 
ATOM      5  O   UNL     1      41.706   4.630 175.685  0.00  0.00    +0.000 OA
BRANCH   4   6
ATOM      6  C   UNL     1      40.261   4.083 173.992  0.00  0.00    +0.000 C 
ATOM      7  C   UNL     1      39.393   4.371 173.213  0.00  0.00    +0.000 C 
BRANCH   7   8
ATOM      8  C   UNL     1      38.335   4.712 172.294  0.00  0.00    +0.000 C 
ATOM      9  O   UNL     1      37.188   4.782 172.711  0.00  0.00    +0.000 OA
ATOM     10  N   UNL     1      38.735   4.934 170.996  0.00  0.00    +0.000 N 
ATOM     11  H   UNL     1      39.726   4.842 170.812  0.00  0.00    +0.000 HD
BRANCH  10  12
ATOM     12  C   UNL     1      37.988   5.266 169.920  0.00  0.00    +0.000 C 
ATOM     13  C   UNL     1      37.323   5.555 168.964  0.00  0.00    +0.000 C 
BRANCH  13  14
ATOM     14  C   UNL     1      36.469   5.916 167.745  0.00  0.00    +0.000 C 
BRANCH  14  15
ATOM     15  C   UNL     1      35.622   6.282 166.523  0.00  0.00    +0.000 C 
ATOM     16  C   UNL     1      34.957   6.566 165.565  0.00  0.00    +0.000 C 
BRANCH  16  17
ATOM     17  N   UNL     1      34.206   6.880 164.492  0.00  0.00    +0.000 N 
ATOM     18  C   UNL     1      33.622   6.089 163.531  0.00  0.00    +0.000 C 
ATOM     19  O   UNL     1      33.629   4.877 163.403  0.00  0.00    +0.000 OA
ATOM     20  C   UNL     1      32.826   6.738 162.426  0.00  0.00    +0.000 C 
BRANCH  17  21
ATOM     21  O   UNL     1      34.050   8.289 164.425  0.00  0.00    +0.000 OA
ATOM     22  H   UNL     1      34.200   8.573 165.350  0.00  0.00    +0.000 HD
ENDBRANCH  17  21
ENDBRANCH  16  17
ENDBRANCH  14  15
ENDBRANCH  13  14
ENDBRANCH  10  12
ENDBRANCH   7   8
ENDBRANCH   4   6
BRANCH   3  23
ATOM     23  O   UNL     1      41.320   1.584 173.915  0.00  0.00    +0.000 OA
ATOM     24  H   UNL     1      40.960   2.230 173.279  0.00  0.00    +0.000 HD
ENDBRANCH   3  23
ENDBRANCH   2   3
BRANCH   1  25
ATOM     25  C   UNL     1      44.850   0.680 176.940  0.00  0.00    +0.000 C 
ATOM     26  C   UNL     1      45.764   0.148 177.507  0.00  0.00    +0.000 C 
BRANCH  26  27
ATOM     27  C   UNL     1      46.929  -0.543 178.224  0.00  0.00    +0.000 C 
BRANCH  27  28
ATOM     28  N   UNL     1      47.967  -1.139 178.850  0.00  0.00    +0.000 N 
ATOM     29  C   UNL     1      49.032  -0.562 179.500  0.00  0.00    +0.000 C 
ATOM     30  O   UNL     1      49.229   0.638 179.626  0.00  0.00    +0.000 OA
ATOM     31  H   UNL     1      47.938  -2.150 178.836  0.00  0.00    +0.000 HD
BRANCH  29  32
ATOM     32  C   UNL     1      49.978  -1.488 180.073  0.00  0.00    +0.000 C 
ATOM     33  C   UNL     1      50.780  -2.257 180.531  0.00  0.00    +0.000 C 
BRANCH  33  34
ATOM     34  C   UNL     1      51.762  -3.175 181.070  0.00  0.00    +0.000 C 
ATOM     35  O   UNL     1      51.735  -3.393 182.277  0.00  0.00    +0.000 OA
ATOM     36  N   UNL     1      52.687  -3.710 180.189  0.00  0.00    +0.000 N 
BRANCH  36  37
ATOM     37  C   UNL     1      53.610  -4.679 180.364  0.00  0.00    +0.000 C 
ATOM     38  C   UNL     1      54.430  -5.539 180.522  0.00  0.00    +0.000 C 
BRANCH  38  39
ATOM     39  C   UNL     1      55.482  -6.634 180.728  0.00  0.00    +0.000 C 
ATOM     40  C   UNL     1      56.308  -7.488 180.894  0.00  0.00    +0.000 C 
BRANCH  40  41
ATOM     41  C   UNL     1      57.364  -8.576 181.108  0.00  0.00    +0.000 C 
BRANCH  41  42
ATOM     42  N   UNL     1      58.367  -9.609 181.311  0.00  0.00    +0.000 NA
ATOM     43  H   UNL     1      58.474  -9.810 182.304  0.00  0.00    +0.000 HD
ATOM     44  H   UNL     1      58.072 -10.482 180.877  0.00  0.00    +0.000 HD
ENDBRANCH  41  42
ENDBRANCH  40  41
ENDBRANCH  38  39
ENDBRANCH  36  37
BRANCH  36  45
ATOM     45  O   UNL     1      52.454  -3.525 178.808  0.00  0.00    +0.000 OA
ATOM     46  H   UNL     1      52.206  -4.426 178.531  0.00  0.00    +0.000 HD
ENDBRANCH  36  45
ENDBRANCH  33  34
ENDBRANCH  29  32
ENDBRANCH  27  28
ENDBRANCH  26  27
ENDBRANCH   1  25
TORSDOF 19
ENDMDL
MODEL 2
REMARK VINA RESULT:      -5.9      4.262     21.639
REMARK  Name = Deferoxamine.pdbqt.pdb
REMARK  19 active torsions:
REMARK  status: ('A' for Active; 'I' for Inactive)
REMARK    1  A    between atoms: C_1  and  C_2
REMARK    2  A    between atoms: C_3  and  C_4
REMARK    3  A    between atoms: C_4  and  N_5
REMARK    4  A    between atoms: C_6  and  C_9
REMARK    5  A    between atoms: C_10  and  C_11
REMARK    6  A    between atoms: N_13  and  O_14
REMARK    7  A    between atoms: N_13  and  C_16
REMARK    8  A    between atoms: C_17  and  C_18
REMARK    9  A    between atoms: C_19  and  C_20
REMARK   10  A    between atoms: C_20  and  N_21
REMARK   11  A    between atoms: C_24  and  N_25
REMARK   12  A    between atoms: N_25  and  O_28
REMARK   13  A    between atoms: C_26  and  C_30
REMARK   14  A    between atoms: C_31  and  C_32
REMARK   15  A    between atoms: N_34  and  C_36
REMARK   16  A    between atoms: C_37  and  C_38
REMARK   17  A    between atoms: C_38  and  C_39
REMARK   18  A    between atoms: C_40  and  N_41
REMARK   19  A    between atoms: N_41  and  O_45
REMARK                            x       y       z     vdW  Elec       q    Type
REMARK                         _______ _______ _______ _____ _____    ______ ____
ROOT
ATOM      1  C   UNL     1      45.236   1.448 176.918  0.00  0.00    +0.000 C 
ATOM      2  C   UNL     1      46.107   0.784 177.412  0.00  0.00    +0.000 C 
ENDROOT
BRANCH   2   3
ATOM      3  N   UNL     1      47.086   0.041 177.968  0.00  0.00    +0.000 N 
ATOM      4  C   UNL     1      47.916   0.301 179.045  0.00  0.00    +0.000 C 
ATOM      5  O   UNL     1      48.017   1.387 179.606  0.00  0.00    +0.000 OA
BRANCH   4   6
ATOM      6  C   UNL     1      48.751  -0.783 179.520  0.00  0.00    +0.000 C 
ATOM      7  C   UNL     1      49.432  -1.690 179.915  0.00  0.00    +0.000 C 
BRANCH   7   8
ATOM      8  C   UNL     1      50.232  -2.787 180.403  0.00  0.00    +0.000 C 
ATOM      9  O   UNL     1      49.787  -3.495 181.295  0.00  0.00    +0.000 OA
ATOM     10  N   UNL     1      51.459  -2.932 179.797  0.00  0.00    +0.000 N 
ATOM     11  H   UNL     1      51.680  -2.264 179.068  0.00  0.00    +0.000 HD
BRANCH  10  12
ATOM     12  C   UNL     1      52.421  -3.851 180.032  0.00  0.00    +0.000 C 
ATOM     13  C   UNL     1      53.276  -4.668 180.235  0.00  0.00    +0.000 C 
BRANCH  13  14
ATOM     14  C   UNL     1      54.370  -5.711 180.485  0.00  0.00    +0.000 C 
BRANCH  14  15
ATOM     15  C   UNL     1      55.465  -6.749 180.742  0.00  0.00    +0.000 C 
ATOM     16  C   UNL     1      56.326  -7.562 180.942  0.00  0.00    +0.000 C 
BRANCH  16  17
ATOM     17  N   UNL     1      57.297  -8.469 181.164  0.00  0.00    +0.000 N 
ATOM     18  C   UNL     1      58.658  -8.326 181.293  0.00  0.00    +0.000 C 
ATOM     19  O   UNL     1      59.350  -7.325 181.242  0.00  0.00    +0.000 OA
ATOM     20  C   UNL     1      59.507  -9.549 181.539  0.00  0.00    +0.000 C 
BRANCH  17  21
ATOM     21  O   UNL     1      56.718  -9.760 181.264  0.00  0.00    +0.000 OA
ATOM     22  H   UNL     1      55.998  -9.733 180.600  0.00  0.00    +0.000 HD
ENDBRANCH  17  21
ENDBRANCH  16  17
ENDBRANCH  14  15
ENDBRANCH  13  14
ENDBRANCH  10  12
ENDBRANCH   7   8
ENDBRANCH   4   6
BRANCH   3  23
ATOM     23  O   UNL     1      46.929  -1.308 177.576  0.00  0.00    +0.000 OA
ATOM     24  H   UNL     1      45.979  -1.450 177.744  0.00  0.00    +0.000 HD
ENDBRANCH   3  23
ENDBRANCH   2   3
BRANCH   1  25
ATOM     25  C   UNL     1      44.136   2.302 176.282  0.00  0.00    +0.000 C 
ATOM     26  C   UNL     1      43.280   2.983 175.790  0.00  0.00    +0.000 C 
BRANCH  26  27
ATOM     27  C   UNL     1      42.191   3.864 175.168  0.00  0.00    +0.000 C 
BRANCH  27  28
ATOM     28  N   UNL     1      41.220   4.625 174.618  0.00  0.00    +0.000 N 
ATOM     29  C   UNL     1      39.903   4.311 174.379  0.00  0.00    +0.000 C 
ATOM     30  O   UNL     1      39.365   3.243 174.635  0.00  0.00    +0.000 OA
ATOM     31  H   UNL     1      41.519   5.557 174.357  0.00  0.00    +0.000 HD
BRANCH  29  32
ATOM     32  C   UNL     1      39.120   5.360 173.774  0.00  0.00    +0.000 C 
ATOM     33  C   UNL     1      38.455   6.218 173.258  0.00  0.00    +0.000 C 
BRANCH  33  34
ATOM     34  C   UNL     1      37.637   7.237 172.634  0.00  0.00    +0.000 C 
ATOM     35  O   UNL     1      36.666   6.866 171.981  0.00  0.00    +0.000 OA
ATOM     36  N   UNL     1      38.031   8.555 172.788  0.00  0.00    +0.000 N 
BRANCH  36  37
ATOM     37  C   UNL     1      37.409   9.705 172.454  0.00  0.00    +0.000 C 
ATOM     38  C   UNL     1      36.855  10.728 172.160  0.00  0.00    +0.000 C 
BRANCH  38  39
ATOM     39  C   UNL     1      36.144  12.033 171.791  0.00  0.00    +0.000 C 
ATOM     40  C   UNL     1      35.581  13.053 171.501  0.00  0.00    +0.000 C 
BRANCH  40  41
ATOM     41  C   UNL     1      34.860  14.352 171.133  0.00  0.00    +0.000 C 
BRANCH  41  42
ATOM     42  N   UNL     1      34.176  15.586 170.782  0.00  0.00    +0.000 NA
ATOM     43  H   UNL     1      33.456  15.801 171.470  0.00  0.00    +0.000 HD
ATOM     44  H   UNL     1      34.826  16.371 170.801  0.00  0.00    +0.000 HD
ENDBRANCH  41  42
ENDBRANCH  40  41
ENDBRANCH  38  39
ENDBRANCH  36  37
BRANCH  36  45
ATOM     45  O   UNL     1      39.043   8.826 173.737  0.00  0.00    +0.000 OA
ATOM     46  H   UNL     1      38.836   8.174 174.432  0.00  0.00    +0.000 HD
ENDBRANCH  36  45
ENDBRANCH  33  34
ENDBRANCH  29  32
ENDBRANCH  27  28
ENDBRANCH  26  27
ENDBRANCH   1  25
TORSDOF 19
ENDMDL
MODEL 3
REMARK VINA RESULT:      -5.8      3.542      3.937
REMARK  Name = Deferoxamine.pdbqt.pdb
REMARK  19 active torsions:
REMARK  status: ('A' for Active; 'I' for Inactive)
REMARK    1  A    between atoms: C_1  and  C_2
REMARK    2  A    between atoms: C_3  and  C_4
REMARK    3  A    between atoms: C_4  and  N_5
REMARK    4  A    between atoms: C_6  and  C_9
REMARK    5  A    between atoms: C_10  and  C_11
REMARK    6  A    between atoms: N_13  and  O_14
REMARK    7  A    between atoms: N_13  and  C_16
REMARK    8  A    between atoms: C_17  and  C_18
REMARK    9  A    between atoms: C_19  and  C_20
REMARK   10  A    between atoms: C_20  and  N_21
REMARK   11  A    between atoms: C_24  and  N_25
REMARK   12  A    between atoms: N_25  and  O_28
REMARK   13  A    between atoms: C_26  and  C_30
REMARK   14  A    between atoms: C_31  and  C_32
REMARK   15  A    between atoms: N_34  and  C_36
REMARK   16  A    between atoms: C_37  and  C_38
REMARK   17  A    between atoms: C_38  and  C_39
REMARK   18  A    between atoms: C_40  and  N_41
REMARK   19  A    between atoms: N_41  and  O_45
REMARK                            x       y       z     vdW  Elec       q    Type
REMARK                         _______ _______ _______ _____ _____    ______ ____
ROOT
ATOM      1  C   UNL     1      43.490   2.382 176.060  0.00  0.00    +0.000 C 
ATOM      2  C   UNL     1      42.586   2.993 175.557  0.00  0.00    +0.000 C 
ENDROOT
BRANCH   2   3
ATOM      3  N   UNL     1      41.571   3.681 174.994  0.00  0.00    +0.000 N 
ATOM      4  C   UNL     1      40.243   3.340 174.810  0.00  0.00    +0.000 C 
ATOM      5  O   UNL     1      39.775   2.220 174.991  0.00  0.00    +0.000 OA
BRANCH   4   6
ATOM      6  C   UNL     1      39.348   4.375 174.335  0.00  0.00    +0.000 C 
ATOM      7  C   UNL     1      38.611   5.233 173.928  0.00  0.00    +0.000 C 
BRANCH   7   8
ATOM      8  C   UNL     1      37.745   6.270 173.425  0.00  0.00    +0.000 C 
ATOM      9  O   UNL     1      36.638   6.412 173.925  0.00  0.00    +0.000 OA
ATOM     10  N   UNL     1      38.267   7.024 172.399  0.00  0.00    +0.000 N 
ATOM     11  H   UNL     1      39.204   6.783 172.100  0.00  0.00    +0.000 HD
BRANCH  10  12
ATOM     12  C   UNL     1      37.706   8.053 171.728  0.00  0.00    +0.000 C 
ATOM     13  C   UNL     1      37.210   8.972 171.136  0.00  0.00    +0.000 C 
BRANCH  13  14
ATOM     14  C   UNL     1      36.584  10.150 170.384  0.00  0.00    +0.000 C 
BRANCH  14  15
ATOM     15  C   UNL     1      35.959  11.333 169.639  0.00  0.00    +0.000 C 
ATOM     16  C   UNL     1      35.473  12.261 169.053  0.00  0.00    +0.000 C 
BRANCH  16  17
ATOM     17  N   UNL     1      34.931  13.303 168.392  0.00  0.00    +0.000 N 
ATOM     18  C   UNL     1      33.907  14.156 168.727  0.00  0.00    +0.000 C 
ATOM     19  O   UNL     1      33.214  14.193 169.729  0.00  0.00    +0.000 OA
ATOM     20  C   UNL     1      33.512  15.247 167.764  0.00  0.00    +0.000 C 
BRANCH  17  21
ATOM     21  O   UNL     1      35.596  13.464 167.149  0.00  0.00    +0.000 OA
ATOM     22  H   UNL     1      36.074  14.312 167.261  0.00  0.00    +0.000 HD
ENDBRANCH  17  21
ENDBRANCH  16  17
ENDBRANCH  14  15
ENDBRANCH  13  14
ENDBRANCH  10  12
ENDBRANCH   7   8
ENDBRANCH   4   6
BRANCH   3  23
ATOM     23  O   UNL     1      41.904   5.053 174.948  0.00  0.00    +0.000 OA
ATOM     24  H   UNL     1      41.142   5.422 174.463  0.00  0.00    +0.000 HD
ENDBRANCH   3  23
ENDBRANCH   2   3
BRANCH   1  25
ATOM     25  C   UNL     1      44.634   1.602 176.714  0.00  0.00    +0.000 C 
ATOM     26  C   UNL     1      45.525   0.995 177.239  0.00  0.00    +0.000 C 
BRANCH  26  27
ATOM     27  C   UNL     1      46.659   0.223 177.922  0.00  0.00    +0.000 C 
BRANCH  27  28
ATOM     28  N   UNL     1      47.646  -0.469 178.531  0.00  0.00    +0.000 N 
ATOM     29  C   UNL     1      48.679  -0.002 179.309  0.00  0.00    +0.000 C 
ATOM     30  O   UNL     1      48.887   1.168 179.594  0.00  0.00    +0.000 OA
ATOM     31  H   UNL     1      47.602  -1.470 178.390  0.00  0.00    +0.000 HD
BRANCH  29  32
ATOM     32  C   UNL     1      49.572  -1.014 179.818  0.00  0.00    +0.000 C 
ATOM     33  C   UNL     1      50.299  -1.873 180.239  0.00  0.00    +0.000 C 
BRANCH  33  34
ATOM     34  C   UNL     1      51.165  -2.924 180.734  0.00  0.00    +0.000 C 
ATOM     35  O   UNL     1      50.806  -3.532 181.737  0.00  0.00    +0.000 OA
ATOM     36  N   UNL     1      52.355  -3.140 180.060  0.00  0.00    +0.000 N 
BRANCH  36  37
ATOM     37  C   UNL     1      53.276  -4.117 180.192  0.00  0.00    +0.000 C 
ATOM     38  C   UNL     1      54.093  -4.988 180.310  0.00  0.00    +0.000 C 
BRANCH  38  39
ATOM     39  C   UNL     1      55.132  -6.103 180.467  0.00  0.00    +0.000 C 
ATOM     40  C   UNL     1      55.944  -6.977 180.595  0.00  0.00    +0.000 C 
BRANCH  40  41
ATOM     41  C   UNL     1      56.980  -8.092 180.762  0.00  0.00    +0.000 C 
BRANCH  41  42
ATOM     42  N   UNL     1      57.963  -9.151 180.920  0.00  0.00    +0.000 NA
ATOM     43  H   UNL     1      58.809  -8.788 181.356  0.00  0.00    +0.000 HD
ATOM     44  H   UNL     1      57.611  -9.873 181.546  0.00  0.00    +0.000 HD
ENDBRANCH  41  42
ENDBRANCH  40  41
ENDBRANCH  38  39
ENDBRANCH  36  37
BRANCH  36  45
ATOM     45  O   UNL     1      52.521  -2.503 178.809  0.00  0.00    +0.000 OA
ATOM     46  H   UNL     1      52.399  -3.249 178.194  0.00  0.00    +0.000 HD
ENDBRANCH  36  45
ENDBRANCH  33  34
ENDBRANCH  29  32
ENDBRANCH  27  28
ENDBRANCH  26  27
ENDBRANCH   1  25
TORSDOF 19
ENDMDL
MODEL 4
REMARK VINA RESULT:      -5.7      2.354     21.287
REMARK  Name = Deferoxamine.pdbqt.pdb
REMARK  19 active torsions:
REMARK  status: ('A' for Active; 'I' for Inactive)
REMARK    1  A    between atoms: C_1  and  C_2
REMARK    2  A    between atoms: C_3  and  C_4
REMARK    3  A    between atoms: C_4  and  N_5
REMARK    4  A    between atoms: C_6  and  C_9
REMARK    5  A    between atoms: C_10  and  C_11
REMARK    6  A    between atoms: N_13  and  O_14
REMARK    7  A    between atoms: N_13  and  C_16
REMARK    8  A    between atoms: C_17  and  C_18
REMARK    9  A    between atoms: C_19  and  C_20
REMARK   10  A    between atoms: C_20  and  N_21
REMARK   11  A    between atoms: C_24  and  N_25
REMARK   12  A    between atoms: N_25  and  O_28
REMARK   13  A    between atoms: C_26  and  C_30
REMARK   14  A    between atoms: C_31  and  C_32
REMARK   15  A    between atoms: N_34  and  C_36
REMARK   16  A    between atoms: C_37  and  C_38
REMARK   17  A    between atoms: C_38  and  C_39
REMARK   18  A    between atoms: C_40  and  N_41
REMARK   19  A    between atoms: N_41  and  O_45
REMARK                            x       y       z     vdW  Elec       q    Type
REMARK                         _______ _______ _______ _____ _____    ______ ____
ROOT
ATOM      1  C   UNL     1      44.861   1.282 176.309  0.00  0.00    +0.000 C 
ATOM      2  C   UNL     1      45.764   0.781 176.923  0.00  0.00    +0.000 C 
ENDROOT
BRANCH   2   3
ATOM      3  N   UNL     1      46.778   0.220 177.613  0.00  0.00    +0.000 N 
ATOM      4  C   UNL     1      47.411   0.624 178.775  0.00  0.00    +0.000 C 
ATOM      5  O   UNL     1      47.256   1.715 179.315  0.00  0.00    +0.000 OA
BRANCH   4   6
ATOM      6  C   UNL     1      48.353  -0.297 179.377  0.00  0.00    +0.000 C 
ATOM      7  C   UNL     1      49.141  -1.061 179.864  0.00  0.00    +0.000 C 
BRANCH   7   8
ATOM      8  C   UNL     1      50.091  -1.988 180.428  0.00  0.00    +0.000 C 
ATOM      9  O   UNL     1      50.066  -2.205 181.631  0.00  0.00    +0.000 OA
ATOM     10  N   UNL     1      50.961  -2.557 179.526  0.00  0.00    +0.000 N 
ATOM     11  H   UNL     1      50.850  -2.277 178.560  0.00  0.00    +0.000 HD
BRANCH  10  12
ATOM     12  C   UNL     1      51.951  -3.450 179.745  0.00  0.00    +0.000 C 
ATOM     13  C   UNL     1      52.834  -4.239 179.941  0.00  0.00    +0.000 C 
BRANCH  13  14
ATOM     14  C   UNL     1      53.966  -5.239 180.195  0.00  0.00    +0.000 C 
BRANCH  14  15
ATOM     15  C   UNL     1      55.099  -6.239 180.441  0.00  0.00    +0.000 C 
ATOM     16  C   UNL     1      55.986  -7.026 180.633  0.00  0.00    +0.000 C 
BRANCH  16  17
ATOM     17  N   UNL     1      56.977  -7.913 180.846  0.00  0.00    +0.000 N 
ATOM     18  C   UNL     1      58.059  -7.877 181.693  0.00  0.00    +0.000 C 
ATOM     19  O   UNL     1      58.406  -7.019 182.486  0.00  0.00    +0.000 OA
ATOM     20  C   UNL     1      59.020  -9.039 181.709  0.00  0.00    +0.000 C 
BRANCH  17  21
ATOM     21  O   UNL     1      56.785  -9.040 180.006  0.00  0.00    +0.000 OA
ATOM     22  H   UNL     1      55.939  -9.415 180.327  0.00  0.00    +0.000 HD
ENDBRANCH  17  21
ENDBRANCH  16  17
ENDBRANCH  14  15
ENDBRANCH  13  14
ENDBRANCH  10  12
ENDBRANCH   7   8
ENDBRANCH   4   6
BRANCH   3  23
ATOM     23  O   UNL     1      46.903  -1.138 177.241  0.00  0.00    +0.000 OA
ATOM     24  H   UNL     1      47.510  -1.471 177.927  0.00  0.00    +0.000 HD
ENDBRANCH   3  23
ENDBRANCH   2   3
BRANCH   1  25
ATOM     25  C   UNL     1      43.721   1.931 175.520  0.00  0.00    +0.000 C 
ATOM     26  C   UNL     1      42.819   2.429 174.905  0.00  0.00    +0.000 C 
BRANCH  26  27
ATOM     27  C   UNL     1      41.659   3.054 174.123  0.00  0.00    +0.000 C 
BRANCH  27  28
ATOM     28  N   UNL     1      40.646   3.620 173.430  0.00  0.00    +0.000 N 
ATOM     29  C   UNL     1      39.664   4.473 173.874  0.00  0.00    +0.000 C 
ATOM     30  O   UNL     1      39.534   4.880 175.019  0.00  0.00    +0.000 OA
ATOM     31  H   UNL     1      40.627   3.377 172.448  0.00  0.00    +0.000 HD
BRANCH  29  32
ATOM     32  C   UNL     1      38.723   4.904 172.868  0.00  0.00    +0.000 C 
ATOM     33  C   UNL     1      37.956   5.257 172.014  0.00  0.00    +0.000 C 
BRANCH  33  34
ATOM     34  C   UNL     1      37.039   5.668 170.971  0.00  0.00    +0.000 C 
ATOM     35  O   UNL     1      36.181   6.495 171.260  0.00  0.00    +0.000 OA
ATOM     36  N   UNL     1      37.174   5.067 169.730  0.00  0.00    +0.000 N 
BRANCH  36  37
ATOM     37  C   UNL     1      36.578   5.339 168.551  0.00  0.00    +0.000 C 
ATOM     38  C   UNL     1      36.044   5.580 167.504  0.00  0.00    +0.000 C 
BRANCH  38  39
ATOM     39  C   UNL     1      35.359   5.882 166.167  0.00  0.00    +0.000 C 
ATOM     40  C   UNL     1      34.823   6.123 165.121  0.00  0.00    +0.000 C 
BRANCH  40  41
ATOM     41  C   UNL     1      34.140   6.436 163.787  0.00  0.00    +0.000 C 
BRANCH  41  42
ATOM     42  N   UNL     1      33.491   6.733 162.520  0.00  0.00    +0.000 NA
ATOM     43  H   UNL     1      34.140   6.593 161.747  0.00  0.00    +0.000 HD
ATOM     44  H   UNL     1      32.717   6.090 162.358  0.00  0.00    +0.000 HD
ENDBRANCH  41  42
ENDBRANCH  40  41
ENDBRANCH  38  39
ENDBRANCH  36  37
BRANCH  36  45
ATOM     45  O   UNL     1      38.337   4.296 169.502  0.00  0.00    +0.000 OA
ATOM     46  H   UNL     1      38.235   4.067 168.560  0.00  0.00    +0.000 HD
ENDBRANCH  36  45
ENDBRANCH  33  34
ENDBRANCH  29  32
ENDBRANCH  27  28
ENDBRANCH  26  27
ENDBRANCH   1  25
TORSDOF 19
ENDMDL
MODEL 5
REMARK VINA RESULT:      -5.5     35.615     36.671
REMARK  Name = Deferoxamine.pdbqt.pdb
REMARK  19 active torsions:
REMARK  status: ('A' for Active; 'I' for Inactive)
REMARK    1  A    between atoms: C_1  and  C_2
REMARK    2  A    between atoms: C_3  and  C_4
REMARK    3  A    between atoms: C_4  and  N_5
REMARK    4  A    between atoms: C_6  and  C_9
REMARK    5  A    between atoms: C_10  and  C_11
REMARK    6  A    between atoms: N_13  and  O_14
REMARK    7  A    between atoms: N_13  and  C_16
REMARK    8  A    between atoms: C_17  and  C_18
REMARK    9  A    between atoms: C_19  and  C_20
REMARK   10  A    between atoms: C_20  and  N_21
REMARK   11  A    between atoms: C_24  and  N_25
REMARK   12  A    between atoms: N_25  and  O_28
REMARK   13  A    between atoms: C_26  and  C_30
REMARK   14  A    between atoms: C_31  and  C_32
REMARK   15  A    between atoms: N_34  and  C_36
REMARK   16  A    between atoms: C_37  and  C_38
REMARK   17  A    between atoms: C_38  and  C_39
REMARK   18  A    between atoms: C_40  and  N_41
REMARK   19  A    between atoms: N_41  and  O_45
REMARK                            x       y       z     vdW  Elec       q    Type
REMARK                         _______ _______ _______ _____ _____    ______ ____
ROOT
ATOM      1  C   UNL     1      10.062  -5.429 181.344  0.00  0.00    +0.000 C 
ATOM      2  C   UNL     1       9.720  -4.286 181.484  0.00  0.00    +0.000 C 
ENDROOT
BRANCH   2   3
ATOM      3  N   UNL     1       9.336  -3.003 181.641  0.00  0.00    +0.000 N 
ATOM      4  C   UNL     1       8.359  -2.267 180.993  0.00  0.00    +0.000 C 
ATOM      5  O   UNL     1       7.754  -2.635 179.991  0.00  0.00    +0.000 OA
BRANCH   4   6
ATOM      6  C   UNL     1       8.055  -0.952 181.518  0.00  0.00    +0.000 C 
ATOM      7  C   UNL     1       7.816   0.141 181.956  0.00  0.00    +0.000 C 
BRANCH   7   8
ATOM      8  C   UNL     1       7.549   1.452 182.495  0.00  0.00    +0.000 C 
ATOM      9  O   UNL     1       7.336   1.568 183.694  0.00  0.00    +0.000 OA
ATOM     10  N   UNL     1       7.561   2.477 181.577  0.00  0.00    +0.000 N 
ATOM     11  H   UNL     1       7.759   2.217 180.619  0.00  0.00    +0.000 HD
BRANCH  10  12
ATOM     12  C   UNL     1       7.348   3.797 181.772  0.00  0.00    +0.000 C 
ATOM     13  C   UNL     1       7.160   4.968 181.951  0.00  0.00    +0.000 C 
BRANCH  13  14
ATOM     14  C   UNL     1       6.924   6.463 182.189  0.00  0.00    +0.000 C 
BRANCH  14  15
ATOM     15  C   UNL     1       6.686   7.958 182.418  0.00  0.00    +0.000 C 
ATOM     16  C   UNL     1       6.496   9.130 182.596  0.00  0.00    +0.000 C 
BRANCH  16  17
ATOM     17  N   UNL     1       6.277  10.444 182.795  0.00  0.00    +0.000 N 
ATOM     18  C   UNL     1       5.391  11.102 183.615  0.00  0.00    +0.000 C 
ATOM     19  O   UNL     1       4.563  10.657 184.391  0.00  0.00    +0.000 OA
ATOM     20  C   UNL     1       5.373  12.610 183.621  0.00  0.00    +0.000 C 
BRANCH  17  21
ATOM     21  O   UNL     1       7.155  11.196 181.971  0.00  0.00    +0.000 OA
ATOM     22  H   UNL     1       6.607  11.391 181.183  0.00  0.00    +0.000 HD
ENDBRANCH  17  21
ENDBRANCH  16  17
ENDBRANCH  14  15
ENDBRANCH  13  14
ENDBRANCH  10  12
ENDBRANCH   7   8
ENDBRANCH   4   6
BRANCH   3  23
ATOM     23  O   UNL     1       9.781  -2.531 182.897  0.00  0.00    +0.000 OA
ATOM     24  H   UNL     1       8.950  -2.197 183.284  0.00  0.00    +0.000 HD
ENDBRANCH   3  23
ENDBRANCH   2   3
BRANCH   1  25
ATOM     25  C   UNL     1      10.485  -6.888 181.154  0.00  0.00    +0.000 C 
ATOM     26  C   UNL     1      10.828  -8.029 181.014  0.00  0.00    +0.000 C 
BRANCH  26  27
ATOM     27  C   UNL     1      11.276  -9.485 180.844  0.00  0.00    +0.000 C 
BRANCH  27  28
ATOM     28  N   UNL     1      11.660 -10.770 180.681  0.00  0.00    +0.000 N 
ATOM     29  C   UNL     1      12.564 -11.297 179.789  0.00  0.00    +0.000 C 
ATOM     30  O   UNL     1      13.200 -10.665 178.958  0.00  0.00    +0.000 OA
ATOM     31  H   UNL     1      11.216 -11.421 181.315  0.00  0.00    +0.000 HD
BRANCH  29  32
ATOM     32  C   UNL     1      12.752 -12.725 179.875  0.00  0.00    +0.000 C 
ATOM     33  C   UNL     1      12.902 -13.915 179.923  0.00  0.00    +0.000 C 
BRANCH  33  34
ATOM     34  C   UNL     1      13.088 -15.352 179.960  0.00  0.00    +0.000 C 
ATOM     35  O   UNL     1      12.249 -16.019 180.557  0.00  0.00    +0.000 OA
ATOM     36  N   UNL     1      14.220 -15.864 179.349  0.00  0.00    +0.000 N 
BRANCH  36  37
ATOM     37  C   UNL     1      14.585 -17.138 179.099  0.00  0.00    +0.000 C 
ATOM     38  C   UNL     1      14.912 -18.271 178.875  0.00  0.00    +0.000 C 
BRANCH  38  39
ATOM     39  C   UNL     1      15.333 -19.715 178.584  0.00  0.00    +0.000 C 
ATOM     40  C   UNL     1      15.666 -20.844 178.352  0.00  0.00    +0.000 C 
BRANCH  40  41
ATOM     41  C   UNL     1      16.095 -22.283 178.055  0.00  0.00    +0.000 C 
BRANCH  41  42
ATOM     42  N   UNL     1      16.503 -23.650 177.773  0.00  0.00    +0.000 NA
ATOM     43  H   UNL     1      16.007 -24.008 176.958  0.00  0.00    +0.000 HD
ATOM     44  H   UNL     1      17.493 -23.684 177.537  0.00  0.00    +0.000 HD
ENDBRANCH  41  42
ENDBRANCH  40  41
ENDBRANCH  38  39
ENDBRANCH  36  37
BRANCH  36  45
ATOM     45  O   UNL     1      14.971 -14.990 178.529  0.00  0.00    +0.000 OA
ATOM     46  H   UNL     1      15.716 -15.562 178.269  0.00  0.00    +0.000 HD
ENDBRANCH  36  45
ENDBRANCH  33  34
ENDBRANCH  29  32
ENDBRANCH  27  28
ENDBRANCH  26  27
ENDBRANCH   1  25
TORSDOF 19
ENDMDL
MODEL 6
REMARK VINA RESULT:      -5.4     34.613     35.353
REMARK  Name = Deferoxamine.pdbqt.pdb
REMARK  19 active torsions:
REMARK  status: ('A' for Active; 'I' for Inactive)
REMARK    1  A    between atoms: C_1  and  C_2
REMARK    2  A    between atoms: C_3  and  C_4
REMARK    3  A    between atoms: C_4  and  N_5
REMARK    4  A    between atoms: C_6  and  C_9
REMARK    5  A    between atoms: C_10  and  C_11
REMARK    6  A    between atoms: N_13  and  O_14
REMARK    7  A    between atoms: N_13  and  C_16
REMARK    8  A    between atoms: C_17  and  C_18
REMARK    9  A    between atoms: C_19  and  C_20
REMARK   10  A    between atoms: C_20  and  N_21
REMARK   11  A    between atoms: C_24  and  N_25
REMARK   12  A    between atoms: N_25  and  O_28
REMARK   13  A    between atoms: C_26  and  C_30
REMARK   14  A    between atoms: C_31  and  C_32
REMARK   15  A    between atoms: N_34  and  C_36
REMARK   16  A    between atoms: C_37  and  C_38
REMARK   17  A    between atoms: C_38  and  C_39
REMARK   18  A    between atoms: C_40  and  N_41
REMARK   19  A    between atoms: N_41  and  O_45
REMARK                            x       y       z     vdW  Elec       q    Type
REMARK                         _______ _______ _______ _____ _____    ______ ____
ROOT
ATOM      1  C   UNL     1      10.041  -4.253 181.050  0.00  0.00    +0.000 C 
ATOM      2  C   UNL     1       9.718  -3.096 181.016  0.00  0.00    +0.000 C 
ENDROOT
BRANCH   2   3
ATOM      3  N   UNL     1       9.352  -1.798 180.979  0.00  0.00    +0.000 N 
ATOM      4  C   UNL     1       8.847  -0.974 181.970  0.00  0.00    +0.000 C 
ATOM      5  O   UNL     1       8.469  -1.355 183.073  0.00  0.00    +0.000 OA
BRANCH   4   6
ATOM      6  C   UNL     1       8.725   0.437 181.666  0.00  0.00    +0.000 C 
ATOM      7  C   UNL     1       8.625   1.604 181.401  0.00  0.00    +0.000 C 
BRANCH   7   8
ATOM      8  C   UNL     1       8.520   3.002 181.064  0.00  0.00    +0.000 C 
ATOM      9  O   UNL     1       7.778   3.717 181.722  0.00  0.00    +0.000 OA
ATOM     10  N   UNL     1       9.292   3.408 179.999  0.00  0.00    +0.000 N 
ATOM     11  H   UNL     1       9.859   2.694 179.560  0.00  0.00    +0.000 HD
BRANCH  10  12
ATOM     12  C   UNL     1       9.408   4.638 179.451  0.00  0.00    +0.000 C 
ATOM     13  C   UNL     1       9.517   5.729 178.964  0.00  0.00    +0.000 C 
BRANCH  13  14
ATOM     14  C   UNL     1       9.663   7.119 178.337  0.00  0.00    +0.000 C 
BRANCH  14  15
ATOM     15  C   UNL     1       9.806   8.512 177.717  0.00  0.00    +0.000 C 
ATOM     16  C   UNL     1       9.915   9.603 177.230  0.00  0.00    +0.000 C 
BRANCH  16  17
ATOM     17  N   UNL     1      10.032  10.828 176.681  0.00  0.00    +0.000 N 
ATOM     18  C   UNL     1      10.574  11.993 177.171  0.00  0.00    +0.000 C 
ATOM     19  O   UNL     1      11.102  12.221 178.245  0.00  0.00    +0.000 OA
ATOM     20  C   UNL     1      10.556  13.232 176.311  0.00  0.00    +0.000 C 
BRANCH  17  21
ATOM     21  O   UNL     1       9.467  10.814 175.380  0.00  0.00    +0.000 OA
ATOM     22  H   UNL     1       8.607  11.267 175.506  0.00  0.00    +0.000 HD
ENDBRANCH  17  21
ENDBRANCH  16  17
ENDBRANCH  14  15
ENDBRANCH  13  14
ENDBRANCH  10  12
ENDBRANCH   7   8
ENDBRANCH   4   6
BRANCH   3  23
ATOM     23  O   UNL     1       9.938  -1.179 179.852  0.00  0.00    +0.000 OA
ATOM     24  H   UNL     1      10.883  -1.377 179.991  0.00  0.00    +0.000 HD
ENDBRANCH   3  23
ENDBRANCH   2   3
BRANCH   1  25
ATOM     25  C   UNL     1      10.442  -5.730 181.081  0.00  0.00    +0.000 C 
ATOM     26  C   UNL     1      10.768  -6.884 181.099  0.00  0.00    +0.000 C 
BRANCH  26  27
ATOM     27  C   UNL     1      11.196  -8.356 181.114  0.00  0.00    +0.000 C 
BRANCH  27  28
ATOM     28  N   UNL     1      11.558  -9.657 181.137  0.00  0.00    +0.000 N 
ATOM     29  C   UNL     1      10.763 -10.775 181.224  0.00  0.00    +0.000 C 
ATOM     30  O   UNL     1       9.543 -10.782 181.300  0.00  0.00    +0.000 OA
ATOM     31  H   UNL     1      12.556  -9.813 181.073  0.00  0.00    +0.000 HD
BRANCH  29  32
ATOM     32  C   UNL     1      11.469 -12.034 181.220  0.00  0.00    +0.000 C 
ATOM     33  C   UNL     1      12.068 -13.074 181.198  0.00  0.00    +0.000 C 
BRANCH  33  34
ATOM     34  C   UNL     1      12.809 -14.319 181.162  0.00  0.00    +0.000 C 
ATOM     35  O   UNL     1      12.951 -14.928 182.218  0.00  0.00    +0.000 OA
ATOM     36  N   UNL     1      13.336 -14.712 179.943  0.00  0.00    +0.000 N 
BRANCH  36  37
ATOM     37  C   UNL     1      13.934 -15.864 179.574  0.00  0.00    +0.000 C 
ATOM     38  C   UNL     1      14.468 -16.886 179.243  0.00  0.00    +0.000 C 
BRANCH  38  39
ATOM     39  C   UNL     1      15.147 -18.191 178.813  0.00  0.00    +0.000 C 
ATOM     40  C   UNL     1      15.684 -19.209 178.477  0.00  0.00    +0.000 C 
BRANCH  40  41
ATOM     41  C   UNL     1      16.373 -20.508 178.047  0.00  0.00    +0.000 C 
BRANCH  41  42
ATOM     42  N   UNL     1      17.026 -21.741 177.639  0.00  0.00    +0.000 NA
ATOM     43  H   UNL     1      17.097 -22.383 178.427  0.00  0.00    +0.000 HD
ATOM     44  H   UNL     1      16.469 -22.221 176.934  0.00  0.00    +0.000 HD
ENDBRANCH  41  42
ENDBRANCH  40  41
ENDBRANCH  38  39
ENDBRANCH  36  37
BRANCH  36  45
ATOM     45  O   UNL     1      12.907 -14.014 178.791  0.00  0.00    +0.000 OA
ATOM     46  H   UNL     1      12.211 -14.608 178.454  0.00  0.00    +0.000 HD
ENDBRANCH  36  45
ENDBRANCH  33  34
ENDBRANCH  29  32
ENDBRANCH  27  28
ENDBRANCH  26  27
ENDBRANCH   1  25
TORSDOF 19
ENDMDL
MODEL 7
REMARK VINA RESULT:      -5.4     20.024     20.859
REMARK  Name = Deferoxamine.pdbqt.pdb
REMARK  19 active torsions:
REMARK  status: ('A' for Active; 'I' for Inactive)
REMARK    1  A    between atoms: C_1  and  C_2
REMARK    2  A    between atoms: C_3  and  C_4
REMARK    3  A    between atoms: C_4  and  N_5
REMARK    4  A    between atoms: C_6  and  C_9
REMARK    5  A    between atoms: C_10  and  C_11
REMARK    6  A    between atoms: N_13  and  O_14
REMARK    7  A    between atoms: N_13  and  C_16
REMARK    8  A    between atoms: C_17  and  C_18
REMARK    9  A    between atoms: C_19  and  C_20
REMARK   10  A    between atoms: C_20  and  N_21
REMARK   11  A    between atoms: C_24  and  N_25
REMARK   12  A    between atoms: N_25  and  O_28
REMARK   13  A    between atoms: C_26  and  C_30
REMARK   14  A    between atoms: C_31  and  C_32
REMARK   15  A    between atoms: N_34  and  C_36
REMARK   16  A    between atoms: C_37  and  C_38
REMARK   17  A    between atoms: C_38  and  C_39
REMARK   18  A    between atoms: C_40  and  N_41
REMARK   19  A    between atoms: N_41  and  O_45
REMARK                            x       y       z     vdW  Elec       q    Type
REMARK                         _______ _______ _______ _____ _____    ______ ____
ROOT
ATOM      1  C   UNL     1      35.165  -2.518 192.149  0.00  0.00    +0.000 C 
ATOM      2  C   UNL     1      34.217  -1.842 191.856  0.00  0.00    +0.000 C 
ENDROOT
BRANCH   2   3
ATOM      3  N   UNL     1      33.152  -1.081 191.527  0.00  0.00    +0.000 N 
ATOM      4  C   UNL     1      32.954  -0.219 190.462  0.00  0.00    +0.000 C 
ATOM      5  O   UNL     1      33.828   0.144 189.682  0.00  0.00    +0.000 OA
BRANCH   4   6
ATOM      6  C   UNL     1      31.622   0.319 190.278  0.00  0.00    +0.000 C 
ATOM      7  C   UNL     1      30.522   0.778 190.123  0.00  0.00    +0.000 C 
BRANCH   7   8
ATOM      8  C   UNL     1      29.210   1.349 189.944  0.00  0.00    +0.000 C 
ATOM      9  O   UNL     1      29.089   2.566 189.939  0.00  0.00    +0.000 OA
ATOM     10  N   UNL     1      28.190   0.438 189.791  0.00  0.00    +0.000 N 
ATOM     11  H   UNL     1      28.456  -0.539 189.814  0.00  0.00    +0.000 HD
BRANCH  10  12
ATOM     12  C   UNL     1      26.871   0.660 189.608  0.00  0.00    +0.000 C 
ATOM     13  C   UNL     1      25.699   0.863 189.449  0.00  0.00    +0.000 C 
BRANCH  13  14
ATOM     14  C   UNL     1      24.204   1.131 189.248  0.00  0.00    +0.000 C 
BRANCH  14  15
ATOM     15  C   UNL     1      22.709   1.401 189.056  0.00  0.00    +0.000 C 
ATOM     16  C   UNL     1      21.537   1.613 188.903  0.00  0.00    +0.000 C 
BRANCH  16  17
ATOM     17  N   UNL     1      20.224   1.853 188.725  0.00  0.00    +0.000 N 
ATOM     18  C   UNL     1      19.549   2.501 187.717  0.00  0.00    +0.000 C 
ATOM     19  O   UNL     1      19.972   3.032 186.706  0.00  0.00    +0.000 OA
ATOM     20  C   UNL     1      18.047   2.618 187.794  0.00  0.00    +0.000 C 
BRANCH  17  21
ATOM     21  O   UNL     1      19.496   1.308 189.815  0.00  0.00    +0.000 OA
ATOM     22  H   UNL     1      20.200   0.963 190.401  0.00  0.00    +0.000 HD
ENDBRANCH  17  21
ENDBRANCH  16  17
ENDBRANCH  14  15
ENDBRANCH  13  14
ENDBRANCH  10  12
ENDBRANCH   7   8
ENDBRANCH   4   6
BRANCH   3  23
ATOM     23  O   UNL     1      32.006  -1.564 192.197  0.00  0.00    +0.000 OA
ATOM     24  H   UNL     1      31.302  -1.024 191.791  0.00  0.00    +0.000 HD
ENDBRANCH   3  23
ENDBRANCH   2   3
BRANCH   1  25
ATOM     25  C   UNL     1      36.379  -3.369 192.533  0.00  0.00    +0.000 C 
ATOM     26  C   UNL     1      37.321  -4.047 192.835  0.00  0.00    +0.000 C 
BRANCH  26  27
ATOM     27  C   UNL     1      38.517  -4.924 193.222  0.00  0.00    +0.000 C 
BRANCH  27  28
ATOM     28  N   UNL     1      39.562  -5.701 193.579  0.00  0.00    +0.000 N 
ATOM     29  C   UNL     1      40.797  -5.817 192.986  0.00  0.00    +0.000 C 
ATOM     30  O   UNL     1      41.174  -5.212 191.993  0.00  0.00    +0.000 OA
ATOM     31  H   UNL     1      39.400  -6.265 194.404  0.00  0.00    +0.000 HD
BRANCH  29  32
ATOM     32  C   UNL     1      41.701  -6.744 193.623  0.00  0.00    +0.000 C 
ATOM     33  C   UNL     1      42.454  -7.502 194.173  0.00  0.00    +0.000 C 
BRANCH  33  34
ATOM     34  C   UNL     1      43.353  -8.410 194.856  0.00  0.00    +0.000 C 
ATOM     35  O   UNL     1      43.557  -8.217 196.051  0.00  0.00    +0.000 OA
ATOM     36  N   UNL     1      43.946  -9.408 194.102  0.00  0.00    +0.000 N 
BRANCH  36  37
ATOM     37  C   UNL     1      44.696 -10.465 194.475  0.00  0.00    +0.000 C 
ATOM     38  C   UNL     1      45.361 -11.406 194.809  0.00  0.00    +0.000 C 
BRANCH  38  39
ATOM     39  C   UNL     1      46.207 -12.608 195.242  0.00  0.00    +0.000 C 
ATOM     40  C   UNL     1      46.874 -13.547 195.579  0.00  0.00    +0.000 C 
BRANCH  40  41
ATOM     41  C   UNL     1      47.727 -14.744 196.006  0.00  0.00    +0.000 C 
BRANCH  41  42
ATOM     42  N   UNL     1      48.538 -15.881 196.411  0.00  0.00    +0.000 NA
ATOM     43  H   UNL     1      48.550 -15.965 197.426  0.00  0.00    +0.000 HD
ATOM     44  H   UNL     1      48.134 -16.748 196.061  0.00  0.00    +0.000 HD
ENDBRANCH  41  42
ENDBRANCH  40  41
ENDBRANCH  38  39
ENDBRANCH  36  37
BRANCH  36  45
ATOM     45  O   UNL     1      43.447  -9.623 192.797  0.00  0.00    +0.000 OA
ATOM     46  H   UNL     1      44.129 -10.211 192.423  0.00  0.00    +0.000 HD
ENDBRANCH  36  45
ENDBRANCH  33  34
ENDBRANCH  29  32
ENDBRANCH  27  28
ENDBRANCH  26  27
ENDBRANCH   1  25
TORSDOF 19
ENDMDL
MODEL 8
REMARK VINA RESULT:      -5.4     34.367     38.924
REMARK  Name = Deferoxamine.pdbqt.pdb
REMARK  19 active torsions:
REMARK  status: ('A' for Active; 'I' for Inactive)
REMARK    1  A    between atoms: C_1  and  C_2
REMARK    2  A    between atoms: C_3  and  C_4
REMARK    3  A    between atoms: C_4  and  N_5
REMARK    4  A    between atoms: C_6  and  C_9
REMARK    5  A    between atoms: C_10  and  C_11
REMARK    6  A    between atoms: N_13  and  O_14
REMARK    7  A    between atoms: N_13  and  C_16
REMARK    8  A    between atoms: C_17  and  C_18
REMARK    9  A    between atoms: C_19  and  C_20
REMARK   10  A    between atoms: C_20  and  N_21
REMARK   11  A    between atoms: C_24  and  N_25
REMARK   12  A    between atoms: N_25  and  O_28
REMARK   13  A    between atoms: C_26  and  C_30
REMARK   14  A    between atoms: C_31  and  C_32
REMARK   15  A    between atoms: N_34  and  C_36
REMARK   16  A    between atoms: C_37  and  C_38
REMARK   17  A    between atoms: C_38  and  C_39
REMARK   18  A    between atoms: C_40  and  N_41
REMARK   19  A    between atoms: N_41  and  O_45
REMARK                            x       y       z     vdW  Elec       q    Type
REMARK                         _______ _______ _______ _____ _____    ______ ____
ROOT
ATOM      1  C   UNL     1       9.952  -4.617 181.055  0.00  0.00    +0.000 C 
ATOM      2  C   UNL     1      10.126  -5.795 181.211  0.00  0.00    +0.000 C 
ENDROOT
BRANCH   2   3
ATOM      3  N   UNL     1      10.324  -7.118 181.385  0.00  0.00    +0.000 N 
ATOM      4  C   UNL     1       9.418  -8.156 181.516  0.00  0.00    +0.000 C 
ATOM      5  O   UNL     1       8.210  -8.017 181.670  0.00  0.00    +0.000 OA
BRANCH   4   6
ATOM      6  C   UNL     1       9.944  -9.506 181.506  0.00  0.00    +0.000 C 
ATOM      7  C   UNL     1      10.383 -10.624 181.483  0.00  0.00    +0.000 C 
BRANCH   7   8
ATOM      8  C   UNL     1      10.901 -11.969 181.434  0.00  0.00    +0.000 C 
ATOM      9  O   UNL     1      10.483 -12.795 182.232  0.00  0.00    +0.000 OA
ATOM     10  N   UNL     1      11.847 -12.197 180.460  0.00  0.00    +0.000 N 
ATOM     11  H   UNL     1      12.084 -11.408 179.873  0.00  0.00    +0.000 HD
BRANCH  10  12
ATOM     12  C   UNL     1      12.509 -13.338 180.168  0.00  0.00    +0.000 C 
ATOM     13  C   UNL     1      13.103 -14.349 179.910  0.00  0.00    +0.000 C 
BRANCH  13  14
ATOM     14  C   UNL     1      13.868 -15.636 179.586  0.00  0.00    +0.000 C 
BRANCH  14  15
ATOM     15  C   UNL     1      14.639 -16.919 179.266  0.00  0.00    +0.000 C 
ATOM     16  C   UNL     1      15.247 -17.923 179.014  0.00  0.00    +0.000 C 
BRANCH  16  17
ATOM     17  N   UNL     1      15.934 -19.047 178.731  0.00  0.00    +0.000 N 
ATOM     18  C   UNL     1      16.191 -19.675 177.535  0.00  0.00    +0.000 C 
ATOM     19  O   UNL     1      15.861 -19.370 176.403  0.00  0.00    +0.000 OA
ATOM     20  C   UNL     1      17.003 -20.946 177.531  0.00  0.00    +0.000 C 
BRANCH  17  21
ATOM     21  O   UNL     1      16.436 -19.605 179.935  0.00  0.00    +0.000 OA
ATOM     22  H   UNL     1      16.876 -18.844 180.366  0.00  0.00    +0.000 HD
ENDBRANCH  17  21
ENDBRANCH  16  17
ENDBRANCH  14  15
ENDBRANCH  13  14
ENDBRANCH  10  12
ENDBRANCH   7   8
ENDBRANCH   4   6
BRANCH   3  23
ATOM     23  O   UNL     1      11.644  -7.449 181.004  0.00  0.00    +0.000 OA
ATOM     24  H   UNL     1      12.119  -6.623 181.213  0.00  0.00    +0.000 HD
ENDBRANCH   3  23
ENDBRANCH   2   3
BRANCH   1  25
ATOM     25  C   UNL     1       9.736  -3.116 180.842  0.00  0.00    +0.000 C 
ATOM     26  C   UNL     1       9.560  -1.939 180.687  0.00  0.00    +0.000 C 
BRANCH  26  27
ATOM     27  C   UNL     1       9.331  -0.436 180.503  0.00  0.00    +0.000 C 
BRANCH  27  28
ATOM     28  N   UNL     1       9.132   0.888 180.322  0.00  0.00    +0.000 N 
ATOM     29  C   UNL     1       8.915   1.868 181.262  0.00  0.00    +0.000 C 
ATOM     30  O   UNL     1       8.864   1.699 182.472  0.00  0.00    +0.000 OA
ATOM     31  H   UNL     1       9.155   1.185 179.355  0.00  0.00    +0.000 HD
BRANCH  29  32
ATOM     32  C   UNL     1       8.741   3.199 180.735  0.00  0.00    +0.000 C 
ATOM     33  C   UNL     1       8.612   4.316 180.313  0.00  0.00    +0.000 C 
BRANCH  33  34
ATOM     34  C   UNL     1       8.477   5.668 179.809  0.00  0.00    +0.000 C 
ATOM     35  O   UNL     1       7.604   6.375 180.302  0.00  0.00    +0.000 OA
ATOM     36  N   UNL     1       9.319   6.051 178.778  0.00  0.00    +0.000 N 
BRANCH  36  37
ATOM     37  C   UNL     1       9.525   7.259 178.213  0.00  0.00    +0.000 C 
ATOM     38  C   UNL     1       9.704   8.334 177.711  0.00  0.00    +0.000 C 
BRANCH  38  39
ATOM     39  C   UNL     1       9.927   9.706 177.067  0.00  0.00    +0.000 C 
ATOM     40  C   UNL     1      10.095  10.781 176.562  0.00  0.00    +0.000 C 
BRANCH  40  41
ATOM     41  C   UNL     1      10.307  12.154 175.917  0.00  0.00    +0.000 C 
BRANCH  41  42
ATOM     42  N   UNL     1      10.509  13.457 175.305  0.00  0.00    +0.000 NA
ATOM     43  H   UNL     1      10.746  13.354 174.320  0.00  0.00    +0.000 HD
ATOM     44  H   UNL     1       9.647  13.999 175.332  0.00  0.00    +0.000 HD
ENDBRANCH  41  42
ENDBRANCH  40  41
ENDBRANCH  38  39
ENDBRANCH  36  37
BRANCH  36  45
ATOM     45  O   UNL     1      10.402   5.197 178.469  0.00  0.00    +0.000 OA
ATOM     46  H   UNL     1      11.070   5.835 178.159  0.00  0.00    +0.000 HD
ENDBRANCH  36  45
ENDBRANCH  33  34
ENDBRANCH  29  32
ENDBRANCH  27  28
ENDBRANCH  26  27
ENDBRANCH   1  25
TORSDOF 19
ENDMDL
MODEL 9
REMARK VINA RESULT:      -5.3     36.279     39.686
REMARK  Name = Deferoxamine.pdbqt.pdb
REMARK  19 active torsions:
REMARK  status: ('A' for Active; 'I' for Inactive)
REMARK    1  A    between atoms: C_1  and  C_2
REMARK    2  A    between atoms: C_3  and  C_4
REMARK    3  A    between atoms: C_4  and  N_5
REMARK    4  A    between atoms: C_6  and  C_9
REMARK    5  A    between atoms: C_10  and  C_11
REMARK    6  A    between atoms: N_13  and  O_14
REMARK    7  A    between atoms: N_13  and  C_16
REMARK    8  A    between atoms: C_17  and  C_18
REMARK    9  A    between atoms: C_19  and  C_20
REMARK   10  A    between atoms: C_20  and  N_21
REMARK   11  A    between atoms: C_24  and  N_25
REMARK   12  A    between atoms: N_25  and  O_28
REMARK   13  A    between atoms: C_26  and  C_30
REMARK   14  A    between atoms: C_31  and  C_32
REMARK   15  A    between atoms: N_34  and  C_36
REMARK   16  A    between atoms: C_37  and  C_38
REMARK   17  A    between atoms: C_38  and  C_39
REMARK   18  A    between atoms: C_40  and  N_41
REMARK   19  A    between atoms: N_41  and  O_45
REMARK                            x       y       z     vdW  Elec       q    Type
REMARK                         _______ _______ _______ _____ _____    ______ ____
ROOT
ATOM      1  C   UNL     1      12.773 -15.144 178.399  0.00  0.00    +0.000 C 
ATOM      2  C   UNL     1      13.036 -16.211 177.916  0.00  0.00    +0.000 C 
ENDROOT
BRANCH   2   3
ATOM      3  N   UNL     1      13.332 -17.411 177.375  0.00  0.00    +0.000 N 
ATOM      4  C   UNL     1      14.304 -18.338 177.711  0.00  0.00    +0.000 C 
ATOM      5  O   UNL     1      15.221 -18.137 178.500  0.00  0.00    +0.000 OA
BRANCH   4   6
ATOM      6  C   UNL     1      14.251 -19.628 177.054  0.00  0.00    +0.000 C 
ATOM      7  C   UNL     1      14.221 -20.700 176.513  0.00  0.00    +0.000 C 
BRANCH   7   8
ATOM      8  C   UNL     1      14.207 -21.986 175.859  0.00  0.00    +0.000 C 
ATOM      9  O   UNL     1      14.232 -22.999 176.542  0.00  0.00    +0.000 OA
ATOM     10  N   UNL     1      14.165 -21.943 174.483  0.00  0.00    +0.000 N 
ATOM     11  H   UNL     1      14.143 -21.021 174.066  0.00  0.00    +0.000 HD
BRANCH  10  12
ATOM     12  C   UNL     1      14.143 -22.965 173.601  0.00  0.00    +0.000 C 
ATOM     13  C   UNL     1      14.125 -23.877 172.821  0.00  0.00    +0.000 C 
BRANCH  13  14
ATOM     14  C   UNL     1      14.100 -25.047 171.833  0.00  0.00    +0.000 C 
BRANCH  14  15
ATOM     15  C   UNL     1      14.071 -26.212 170.840  0.00  0.00    +0.000 C 
ATOM     16  C   UNL     1      14.050 -27.125 170.060  0.00  0.00    +0.000 C 
BRANCH  16  17
ATOM     17  N   UNL     1      14.034 -28.151 169.187  0.00  0.00    +0.000 N 
ATOM     18  C   UNL     1      14.926 -28.522 168.209  0.00  0.00    +0.000 C 
ATOM     19  O   UNL     1      15.981 -28.013 167.876  0.00  0.00    +0.000 OA
ATOM     20  C   UNL     1      14.631 -29.739 167.368  0.00  0.00    +0.000 C 
BRANCH  17  21
ATOM     21  O   UNL     1      12.856 -28.917 169.385  0.00  0.00    +0.000 OA
ATOM     22  H   UNL     1      12.910 -29.593 168.679  0.00  0.00    +0.000 HD
ENDBRANCH  17  21
ENDBRANCH  16  17
ENDBRANCH  14  15
ENDBRANCH  13  14
ENDBRANCH  10  12
ENDBRANCH   7   8
ENDBRANCH   4   6
BRANCH   3  23
ATOM     23  O   UNL     1      12.230 -17.868 176.617  0.00  0.00    +0.000 OA
ATOM     24  H   UNL     1      12.054 -17.097 176.046  0.00  0.00    +0.000 HD
ENDBRANCH   3  23
ENDBRANCH   2   3
BRANCH   1  25
ATOM     25  C   UNL     1      12.447 -13.786 179.026  0.00  0.00    +0.000 C 
ATOM     26  C   UNL     1      12.205 -12.720 179.522  0.00  0.00    +0.000 C 
BRANCH  26  27
ATOM     27  C   UNL     1      11.909 -11.358 180.157  0.00  0.00    +0.000 C 
BRANCH  27  28
ATOM     28  N   UNL     1      11.635 -10.154 180.706  0.00  0.00    +0.000 N 
ATOM     29  C   UNL     1      10.426  -9.510 180.819  0.00  0.00    +0.000 C 
ATOM     30  O   UNL     1       9.349  -9.934 180.425  0.00  0.00    +0.000 OA
ATOM     31  H   UNL     1      12.441  -9.677 181.089  0.00  0.00    +0.000 HD
BRANCH  29  32
ATOM     32  C   UNL     1      10.473  -8.222 181.468  0.00  0.00    +0.000 C 
ATOM     33  C   UNL     1      10.497  -7.141 181.992  0.00  0.00    +0.000 C 
BRANCH  33  34
ATOM     34  C   UNL     1      10.506  -5.834 182.616  0.00  0.00    +0.000 C 
ATOM     35  O   UNL     1      10.564  -4.853 181.882  0.00  0.00    +0.000 OA
ATOM     36  N   UNL     1      10.486  -5.788 184.000  0.00  0.00    +0.000 N 
BRANCH  36  37
ATOM     37  C   UNL     1      10.345  -4.744 184.843  0.00  0.00    +0.000 C 
ATOM     38  C   UNL     1      10.221  -3.818 185.596  0.00  0.00    +0.000 C 
BRANCH  38  39
ATOM     39  C   UNL     1      10.060  -2.640 186.562  0.00  0.00    +0.000 C 
ATOM     40  C   UNL     1       9.937  -1.714 187.315  0.00  0.00    +0.000 C 
BRANCH  40  41
ATOM     41  C   UNL     1       9.782  -0.530 188.274  0.00  0.00    +0.000 C 
BRANCH  41  42
ATOM     42  N   UNL     1       9.636   0.593 189.186  0.00  0.00    +0.000 NA
ATOM     43  H   UNL     1       9.256   1.401 188.695  0.00  0.00    +0.000 HD
ATOM     44  H   UNL     1       8.967   0.369 189.921  0.00  0.00    +0.000 HD
ENDBRANCH  41  42
ENDBRANCH  40  41
ENDBRANCH  38  39
ENDBRANCH  36  37
BRANCH  36  45
ATOM     45  O   UNL     1      10.208  -6.990 184.689  0.00  0.00    +0.000 OA
ATOM     46  H   UNL     1       9.445  -7.330 184.185  0.00  0.00    +0.000 HD
ENDBRANCH  36  45
ENDBRANCH  33  34
ENDBRANCH  29  32
ENDBRANCH  27  28
ENDBRANCH  26  27
ENDBRANCH   1  25
TORSDOF 19
ENDMDL
