MODEL 1
REMARK VINA RESULT:      -8.4      0.000      0.000
REMARK  Name = 
REMARK  25 active torsions:
REMARK  status: ('A' for Active; 'I' for Inactive)
REMARK    1  A    between atoms: O_2  and  C_17
REMARK    2  A    between atoms: O_2  and  C_36
REMARK    3  A    between atoms: O_3  and  C_20
REMARK    4  A    between atoms: O_3  and  C_37
REMARK    5  A    between atoms: O_4  and  C_21
REMARK    6  A    between atoms: O_5  and  C_22
REMARK    7  A    between atoms: O_7  and  C_30
REMARK    8  A    between atoms: O_8  and  C_31
REMARK    9  A    between atoms: O_8  and  C_39
REMARK   10  A    between atoms: O_12  and  C_41
REMARK   11  A    between atoms: O_13  and  C_51
REMARK   12  A    between atoms: O_13  and  C_55
REMARK   13  A    between atoms: N_15  and  C_44
REMARK   14  A    between atoms: C_18  and  C_29
REMARK   15  A    between atoms: C_24  and  C_33
REMARK   16  A    between atoms: C_24  and  C_34
REMARK   17  A    between atoms: C_32  and  C_35
REMARK   18  A    between atoms: C_36  and  C_38
REMARK   19  A    between atoms: C_37  and  C_40
REMARK   20  A    between atoms: C_39  and  C_41
REMARK   21  A    between atoms: C_41  and  C_44
REMARK   22  A    between atoms: C_44  and  C_48
REMARK   23  A    between atoms: C_55  and  C_56
REMARK   24  A    between atoms: C_55  and  C_57
REMARK   25  A    between atoms: C_55  and  C_58
REMARK                            x       y       z     vdW  Elec       q    Type
REMARK                         _______ _______ _______ _____ _____    ______ ____
ROOT
ATOM      1  O   UNL     1      32.388  -0.080 195.470  0.00  0.00    +0.000 OA
ATOM      2  O   UNL     1      27.091   3.660 197.235  0.00  0.00    +0.000 OA
ATOM      3  C   UNL     1      28.967   0.227 195.224  0.00  0.00    +0.000 C 
ATOM      4  C   UNL     1      30.420   0.192 194.666  0.00  0.00    +0.000 C 
ATOM      5  C   UNL     1      28.622   2.014 195.759  0.00  0.00    +0.000 C 
ATOM      6  C   UNL     1      31.168   0.474 196.033  0.00  0.00    +0.000 C 
ATOM      7  C   UNL     1      27.781  -0.735 194.155  0.00  0.00    +0.000 C 
ATOM      8  C   UNL     1      25.947  -1.187 194.013  0.00  0.00    +0.000 C 
ATOM      9  C   UNL     1      29.702   2.285 196.886  0.00  0.00    +0.000 C 
ATOM     10  C   UNL     1      31.169   1.911 196.512  0.00  0.00    +0.000 C 
ATOM     11  C   UNL     1      24.565  -0.490 194.881  0.00  0.00    +0.000 C 
ATOM     12  C   UNL     1      31.498  -0.965 194.682  0.00  0.00    +0.000 C 
ATOM     13  C   UNL     1      27.005   2.744 196.388  0.00  0.00    +0.000 C 
ATOM     14  C   UNL     1      25.541  -0.834 192.508  0.00  0.00    +0.000 C 
ATOM     15  C   UNL     1      24.523   1.104 194.740  0.00  0.00    +0.000 C 
ATOM     16  C   UNL     1      29.001   3.065 194.632  0.00  0.00    +0.000 C 
ATOM     17  C   UNL     1      25.209   2.277 195.900  0.00  0.00    +0.000 C 
ATOM     18  C   UNL     1      24.845   0.577 192.233  0.00  0.00    +0.000 C 
ATOM     19  C   UNL     1      24.397   1.493 193.427  0.00  0.00    +0.000 C 
ATOM     20  C   UNL     1      23.231  -1.054 194.176  0.00  0.00    +0.000 C 
ATOM     21  C   UNL     1      24.204  -1.028 196.302  0.00  0.00    +0.000 C 
ATOM     22  C   UNL     1      24.083   2.914 193.031  0.00  0.00    +0.000 C 
ENDROOT
BRANCH  17  23
ATOM     23  O   UNL     1      24.326   2.239 197.021  0.00  0.00    +0.000 OA
ATOM     24  H   UNL     1      24.910   2.255 197.802  0.00  0.00    +0.000 HD
ENDBRANCH  17  23
BRANCH   9  25
ATOM     25  O   UNL     1      29.361   1.515 198.040  0.00  0.00    +0.000 OA
ATOM     26  H   UNL     1      29.065   2.142 198.724  0.00  0.00    +0.000 HD
ENDBRANCH   9  25
BRANCH   8  27
ATOM     27  O   UNL     1      25.917  -2.624 194.123  0.00  0.00    +0.000 OA
ATOM     28  H   UNL     1      25.117  -2.960 193.682  0.00  0.00    +0.000 HD
ENDBRANCH   8  27
BRANCH  18  29
ATOM     29  O   UNL     1      25.759   1.367 191.418  0.00  0.00    +0.000 OA
BRANCH  29  31
ATOM     30  O   UNL     1      25.906   2.604 189.534  0.00  0.00    +0.000 OA
ATOM     31  C   UNL     1      25.355   1.711 190.170  0.00  0.00    +0.000 C 
BRANCH  31  32
ATOM     32  C   UNL     1      24.071   1.026 189.687  0.00  0.00    +0.000 C 
BRANCH  32  33
ATOM     33  O   UNL     1      24.232   0.125 188.586  0.00  0.00    +0.000 OA
ATOM     34  H   UNL     1      24.589  -0.701 188.963  0.00  0.00    +0.000 HD
ENDBRANCH  32  33
BRANCH  32  35
ATOM     35  C   UNL     1      23.016   2.121 189.378  0.00  0.00    +0.000 C 
BRANCH  35  36
ATOM     36  C   UNL     1      21.779   2.012 190.262  0.00  0.00    +0.000 A 
ATOM     37  C   UNL     1      21.569   0.849 191.020  0.00  0.00    +0.000 A 
ATOM     38  C   UNL     1      20.851   3.061 190.375  0.00  0.00    +0.000 A 
ATOM     39  C   UNL     1      20.450   0.727 191.847  0.00  0.00    +0.000 A 
ATOM     40  C   UNL     1      19.733   2.936 191.202  0.00  0.00    +0.000 A 
ATOM     41  C   UNL     1      19.531   1.769 191.935  0.00  0.00    +0.000 A 
ENDBRANCH  35  36
BRANCH  35  43
ATOM     42  O   UNL     1      24.068   3.636 187.174  0.00  0.00    +0.000 OA
ATOM     43  N   UNL     1      22.600   2.082 187.982  0.00  0.00    +0.000 N 
ATOM     44  C   UNL     1      23.092   2.918 187.034  0.00  0.00    +0.000 C 
ATOM     45  H   UNL     1      21.718   1.635 187.770  0.00  0.00    +0.000 HD
BRANCH  44  46
ATOM     46  O   UNL     1      22.341   2.797 185.919  0.00  0.00    +0.000 OA
BRANCH  46  47
ATOM     47  C   UNL     1      21.325   3.782 185.599  0.00  0.00    +0.000 C 
ATOM     48  C   UNL     1      21.630   5.133 186.255  0.00  0.00    +0.000 C 
ATOM     49  C   UNL     1      21.409   3.946 184.074  0.00  0.00    +0.000 C 
ATOM     50  C   UNL     1      19.925   3.273 185.961  0.00  0.00    +0.000 C 
ENDBRANCH  46  47
ENDBRANCH  44  46
ENDBRANCH  35  43
ENDBRANCH  32  35
ENDBRANCH  31  32
ENDBRANCH  29  31
ENDBRANCH  18  29
BRANCH   7  51
ATOM     51  O   UNL     1      27.522   0.412 193.563  0.00  0.00    +0.000 OA
BRANCH  51  53
ATOM     52  O   UNL     1      28.480  -1.147 192.737  0.00  0.00    +0.000 OA
ATOM     53  C   UNL     1      28.181   0.002 192.429  0.00  0.00    +0.000 C 
BRANCH  53  54
ATOM     54  C   UNL     1      28.688   1.172 191.000  0.00  0.00    +0.000 A 
ATOM     55  C   UNL     1      28.885   2.617 191.117  0.00  0.00    +0.000 A 
ATOM     56  C   UNL     1      29.074   0.808 189.673  0.00  0.00    +0.000 A 
ATOM     57  C   UNL     1      29.362   3.504 190.118  0.00  0.00    +0.000 A 
ATOM     58  C   UNL     1      29.555   1.683 188.656  0.00  0.00    +0.000 A 
ATOM     59  C   UNL     1      29.700   3.031 188.876  0.00  0.00    +0.000 A 
ENDBRANCH  53  54
ENDBRANCH  51  53
ENDBRANCH   7  51
BRANCH   4  60
ATOM     60  O   UNL     1      30.645   1.194 193.647  0.00  0.00    +0.000 OA
BRANCH  60  62
ATOM     61  O   UNL     1      31.807   0.274 191.971  0.00  0.00    +0.000 OA
ATOM     62  C   UNL     1      31.691   1.185 192.788  0.00  0.00    +0.000 C 
ATOM     63  C   UNL     1      32.756   2.226 192.930  0.00  0.00    +0.000 C 
ENDBRANCH  60  62
ENDBRANCH   4  60
TORSDOF 17
ENDMDL
MODEL 2
REMARK VINA RESULT:      -8.4      1.857      5.531
REMARK  Name = 
REMARK  25 active torsions:
REMARK  status: ('A' for Active; 'I' for Inactive)
REMARK    1  A    between atoms: O_2  and  C_17
REMARK    2  A    between atoms: O_2  and  C_36
REMARK    3  A    between atoms: O_3  and  C_20
REMARK    4  A    between atoms: O_3  and  C_37
REMARK    5  A    between atoms: O_4  and  C_21
REMARK    6  A    between atoms: O_5  and  C_22
REMARK    7  A    between atoms: O_7  and  C_30
REMARK    8  A    between atoms: O_8  and  C_31
REMARK    9  A    between atoms: O_8  and  C_39
REMARK   10  A    between atoms: O_12  and  C_41
REMARK   11  A    between atoms: O_13  and  C_51
REMARK   12  A    between atoms: O_13  and  C_55
REMARK   13  A    between atoms: N_15  and  C_44
REMARK   14  A    between atoms: C_18  and  C_29
REMARK   15  A    between atoms: C_24  and  C_33
REMARK   16  A    between atoms: C_24  and  C_34
REMARK   17  A    between atoms: C_32  and  C_35
REMARK   18  A    between atoms: C_36  and  C_38
REMARK   19  A    between atoms: C_37  and  C_40
REMARK   20  A    between atoms: C_39  and  C_41
REMARK   21  A    between atoms: C_41  and  C_44
REMARK   22  A    between atoms: C_44  and  C_48
REMARK   23  A    between atoms: C_55  and  C_56
REMARK   24  A    between atoms: C_55  and  C_57
REMARK   25  A    between atoms: C_55  and  C_58
REMARK                            x       y       z     vdW  Elec       q    Type
REMARK                         _______ _______ _______ _____ _____    ______ ____
ROOT
ATOM      1  O   UNL     1      25.070  -1.057 199.150  0.00  0.00    +0.000 OA
ATOM      2  O   UNL     1      29.144  -2.973 194.161  0.00  0.00    +0.000 OA
ATOM      3  C   UNL     1      26.897   0.041 196.445  0.00  0.00    +0.000 C 
ATOM      4  C   UNL     1      25.587  -0.224 197.244  0.00  0.00    +0.000 C 
ATOM      5  C   UNL     1      27.284  -1.543 195.473  0.00  0.00    +0.000 C 
ATOM      6  C   UNL     1      26.173  -1.309 198.237  0.00  0.00    +0.000 C 
ATOM      7  C   UNL     1      26.902   1.723 195.643  0.00  0.00    +0.000 C 
ATOM      8  C   UNL     1      27.958   2.827 194.522  0.00  0.00    +0.000 C 
ATOM      9  C   UNL     1      27.482  -2.638 196.601  0.00  0.00    +0.000 C 
ATOM     10  C   UNL     1      26.354  -2.704 197.676  0.00  0.00    +0.000 C 
ATOM     11  C   UNL     1      29.380   2.385 193.555  0.00  0.00    +0.000 C 
ATOM     12  C   UNL     1      25.107   0.336 198.642  0.00  0.00    +0.000 C 
ATOM     13  C   UNL     1      28.654  -1.824 194.214  0.00  0.00    +0.000 C 
ATOM     14  C   UNL     1      26.973   3.318 193.364  0.00  0.00    +0.000 C 
ATOM     15  C   UNL     1      29.078   1.137 192.599  0.00  0.00    +0.000 C 
ATOM     16  C   UNL     1      26.027  -2.076 194.666  0.00  0.00    +0.000 C 
ATOM     17  C   UNL     1      29.416  -0.575 192.973  0.00  0.00    +0.000 C 
ATOM     18  C   UNL     1      26.984   2.518 191.983  0.00  0.00    +0.000 C 
ATOM     19  C   UNL     1      28.069   1.416 191.707  0.00  0.00    +0.000 C 
ATOM     20  C   UNL     1      29.706   3.638 192.597  0.00  0.00    +0.000 C 
ATOM     21  C   UNL     1      30.787   2.363 194.231  0.00  0.00    +0.000 C 
ATOM     22  C   UNL     1      27.754   0.519 190.535  0.00  0.00    +0.000 C 
ENDROOT
BRANCH  17  23
ATOM     23  O   UNL     1      30.836  -0.696 192.872  0.00  0.00    +0.000 OA
ATOM     24  H   UNL     1      31.023  -0.664 191.915  0.00  0.00    +0.000 HD
ENDBRANCH  17  23
BRANCH   9  25
ATOM     25  O   UNL     1      28.699  -2.362 197.297  0.00  0.00    +0.000 OA
ATOM     26  H   UNL     1      28.630  -1.454 197.641  0.00  0.00    +0.000 HD
ENDBRANCH   9  25
BRANCH   8  27
ATOM     27  O   UNL     1      28.257   3.983 195.329  0.00  0.00    +0.000 OA
ATOM     28  H   UNL     1      28.195   3.740 196.269  0.00  0.00    +0.000 HD
ENDBRANCH   8  27
BRANCH  18  29
ATOM     29  O   UNL     1      25.686   1.874 191.836  0.00  0.00    +0.000 OA
BRANCH  29  31
ATOM     30  O   UNL     1      24.476   3.756 191.527  0.00  0.00    +0.000 OA
ATOM     31  C   UNL     1      24.692   2.583 191.243  0.00  0.00    +0.000 C 
BRANCH  31  32
ATOM     32  C   UNL     1      23.769   1.771 190.328  0.00  0.00    +0.000 C 
BRANCH  32  33
ATOM     33  O   UNL     1      24.428   0.991 189.323  0.00  0.00    +0.000 OA
ATOM     34  H   UNL     1      23.735   0.727 188.690  0.00  0.00    +0.000 HD
ENDBRANCH  32  33
BRANCH  32  35
ATOM     35  C   UNL     1      22.724   2.735 189.705  0.00  0.00    +0.000 C 
BRANCH  35  36
ATOM     36  C   UNL     1      21.299   2.422 190.148  0.00  0.00    +0.000 A 
ATOM     37  C   UNL     1      20.660   3.261 191.076  0.00  0.00    +0.000 A 
ATOM     38  C   UNL     1      20.581   1.332 189.627  0.00  0.00    +0.000 A 
ATOM     39  C   UNL     1      19.352   3.004 191.490  0.00  0.00    +0.000 A 
ATOM     40  C   UNL     1      19.273   1.076 190.043  0.00  0.00    +0.000 A 
ATOM     41  C   UNL     1      18.660   1.910 190.976  0.00  0.00    +0.000 A 
ENDBRANCH  35  36
BRANCH  35  43
ATOM     42  O   UNL     1      24.293   4.402 187.968  0.00  0.00    +0.000 OA
ATOM     43  N   UNL     1      22.778   2.713 188.250  0.00  0.00    +0.000 N 
ATOM     44  C   UNL     1      23.475   3.617 187.517  0.00  0.00    +0.000 C 
ATOM     45  H   UNL     1      22.049   2.209 187.763  0.00  0.00    +0.000 HD
BRANCH  44  46
ATOM     46  O   UNL     1      23.131   3.478 186.219  0.00  0.00    +0.000 OA
BRANCH  46  47
ATOM     47  C   UNL     1      22.108   4.322 185.629  0.00  0.00    +0.000 C 
ATOM     48  C   UNL     1      22.633   5.052 184.388  0.00  0.00    +0.000 C 
ATOM     49  C   UNL     1      21.002   3.348 185.195  0.00  0.00    +0.000 C 
ATOM     50  C   UNL     1      21.527   5.294 186.662  0.00  0.00    +0.000 C 
ENDBRANCH  46  47
ENDBRANCH  44  46
ENDBRANCH  35  43
ENDBRANCH  32  35
ENDBRANCH  31  32
ENDBRANCH  29  31
ENDBRANCH  18  29
BRANCH   7  51
ATOM     51  O   UNL     1      26.438   1.116 194.571  0.00  0.00    +0.000 OA
BRANCH  51  53
ATOM     52  O   UNL     1      25.429   2.452 195.680  0.00  0.00    +0.000 OA
ATOM     53  C   UNL     1      25.191   1.654 194.779  0.00  0.00    +0.000 C 
BRANCH  53  54
ATOM     54  C   UNL     1      23.581   0.965 194.003  0.00  0.00    +0.000 A 
ATOM     55  C   UNL     1      23.476  -0.274 193.230  0.00  0.00    +0.000 A 
ATOM     56  C   UNL     1      22.253   1.464 194.169  0.00  0.00    +0.000 A 
ATOM     57  C   UNL     1      22.294  -0.877 192.730  0.00  0.00    +0.000 A 
ATOM     58  C   UNL     1      21.053   0.873 193.674  0.00  0.00    +0.000 A 
ATOM     59  C   UNL     1      21.072  -0.297 192.955  0.00  0.00    +0.000 A 
ENDBRANCH  53  54
ENDBRANCH  51  53
ENDBRANCH   7  51
BRANCH   4  60
ATOM     60  O   UNL     1      24.515  -0.707 196.401  0.00  0.00    +0.000 OA
BRANCH  60  62
ATOM     61  O   UNL     1      22.745   0.314 197.313  0.00  0.00    +0.000 OA
ATOM     62  C   UNL     1      23.205  -0.672 196.742  0.00  0.00    +0.000 C 
ATOM     63  C   UNL     1      22.366  -1.890 196.520  0.00  0.00    +0.000 C 
ENDBRANCH  60  62
ENDBRANCH   4  60
TORSDOF 17
ENDMDL
MODEL 3
REMARK VINA RESULT:      -7.6      2.691      6.577
REMARK  Name = 
REMARK  25 active torsions:
REMARK  status: ('A' for Active; 'I' for Inactive)
REMARK    1  A    between atoms: O_2  and  C_17
REMARK    2  A    between atoms: O_2  and  C_36
REMARK    3  A    between atoms: O_3  and  C_20
REMARK    4  A    between atoms: O_3  and  C_37
REMARK    5  A    between atoms: O_4  and  C_21
REMARK    6  A    between atoms: O_5  and  C_22
REMARK    7  A    between atoms: O_7  and  C_30
REMARK    8  A    between atoms: O_8  and  C_31
REMARK    9  A    between atoms: O_8  and  C_39
REMARK   10  A    between atoms: O_12  and  C_41
REMARK   11  A    between atoms: O_13  and  C_51
REMARK   12  A    between atoms: O_13  and  C_55
REMARK   13  A    between atoms: N_15  and  C_44
REMARK   14  A    between atoms: C_18  and  C_29
REMARK   15  A    between atoms: C_24  and  C_33
REMARK   16  A    between atoms: C_24  and  C_34
REMARK   17  A    between atoms: C_32  and  C_35
REMARK   18  A    between atoms: C_36  and  C_38
REMARK   19  A    between atoms: C_37  and  C_40
REMARK   20  A    between atoms: C_39  and  C_41
REMARK   21  A    between atoms: C_41  and  C_44
REMARK   22  A    between atoms: C_44  and  C_48
REMARK   23  A    between atoms: C_55  and  C_56
REMARK   24  A    between atoms: C_55  and  C_57
REMARK   25  A    between atoms: C_55  and  C_58
REMARK                            x       y       z     vdW  Elec       q    Type
REMARK                         _______ _______ _______ _____ _____    ______ ____
ROOT
ATOM      1  O   UNL     1      24.665  -0.385 201.263  0.00  0.00    +0.000 OA
ATOM      2  O   UNL     1      27.738  -3.749 196.323  0.00  0.00    +0.000 OA
ATOM      3  C   UNL     1      25.864  -0.159 198.043  0.00  0.00    +0.000 C 
ATOM      4  C   UNL     1      24.753  -0.156 199.134  0.00  0.00    +0.000 C 
ATOM      5  C   UNL     1      26.117  -1.964 197.515  0.00  0.00    +0.000 C 
ATOM      6  C   UNL     1      25.573  -0.913 200.258  0.00  0.00    +0.000 C 
ATOM      7  C   UNL     1      25.634   1.214 196.803  0.00  0.00    +0.000 C 
ATOM      8  C   UNL     1      26.395   1.922 195.220  0.00  0.00    +0.000 C 
ATOM      9  C   UNL     1      26.585  -2.685 198.847  0.00  0.00    +0.000 C 
ATOM     10  C   UNL     1      25.699  -2.413 200.101  0.00  0.00    +0.000 C 
ATOM     11  C   UNL     1      27.612   1.192 194.153  0.00  0.00    +0.000 C 
ATOM     12  C   UNL     1      24.539   0.797 200.377  0.00  0.00    +0.000 C 
ATOM     13  C   UNL     1      27.218  -2.626 196.139  0.00  0.00    +0.000 C 
ATOM     14  C   UNL     1      25.177   2.070 194.196  0.00  0.00    +0.000 C 
ATOM     15  C   UNL     1      27.180  -0.275 193.683  0.00  0.00    +0.000 C 
ATOM     16  C   UNL     1      24.748  -2.690 197.171  0.00  0.00    +0.000 C 
ATOM     17  C   UNL     1      27.661  -1.809 194.461  0.00  0.00    +0.000 C 
ATOM     18  C   UNL     1      24.947   0.900 193.134  0.00  0.00    +0.000 C 
ATOM     19  C   UNL     1      26.002  -0.253 192.974  0.00  0.00    +0.000 C 
ATOM     20  C   UNL     1      27.685   2.104 192.827  0.00  0.00    +0.000 C 
ATOM     21  C   UNL     1      29.126   1.345 194.504  0.00  0.00    +0.000 C 
ATOM     22  C   UNL     1      25.498  -1.448 192.203  0.00  0.00    +0.000 C 
ENDROOT
BRANCH  17  23
ATOM     23  O   UNL     1      29.036  -1.978 194.111  0.00  0.00    +0.000 OA
ATOM     24  H   UNL     1      29.515  -1.956 194.961  0.00  0.00    +0.000 HD
ENDBRANCH  17  23
BRANCH   9  25
ATOM     25  O   UNL     1      27.903  -2.238 199.168  0.00  0.00    +0.000 OA
ATOM     26  H   UNL     1      27.874  -1.265 199.200  0.00  0.00    +0.000 HD
ENDBRANCH   9  25
BRANCH   8  27
ATOM     27  O   UNL     1      26.799   3.259 195.577  0.00  0.00    +0.000 OA
ATOM     28  H   UNL     1      26.477   3.460 196.473  0.00  0.00    +0.000 HD
ENDBRANCH   8  27
BRANCH  18  29
ATOM     29  O   UNL     1      23.675   0.264 193.449  0.00  0.00    +0.000 OA
BRANCH  29  31
ATOM     30  O   UNL     1      22.099  -0.689 192.141  0.00  0.00    +0.000 OA
ATOM     31  C   UNL     1      22.693   0.317 192.514  0.00  0.00    +0.000 C 
BRANCH  31  32
ATOM     32  C   UNL     1      22.500   1.684 191.848  0.00  0.00    +0.000 C 
BRANCH  32  33
ATOM     33  O   UNL     1      21.235   2.312 192.086  0.00  0.00    +0.000 OA
ATOM     34  H   UNL     1      20.575   1.779 191.605  0.00  0.00    +0.000 HD
ENDBRANCH  32  33
BRANCH  32  35
ATOM     35  C   UNL     1      22.785   1.535 190.330  0.00  0.00    +0.000 C 
BRANCH  35  36
ATOM     36  C   UNL     1      24.211   1.928 189.958  0.00  0.00    +0.000 A 
ATOM     37  C   UNL     1      25.069   0.970 189.395  0.00  0.00    +0.000 A 
ATOM     38  C   UNL     1      24.688   3.238 190.127  0.00  0.00    +0.000 A 
ATOM     39  C   UNL     1      26.376   1.305 189.035  0.00  0.00    +0.000 A 
ATOM     40  C   UNL     1      25.996   3.571 189.767  0.00  0.00    +0.000 A 
ATOM     41  C   UNL     1      26.840   2.604 189.224  0.00  0.00    +0.000 A 
ENDBRANCH  35  36
BRANCH  35  43
ATOM     42  O   UNL     1      21.748   0.946 187.715  0.00  0.00    +0.000 OA
ATOM     43  N   UNL     1      21.858   2.327 189.533  0.00  0.00    +0.000 N 
ATOM     44  C   UNL     1      21.511   2.011 188.260  0.00  0.00    +0.000 C 
ATOM     45  H   UNL     1      21.702   3.286 189.814  0.00  0.00    +0.000 HD
BRANCH  44  46
ATOM     46  O   UNL     1      20.844   3.054 187.723  0.00  0.00    +0.000 OA
BRANCH  46  47
ATOM     47  C   UNL     1      21.525   4.008 186.867  0.00  0.00    +0.000 C 
ATOM     48  C   UNL     1      23.018   3.686 186.748  0.00  0.00    +0.000 C 
ATOM     49  C   UNL     1      20.873   3.829 185.488  0.00  0.00    +0.000 C 
ATOM     50  C   UNL     1      21.286   5.446 187.340  0.00  0.00    +0.000 C 
ENDBRANCH  46  47
ENDBRANCH  44  46
ENDBRANCH  35  43
ENDBRANCH  32  35
ENDBRANCH  31  32
ENDBRANCH  29  31
ENDBRANCH  18  29
BRANCH   7  51
ATOM     51  O   UNL     1      24.992   0.328 196.072  0.00  0.00    +0.000 OA
BRANCH  51  53
ATOM     52  O   UNL     1      24.169   1.902 197.008  0.00  0.00    +0.000 OA
ATOM     53  C   UNL     1      23.800   0.972 196.298  0.00  0.00    +0.000 C 
BRANCH  53  54
ATOM     54  C   UNL     1      22.086   0.259 195.823  0.00  0.00    +0.000 A 
ATOM     55  C   UNL     1      21.746  -1.164 195.771  0.00  0.00    +0.000 A 
ATOM     56  C   UNL     1      20.878   0.983 195.588  0.00  0.00    +0.000 A 
ATOM     57  C   UNL     1      20.470  -1.734 195.531  0.00  0.00    +0.000 A 
ATOM     58  C   UNL     1      19.587   0.429 195.345  0.00  0.00    +0.000 A 
ATOM     59  C   UNL     1      19.381  -0.929 195.317  0.00  0.00    +0.000 A 
ENDBRANCH  53  54
ENDBRANCH  51  53
ENDBRANCH   7  51
BRANCH   4  60
ATOM     60  O   UNL     1      23.556  -0.846 198.705  0.00  0.00    +0.000 OA
BRANCH  60  62
ATOM     61  O   UNL     1      21.996  -1.780 200.008  0.00  0.00    +0.000 OA
ATOM     62  C   UNL     1      22.376  -0.804 199.366  0.00  0.00    +0.000 C 
ATOM     63  C   UNL     1      21.497   0.396 199.205  0.00  0.00    +0.000 C 
ENDBRANCH  60  62
ENDBRANCH   4  60
TORSDOF 17
ENDMDL
MODEL 4
REMARK VINA RESULT:      -6.7     25.768     29.763
REMARK  Name = 
REMARK  25 active torsions:
REMARK  status: ('A' for Active; 'I' for Inactive)
REMARK    1  A    between atoms: O_2  and  C_17
REMARK    2  A    between atoms: O_2  and  C_36
REMARK    3  A    between atoms: O_3  and  C_20
REMARK    4  A    between atoms: O_3  and  C_37
REMARK    5  A    between atoms: O_4  and  C_21
REMARK    6  A    between atoms: O_5  and  C_22
REMARK    7  A    between atoms: O_7  and  C_30
REMARK    8  A    between atoms: O_8  and  C_31
REMARK    9  A    between atoms: O_8  and  C_39
REMARK   10  A    between atoms: O_12  and  C_41
REMARK   11  A    between atoms: O_13  and  C_51
REMARK   12  A    between atoms: O_13  and  C_55
REMARK   13  A    between atoms: N_15  and  C_44
REMARK   14  A    between atoms: C_18  and  C_29
REMARK   15  A    between atoms: C_24  and  C_33
REMARK   16  A    between atoms: C_24  and  C_34
REMARK   17  A    between atoms: C_32  and  C_35
REMARK   18  A    between atoms: C_36  and  C_38
REMARK   19  A    between atoms: C_37  and  C_40
REMARK   20  A    between atoms: C_39  and  C_41
REMARK   21  A    between atoms: C_41  and  C_44
REMARK   22  A    between atoms: C_44  and  C_48
REMARK   23  A    between atoms: C_55  and  C_56
REMARK   24  A    between atoms: C_55  and  C_57
REMARK   25  A    between atoms: C_55  and  C_58
REMARK                            x       y       z     vdW  Elec       q    Type
REMARK                         _______ _______ _______ _____ _____    ______ ____
ROOT
ATOM      1  O   UNL     1       7.958 -24.448 177.935  0.00  0.00    +0.000 OA
ATOM      2  O   UNL     1      14.153 -23.981 175.372  0.00  0.00    +0.000 OA
ATOM      3  C   UNL     1      11.234 -23.663 178.648  0.00  0.00    +0.000 C 
ATOM      4  C   UNL     1       9.718 -23.352 178.479  0.00  0.00    +0.000 C 
ATOM      5  C   UNL     1      12.039 -23.440 176.944  0.00  0.00    +0.000 C 
ATOM      6  C   UNL     1       9.357 -24.599 177.571  0.00  0.00    +0.000 C 
ATOM      7  C   UNL     1      11.942 -22.889 180.189  0.00  0.00    +0.000 C 
ATOM      8  C   UNL     1      13.573 -22.690 181.132  0.00  0.00    +0.000 C 
ATOM      9  C   UNL     1      11.306 -24.514 176.038  0.00  0.00    +0.000 C 
ATOM     10  C   UNL     1       9.748 -24.500 176.112  0.00  0.00    +0.000 C 
ATOM     11  C   UNL     1      15.222 -23.047 180.580  0.00  0.00    +0.000 C 
ATOM     12  C   UNL     1       8.460 -23.940 179.235  0.00  0.00    +0.000 C 
ATOM     13  C   UNL     1      13.867 -23.535 176.505  0.00  0.00    +0.000 C 
ATOM     14  C   UNL     1      13.706 -21.124 181.419  0.00  0.00    +0.000 C 
ATOM     15  C   UNL     1      15.551 -22.315 179.195  0.00  0.00    +0.000 C 
ATOM     16  C   UNL     1      11.644 -22.061 176.266  0.00  0.00    +0.000 C 
ATOM     17  C   UNL     1      15.383 -23.029 177.566  0.00  0.00    +0.000 C 
ATOM     18  C   UNL     1      14.595 -20.252 180.419  0.00  0.00    +0.000 C 
ATOM     19  C   UNL     1      15.466 -20.948 179.312  0.00  0.00    +0.000 C 
ATOM     20  C   UNL     1      16.230 -22.438 181.679  0.00  0.00    +0.000 C 
ATOM     21  C   UNL     1      15.767 -24.506 180.691  0.00  0.00    +0.000 C 
ATOM     22  C   UNL     1      15.965 -20.010 178.240  0.00  0.00    +0.000 C 
ENDROOT
BRANCH  17  23
ATOM     23  O   UNL     1      16.462 -23.958 177.463  0.00  0.00    +0.000 OA
ATOM     24  H   UNL     1      17.195 -23.449 177.069  0.00  0.00    +0.000 HD
ENDBRANCH  17  23
BRANCH   9  25
ATOM     25  O   UNL     1      11.727 -25.817 176.443  0.00  0.00    +0.000 OA
ATOM     26  H   UNL     1      10.980 -26.421 176.280  0.00  0.00    +0.000 HD
ENDBRANCH   9  25
BRANCH   8  27
ATOM     27  O   UNL     1      13.337 -23.325 182.404  0.00  0.00    +0.000 OA
ATOM     28  H   UNL     1      12.752 -24.092 182.273  0.00  0.00    +0.000 HD
ENDBRANCH   8  27
BRANCH  18  29
ATOM     29  O   UNL     1      13.704 -19.327 179.732  0.00  0.00    +0.000 OA
BRANCH  29  31
ATOM     30  O   UNL     1      13.143 -17.642 181.127  0.00  0.00    +0.000 OA
ATOM     31  C   UNL     1      13.724 -18.026 180.118  0.00  0.00    +0.000 C 
BRANCH  31  32
ATOM     32  C   UNL     1      14.378 -17.061 179.123  0.00  0.00    +0.000 C 
BRANCH  32  33
ATOM     33  O   UNL     1      15.365 -16.183 179.675  0.00  0.00    +0.000 OA
ATOM     34  H   UNL     1      14.907 -15.660 180.361  0.00  0.00    +0.000 HD
ENDBRANCH  32  33
BRANCH  32  35
ATOM     35  C   UNL     1      13.257 -16.272 178.395  0.00  0.00    +0.000 C 
BRANCH  35  36
ATOM     36  C   UNL     1      13.074 -16.713 176.947  0.00  0.00    +0.000 A 
ATOM     37  C   UNL     1      13.529 -17.979 176.544  0.00  0.00    +0.000 A 
ATOM     38  C   UNL     1      12.425 -15.903 175.999  0.00  0.00    +0.000 A 
ATOM     39  C   UNL     1      13.364 -18.412 175.227  0.00  0.00    +0.000 A 
ATOM     40  C   UNL     1      12.263 -16.338 174.683  0.00  0.00    +0.000 A 
ATOM     41  C   UNL     1      12.735 -17.590 174.296  0.00  0.00    +0.000 A 
ENDBRANCH  35  36
BRANCH  35  43
ATOM     42  O   UNL     1      12.777 -14.428 180.545  0.00  0.00    +0.000 OA
ATOM     43  N   UNL     1      13.511 -14.838 178.420  0.00  0.00    +0.000 N 
ATOM     44  C   UNL     1      13.149 -14.036 179.452  0.00  0.00    +0.000 C 
ATOM     45  H   UNL     1      13.685 -14.379 177.536  0.00  0.00    +0.000 HD
BRANCH  44  46
ATOM     46  O   UNL     1      13.298 -12.749 179.071  0.00  0.00    +0.000 OA
BRANCH  46  47
ATOM     47  C   UNL     1      12.175 -11.831 179.105  0.00  0.00    +0.000 C 
ATOM     48  C   UNL     1      12.044 -11.158 180.475  0.00  0.00    +0.000 C 
ATOM     49  C   UNL     1      12.519 -10.757 178.061  0.00  0.00    +0.000 C 
ATOM     50  C   UNL     1      10.877 -12.528 178.682  0.00  0.00    +0.000 C 
ENDBRANCH  46  47
ENDBRANCH  44  46
ENDBRANCH  35  43
ENDBRANCH  32  35
ENDBRANCH  31  32
ENDBRANCH  29  31
ENDBRANCH  18  29
BRANCH   7  51
ATOM     51  O   UNL     1      12.292 -21.882 179.416  0.00  0.00    +0.000 OA
BRANCH  51  53
ATOM     52  O   UNL     1      10.972 -21.784 180.925  0.00  0.00    +0.000 OA
ATOM     53  C   UNL     1      11.336 -21.080 179.989  0.00  0.00    +0.000 C 
BRANCH  53  54
ATOM     54  C   UNL     1      10.660 -19.475 179.190  0.00  0.00    +0.000 A 
ATOM     55  C   UNL     1      10.515 -19.241 177.753  0.00  0.00    +0.000 A 
ATOM     56  C   UNL     1      10.084 -18.349 179.854  0.00  0.00    +0.000 A 
ATOM     57  C   UNL     1       9.924 -18.117 177.120  0.00  0.00    +0.000 A 
ATOM     58  C   UNL     1       9.486 -17.212 179.237  0.00  0.00    +0.000 A 
ATOM     59  C   UNL     1       9.404 -17.094 177.871  0.00  0.00    +0.000 A 
ENDBRANCH  53  54
ENDBRANCH  51  53
ENDBRANCH   7  51
BRANCH   4  60
ATOM     60  O   UNL     1       9.484 -22.070 177.850  0.00  0.00    +0.000 OA
BRANCH  60  62
ATOM     61  O   UNL     1       7.849 -21.601 176.398  0.00  0.00    +0.000 OA
ATOM     62  C   UNL     1       8.257 -21.580 177.557  0.00  0.00    +0.000 C 
ATOM     63  C   UNL     1       7.465 -20.913 178.636  0.00  0.00    +0.000 C 
ENDBRANCH  60  62
ENDBRANCH   4  60
TORSDOF 17
ENDMDL
MODEL 5
REMARK VINA RESULT:      -6.5     22.599     27.063
REMARK  Name = 
REMARK  25 active torsions:
REMARK  status: ('A' for Active; 'I' for Inactive)
REMARK    1  A    between atoms: O_2  and  C_17
REMARK    2  A    between atoms: O_2  and  C_36
REMARK    3  A    between atoms: O_3  and  C_20
REMARK    4  A    between atoms: O_3  and  C_37
REMARK    5  A    between atoms: O_4  and  C_21
REMARK    6  A    between atoms: O_5  and  C_22
REMARK    7  A    between atoms: O_7  and  C_30
REMARK    8  A    between atoms: O_8  and  C_31
REMARK    9  A    between atoms: O_8  and  C_39
REMARK   10  A    between atoms: O_12  and  C_41
REMARK   11  A    between atoms: O_13  and  C_51
REMARK   12  A    between atoms: O_13  and  C_55
REMARK   13  A    between atoms: N_15  and  C_44
REMARK   14  A    between atoms: C_18  and  C_29
REMARK   15  A    between atoms: C_24  and  C_33
REMARK   16  A    between atoms: C_24  and  C_34
REMARK   17  A    between atoms: C_32  and  C_35
REMARK   18  A    between atoms: C_36  and  C_38
REMARK   19  A    between atoms: C_37  and  C_40
REMARK   20  A    between atoms: C_39  and  C_41
REMARK   21  A    between atoms: C_41  and  C_44
REMARK   22  A    between atoms: C_44  and  C_48
REMARK   23  A    between atoms: C_55  and  C_56
REMARK   24  A    between atoms: C_55  and  C_57
REMARK   25  A    between atoms: C_55  and  C_58
REMARK                            x       y       z     vdW  Elec       q    Type
REMARK                         _______ _______ _______ _____ _____    ______ ____
ROOT
ATOM      1  O   UNL     1       6.548 -10.993 181.990  0.00  0.00    +0.000 OA
ATOM      2  O   UNL     1      13.001 -10.067 180.359  0.00  0.00    +0.000 OA
ATOM      3  C   UNL     1       9.164 -12.204 180.107  0.00  0.00    +0.000 C 
ATOM      4  C   UNL     1       8.093 -12.271 181.236  0.00  0.00    +0.000 C 
ATOM      5  C   UNL     1      10.696 -11.363 180.847  0.00  0.00    +0.000 C 
ATOM      6  C   UNL     1       7.823 -10.715 181.350  0.00  0.00    +0.000 C 
ATOM      7  C   UNL     1       9.274 -13.798 179.147  0.00  0.00    +0.000 C 
ATOM      8  C   UNL     1      10.240 -14.614 177.737  0.00  0.00    +0.000 C 
ATOM      9  C   UNL     1      10.173  -9.926 181.262  0.00  0.00    +0.000 C 
ATOM     10  C   UNL     1       8.859  -9.908 182.102  0.00  0.00    +0.000 C 
ATOM     11  C   UNL     1      11.743 -14.071 176.965  0.00  0.00    +0.000 C 
ATOM     12  C   UNL     1       6.515 -12.218 181.156  0.00  0.00    +0.000 C 
ATOM     13  C   UNL     1      12.378 -11.104 180.043  0.00  0.00    +0.000 C 
ATOM     14  C   UNL     1      10.715 -16.027 178.313  0.00  0.00    +0.000 C 
ATOM     15  C   UNL     1      12.896 -13.804 178.043  0.00  0.00    +0.000 C 
ATOM     16  C   UNL     1      11.128 -12.007 182.232  0.00  0.00    +0.000 C 
ATOM     17  C   UNL     1      13.291 -12.229 178.786  0.00  0.00    +0.000 C 
ATOM     18  C   UNL     1      12.194 -16.133 178.907  0.00  0.00    +0.000 C 
ATOM     19  C   UNL     1      13.208 -14.945 178.744  0.00  0.00    +0.000 C 
ATOM     20  C   UNL     1      12.253 -15.276 176.026  0.00  0.00    +0.000 C 
ATOM     21  C   UNL     1      11.674 -13.021 175.811  0.00  0.00    +0.000 C 
ATOM     22  C   UNL     1      14.420 -15.041 179.637  0.00  0.00    +0.000 C 
ENDROOT
BRANCH  17  23
ATOM     23  O   UNL     1      13.933 -11.487 177.748  0.00  0.00    +0.000 OA
ATOM     24  H   UNL     1      14.402 -10.765 178.207  0.00  0.00    +0.000 HD
ENDBRANCH  17  23
BRANCH   9  25
ATOM     25  O   UNL     1       9.914  -9.174 180.076  0.00  0.00    +0.000 OA
ATOM     26  H   UNL     1      10.753  -8.750 179.818  0.00  0.00    +0.000 HD
ENDBRANCH   9  25
BRANCH   8  27
ATOM     27  O   UNL     1       9.247 -14.892 176.730  0.00  0.00    +0.000 OA
ATOM     28  H   UNL     1       8.897 -15.790 176.866  0.00  0.00    +0.000 HD
ENDBRANCH   8  27
BRANCH  18  29
ATOM     29  O   UNL     1      12.077 -16.392 180.336  0.00  0.00    +0.000 OA
BRANCH  29  31
ATOM     30  O   UNL     1      13.027 -17.668 181.939  0.00  0.00    +0.000 OA
ATOM     31  C   UNL     1      12.565 -17.567 180.807  0.00  0.00    +0.000 C 
BRANCH  31  32
ATOM     32  C   UNL     1      12.647 -18.699 179.777  0.00  0.00    +0.000 C 
BRANCH  32  33
ATOM     33  O   UNL     1      11.471 -19.507 179.655  0.00  0.00    +0.000 OA
ATOM     34  H   UNL     1      11.097 -19.577 180.554  0.00  0.00    +0.000 HD
ENDBRANCH  32  33
BRANCH  32  35
ATOM     35  C   UNL     1      13.899 -19.560 180.093  0.00  0.00    +0.000 C 
BRANCH  35  36
ATOM     36  C   UNL     1      14.863 -19.651 178.915  0.00  0.00    +0.000 A 
ATOM     37  C   UNL     1      14.431 -19.266 177.635  0.00  0.00    +0.000 A 
ATOM     38  C   UNL     1      16.193 -20.075 179.073  0.00  0.00    +0.000 A 
ATOM     39  C   UNL     1      15.296 -19.328 176.540  0.00  0.00    +0.000 A 
ATOM     40  C   UNL     1      17.055 -20.137 177.977  0.00  0.00    +0.000 A 
ATOM     41  C   UNL     1      16.606 -19.767 176.711  0.00  0.00    +0.000 A 
ENDBRANCH  35  36
BRANCH  35  43
ATOM     42  O   UNL     1      14.415 -20.851 182.608  0.00  0.00    +0.000 OA
ATOM     43  N   UNL     1      13.530 -20.908 180.501  0.00  0.00    +0.000 N 
ATOM     44  C   UNL     1      13.915 -21.462 181.679  0.00  0.00    +0.000 C 
ATOM     45  H   UNL     1      13.240 -21.553 179.778  0.00  0.00    +0.000 HD
BRANCH  44  46
ATOM     46  O   UNL     1      13.626 -22.781 181.651  0.00  0.00    +0.000 OA
BRANCH  46  47
ATOM     47  C   UNL     1      14.623 -23.749 181.236  0.00  0.00    +0.000 C 
ATOM     48  C   UNL     1      16.044 -23.234 181.492  0.00  0.00    +0.000 C 
ATOM     49  C   UNL     1      14.375 -24.972 182.133  0.00  0.00    +0.000 C 
ATOM     50  C   UNL     1      14.420 -24.164 179.775  0.00  0.00    +0.000 C 
ENDBRANCH  46  47
ENDBRANCH  44  46
ENDBRANCH  35  43
ENDBRANCH  32  35
ENDBRANCH  31  32
ENDBRANCH  29  31
ENDBRANCH  18  29
BRANCH   7  51
ATOM     51  O   UNL     1      10.245 -14.126 179.973  0.00  0.00    +0.000 OA
BRANCH  51  53
ATOM     52  O   UNL     1       8.440 -14.999 179.879  0.00  0.00    +0.000 OA
ATOM     53  C   UNL     1       9.443 -15.060 180.582  0.00  0.00    +0.000 C 
BRANCH  53  54
ATOM     54  C   UNL     1       9.840 -15.883 182.266  0.00  0.00    +0.000 A 
ATOM     55  C   UNL     1       9.377 -17.204 182.694  0.00  0.00    +0.000 A 
ATOM     56  C   UNL     1      10.733 -15.409 183.276  0.00  0.00    +0.000 A 
ATOM     57  C   UNL     1       9.731 -17.896 183.880  0.00  0.00    +0.000 A 
ATOM     58  C   UNL     1      11.100 -16.089 184.474  0.00  0.00    +0.000 A 
ATOM     59  C   UNL     1      10.601 -17.332 184.777  0.00  0.00    +0.000 A 
ENDBRANCH  53  54
ENDBRANCH  51  53
ENDBRANCH   7  51
BRANCH   4  60
ATOM     60  O   UNL     1       8.604 -12.877 182.446  0.00  0.00    +0.000 OA
BRANCH  60  62
ATOM     61  O   UNL     1       7.070 -14.240 183.337  0.00  0.00    +0.000 OA
ATOM     62  C   UNL     1       7.829 -13.284 183.478  0.00  0.00    +0.000 C 
ATOM     63  C   UNL     1       7.825 -12.484 184.743  0.00  0.00    +0.000 C 
ENDBRANCH  60  62
ENDBRANCH   4  60
TORSDOF 17
ENDMDL
MODEL 6
REMARK VINA RESULT:      -6.5     26.663     30.268
REMARK  Name = 
REMARK  25 active torsions:
REMARK  status: ('A' for Active; 'I' for Inactive)
REMARK    1  A    between atoms: O_2  and  C_17
REMARK    2  A    between atoms: O_2  and  C_36
REMARK    3  A    between atoms: O_3  and  C_20
REMARK    4  A    between atoms: O_3  and  C_37
REMARK    5  A    between atoms: O_4  and  C_21
REMARK    6  A    between atoms: O_5  and  C_22
REMARK    7  A    between atoms: O_7  and  C_30
REMARK    8  A    between atoms: O_8  and  C_31
REMARK    9  A    between atoms: O_8  and  C_39
REMARK   10  A    between atoms: O_12  and  C_41
REMARK   11  A    between atoms: O_13  and  C_51
REMARK   12  A    between atoms: O_13  and  C_55
REMARK   13  A    between atoms: N_15  and  C_44
REMARK   14  A    between atoms: C_18  and  C_29
REMARK   15  A    between atoms: C_24  and  C_33
REMARK   16  A    between atoms: C_24  and  C_34
REMARK   17  A    between atoms: C_32  and  C_35
REMARK   18  A    between atoms: C_36  and  C_38
REMARK   19  A    between atoms: C_37  and  C_40
REMARK   20  A    between atoms: C_39  and  C_41
REMARK   21  A    between atoms: C_41  and  C_44
REMARK   22  A    between atoms: C_44  and  C_48
REMARK   23  A    between atoms: C_55  and  C_56
REMARK   24  A    between atoms: C_55  and  C_57
REMARK   25  A    between atoms: C_55  and  C_58
REMARK                            x       y       z     vdW  Elec       q    Type
REMARK                         _______ _______ _______ _____ _____    ______ ____
ROOT
ATOM      1  O   UNL     1      14.249 -25.472 183.099  0.00  0.00    +0.000 OA
ATOM      2  O   UNL     1       8.801 -26.243 179.241  0.00  0.00    +0.000 OA
ATOM      3  C   UNL     1      12.899 -24.833 179.996  0.00  0.00    +0.000 C 
ATOM      4  C   UNL     1      13.476 -24.439 181.388  0.00  0.00    +0.000 C 
ATOM      5  C   UNL     1      11.039 -25.128 180.230  0.00  0.00    +0.000 C 
ATOM      6  C   UNL     1      13.260 -25.838 182.098  0.00  0.00    +0.000 C 
ATOM      7  C   UNL     1      13.569 -23.758 178.629  0.00  0.00    +0.000 C 
ATOM      8  C   UNL     1      13.423 -23.474 176.761  0.00  0.00    +0.000 C 
ATOM      9  C   UNL     1      10.975 -26.326 181.266  0.00  0.00    +0.000 C 
ATOM     10  C   UNL     1      11.849 -26.152 182.546  0.00  0.00    +0.000 C 
ATOM     11  C   UNL     1      12.205 -24.109 175.637  0.00  0.00    +0.000 C 
ATOM     12  C   UNL     1      14.903 -24.697 182.017  0.00  0.00    +0.000 C 
ATOM     13  C   UNL     1       9.749 -25.498 178.911  0.00  0.00    +0.000 C 
ATOM     14  C   UNL     1      13.171 -21.905 176.591  0.00  0.00    +0.000 C 
ATOM     15  C   UNL     1      10.719 -23.789 176.135  0.00  0.00    +0.000 C 
ATOM     16  C   UNL     1      10.333 -23.938 181.007  0.00  0.00    +0.000 C 
ATOM     17  C   UNL     1       9.679 -24.878 177.096  0.00  0.00    +0.000 C 
ATOM     18  C   UNL     1      11.665 -21.404 176.422  0.00  0.00    +0.000 C 
ATOM     19  C   UNL     1      10.496 -22.436 176.228  0.00  0.00    +0.000 C 
ATOM     20  C   UNL     1      12.405 -23.334 174.239  0.00  0.00    +0.000 C 
ATOM     21  C   UNL     1      12.396 -25.535 175.028  0.00  0.00    +0.000 C 
ATOM     22  C   UNL     1       9.119 -21.853 176.429  0.00  0.00    +0.000 C 
ENDROOT
BRANCH  17  23
ATOM     23  O   UNL     1       9.274 -25.897 176.181  0.00  0.00    +0.000 OA
ATOM     24  H   UNL     1       8.437 -25.574 175.799  0.00  0.00    +0.000 HD
ENDBRANCH  17  23
BRANCH   9  25
ATOM     25  O   UNL     1      11.427 -27.515 180.616  0.00  0.00    +0.000 OA
ATOM     26  H   UNL     1      10.639 -27.959 180.254  0.00  0.00    +0.000 HD
ENDBRANCH   9  25
BRANCH   8  27
ATOM     27  O   UNL     1      14.744 -23.739 176.250  0.00  0.00    +0.000 OA
ATOM     28  H   UNL     1      15.190 -24.378 176.833  0.00  0.00    +0.000 HD
ENDBRANCH   8  27
BRANCH  18  29
ATOM     29  O   UNL     1      11.332 -20.608 177.595  0.00  0.00    +0.000 OA
BRANCH  29  31
ATOM     30  O   UNL     1      10.530 -18.814 176.481  0.00  0.00    +0.000 OA
ATOM     31  C   UNL     1      11.164 -19.272 177.426  0.00  0.00    +0.000 C 
BRANCH  31  32
ATOM     32  C   UNL     1      11.954 -18.388 178.396  0.00  0.00    +0.000 C 
BRANCH  32  33
ATOM     33  O   UNL     1      11.171 -17.483 179.183  0.00  0.00    +0.000 OA
ATOM     34  H   UNL     1      11.679 -16.651 179.223  0.00  0.00    +0.000 HD
ENDBRANCH  32  33
BRANCH  32  35
ATOM     35  C   UNL     1      13.053 -17.639 177.595  0.00  0.00    +0.000 C 
BRANCH  35  36
ATOM     36  C   UNL     1      14.395 -18.364 177.621  0.00  0.00    +0.000 A 
ATOM     37  C   UNL     1      15.125 -18.427 178.818  0.00  0.00    +0.000 A 
ATOM     38  C   UNL     1      14.913 -19.008 176.485  0.00  0.00    +0.000 A 
ATOM     39  C   UNL     1      16.352 -19.094 178.872  0.00  0.00    +0.000 A 
ATOM     40  C   UNL     1      16.140 -19.672 176.541  0.00  0.00    +0.000 A 
ATOM     41  C   UNL     1      16.860 -19.713 177.734  0.00  0.00    +0.000 A 
ENDBRANCH  35  36
BRANCH  35  43
ATOM     42  O   UNL     1      12.670 -15.170 176.177  0.00  0.00    +0.000 OA
ATOM     43  N   UNL     1      13.243 -16.283 178.089  0.00  0.00    +0.000 N 
ATOM     44  C   UNL     1      13.136 -15.182 177.303  0.00  0.00    +0.000 C 
ATOM     45  H   UNL     1      13.757 -16.167 178.953  0.00  0.00    +0.000 HD
BRANCH  44  46
ATOM     46  O   UNL     1      13.604 -14.116 177.988  0.00  0.00    +0.000 OA
BRANCH  46  47
ATOM     47  C   UNL     1      12.695 -13.228 178.688  0.00  0.00    +0.000 C 
ATOM     48  C   UNL     1      12.709 -13.490 180.197  0.00  0.00    +0.000 C 
ATOM     49  C   UNL     1      13.251 -11.819 178.429  0.00  0.00    +0.000 C 
ATOM     50  C   UNL     1      11.280 -13.311 178.105  0.00  0.00    +0.000 C 
ENDBRANCH  46  47
ENDBRANCH  44  46
ENDBRANCH  35  43
ENDBRANCH  32  35
ENDBRANCH  31  32
ENDBRANCH  29  31
ENDBRANCH  18  29
BRANCH   7  51
ATOM     51  O   UNL     1      12.493 -23.019 178.803  0.00  0.00    +0.000 OA
BRANCH  51  53
ATOM     52  O   UNL     1      14.378 -22.397 179.110  0.00  0.00    +0.000 OA
ATOM     53  C   UNL     1      13.242 -22.028 179.390  0.00  0.00    +0.000 C 
BRANCH  53  54
ATOM     54  C   UNL     1      12.527 -20.699 180.571  0.00  0.00    +0.000 A 
ATOM     55  C   UNL     1      11.127 -20.599 180.986  0.00  0.00    +0.000 A 
ATOM     56  C   UNL     1      13.251 -19.716 181.313  0.00  0.00    +0.000 A 
ATOM     57  C   UNL     1      10.575 -19.704 181.936  0.00  0.00    +0.000 A 
ATOM     58  C   UNL     1      12.714 -18.808 182.272  0.00  0.00    +0.000 A 
ATOM     59  C   UNL     1      11.376 -18.801 182.585  0.00  0.00    +0.000 A 
ENDBRANCH  53  54
ENDBRANCH  51  53
ENDBRANCH   7  51
BRANCH   4  60
ATOM     60  O   UNL     1      12.751 -23.345 181.996  0.00  0.00    +0.000 OA
BRANCH  60  62
ATOM     61  O   UNL     1      14.155 -22.181 183.292  0.00  0.00    +0.000 OA
ATOM     62  C   UNL     1      13.085 -22.774 183.177  0.00  0.00    +0.000 C 
ATOM     63  C   UNL     1      12.192 -22.978 184.360  0.00  0.00    +0.000 C 
ENDBRANCH  60  62
ENDBRANCH   4  60
TORSDOF 17
ENDMDL
MODEL 7
REMARK VINA RESULT:      -6.2     27.403     31.332
REMARK  Name = 
REMARK  25 active torsions:
REMARK  status: ('A' for Active; 'I' for Inactive)
REMARK    1  A    between atoms: O_2  and  C_17
REMARK    2  A    between atoms: O_2  and  C_36
REMARK    3  A    between atoms: O_3  and  C_20
REMARK    4  A    between atoms: O_3  and  C_37
REMARK    5  A    between atoms: O_4  and  C_21
REMARK    6  A    between atoms: O_5  and  C_22
REMARK    7  A    between atoms: O_7  and  C_30
REMARK    8  A    between atoms: O_8  and  C_31
REMARK    9  A    between atoms: O_8  and  C_39
REMARK   10  A    between atoms: O_12  and  C_41
REMARK   11  A    between atoms: O_13  and  C_51
REMARK   12  A    between atoms: O_13  and  C_55
REMARK   13  A    between atoms: N_15  and  C_44
REMARK   14  A    between atoms: C_18  and  C_29
REMARK   15  A    between atoms: C_24  and  C_33
REMARK   16  A    between atoms: C_24  and  C_34
REMARK   17  A    between atoms: C_32  and  C_35
REMARK   18  A    between atoms: C_36  and  C_38
REMARK   19  A    between atoms: C_37  and  C_40
REMARK   20  A    between atoms: C_39  and  C_41
REMARK   21  A    between atoms: C_41  and  C_44
REMARK   22  A    between atoms: C_44  and  C_48
REMARK   23  A    between atoms: C_55  and  C_56
REMARK   24  A    between atoms: C_55  and  C_57
REMARK   25  A    between atoms: C_55  and  C_58
REMARK                            x       y       z     vdW  Elec       q    Type
REMARK                         _______ _______ _______ _____ _____    ______ ____
ROOT
ATOM      1  O   UNL     1      30.465 -13.430 160.509  0.00  0.00    +0.000 OA
ATOM      2  O   UNL     1      25.920 -10.701 164.638  0.00  0.00    +0.000 OA
ATOM      3  C   UNL     1      28.783 -10.533 161.303  0.00  0.00    +0.000 C 
ATOM      4  C   UNL     1      30.047 -11.430 161.153  0.00  0.00    +0.000 C 
ATOM      5  C   UNL     1      28.066 -10.870 163.027  0.00  0.00    +0.000 C 
ATOM      6  C   UNL     1      29.301 -12.827 161.137  0.00  0.00    +0.000 C 
ATOM      7  C   UNL     1      29.070  -8.803 160.669  0.00  0.00    +0.000 C 
ATOM      8  C   UNL     1      28.205  -7.128 160.492  0.00  0.00    +0.000 C 
ATOM      9  C   UNL     1      27.704 -12.413 162.989  0.00  0.00    +0.000 C 
ATOM     10  C   UNL     1      28.837 -13.354 162.478  0.00  0.00    +0.000 C 
ATOM     11  C   UNL     1      26.690  -6.580 161.239  0.00  0.00    +0.000 C 
ATOM     12  C   UNL     1      30.676 -12.109 159.871  0.00  0.00    +0.000 C 
ATOM     13  C   UNL     1      26.622 -10.007 163.871  0.00  0.00    +0.000 C 
ATOM     14  C   UNL     1      29.223  -6.060 161.105  0.00  0.00    +0.000 C 
ATOM     15  C   UNL     1      26.713  -6.772 162.828  0.00  0.00    +0.000 C 
ATOM     16  C   UNL     1      29.168 -10.784 164.166  0.00  0.00    +0.000 C 
ATOM     17  C   UNL     1      26.067  -8.176 163.722  0.00  0.00    +0.000 C 
ATOM     18  C   UNL     1      29.008  -5.606 162.621  0.00  0.00    +0.000 C 
ATOM     19  C   UNL     1      27.723  -6.044 163.411  0.00  0.00    +0.000 C 
ATOM     20  C   UNL     1      26.575  -4.997 160.963  0.00  0.00    +0.000 C 
ATOM     21  C   UNL     1      25.330  -6.935 160.559  0.00  0.00    +0.000 C 
ATOM     22  C   UNL     1      27.818  -5.843 164.904  0.00  0.00    +0.000 C 
ENDROOT
BRANCH  17  23
ATOM     23  O   UNL     1      24.648  -8.036 163.646  0.00  0.00    +0.000 OA
ATOM     24  H   UNL     1      24.350  -7.989 164.574  0.00  0.00    +0.000 HD
ENDBRANCH  17  23
BRANCH   9  25
ATOM     25  O   UNL     1      26.589 -12.598 162.116  0.00  0.00    +0.000 OA
ATOM     26  H   UNL     1      26.717 -13.453 161.668  0.00  0.00    +0.000 HD
ENDBRANCH   9  25
BRANCH   8  27
ATOM     27  O   UNL     1      28.162  -6.890 159.072  0.00  0.00    +0.000 OA
ATOM     28  H   UNL     1      27.845  -5.983 158.910  0.00  0.00    +0.000 HD
ENDBRANCH   8  27
BRANCH  18  29
ATOM     29  O   UNL     1      30.153  -6.077 163.388  0.00  0.00    +0.000 OA
BRANCH  29  31
ATOM     30  O   UNL     1      31.274  -5.301 165.189  0.00  0.00    +0.000 OA
ATOM     31  C   UNL     1      30.910  -5.150 164.028  0.00  0.00    +0.000 C 
BRANCH  31  32
ATOM     32  C   UNL     1      31.131  -3.844 163.256  0.00  0.00    +0.000 C 
BRANCH  32  33
ATOM     33  O   UNL     1      32.491  -3.554 162.913  0.00  0.00    +0.000 OA
ATOM     34  H   UNL     1      32.777  -2.846 163.521  0.00  0.00    +0.000 HD
ENDBRANCH  32  33
BRANCH  32  35
ATOM     35  C   UNL     1      30.487  -2.684 164.061  0.00  0.00    +0.000 C 
BRANCH  35  36
ATOM     36  C   UNL     1      29.067  -2.368 163.601  0.00  0.00    +0.000 A 
ATOM     37  C   UNL     1      28.010  -2.430 164.524  0.00  0.00    +0.000 A 
ATOM     38  C   UNL     1      28.783  -1.976 162.282  0.00  0.00    +0.000 A 
ATOM     39  C   UNL     1      26.702  -2.134 164.132  0.00  0.00    +0.000 A 
ATOM     40  C   UNL     1      27.475  -1.682 161.894  0.00  0.00    +0.000 A 
ATOM     41  C   UNL     1      26.435  -1.764 162.817  0.00  0.00    +0.000 A 
ENDBRANCH  35  36
BRANCH  35  43
ATOM     42  O   UNL     1      31.060  -0.799 166.153  0.00  0.00    +0.000 OA
ATOM     43  N   UNL     1      31.287  -1.470 163.979  0.00  0.00    +0.000 N 
ATOM     44  C   UNL     1      31.410  -0.588 165.004  0.00  0.00    +0.000 C 
ATOM     45  H   UNL     1      31.510  -1.118 163.057  0.00  0.00    +0.000 HD
BRANCH  44  46
ATOM     46  O   UNL     1      32.003   0.532 164.540  0.00  0.00    +0.000 OA
BRANCH  46  47
ATOM     47  C   UNL     1      33.309   0.936 165.027  0.00  0.00    +0.000 C 
ATOM     48  C   UNL     1      34.090  -0.257 165.587  0.00  0.00    +0.000 C 
ATOM     49  C   UNL     1      34.042   1.464 163.785  0.00  0.00    +0.000 C 
ATOM     50  C   UNL     1      33.192   2.074 166.048  0.00  0.00    +0.000 C 
ENDBRANCH  46  47
ENDBRANCH  44  46
ENDBRANCH  35  43
ENDBRANCH  32  35
ENDBRANCH  31  32
ENDBRANCH  29  31
ENDBRANCH  18  29
BRANCH   7  51
ATOM     51  O   UNL     1      29.371  -8.492 161.913  0.00  0.00    +0.000 OA
BRANCH  51  53
ATOM     52  O   UNL     1      30.656  -8.546 160.371  0.00  0.00    +0.000 OA
ATOM     53  C   UNL     1      30.698  -8.359 161.582  0.00  0.00    +0.000 C 
BRANCH  53  54
ATOM     54  C   UNL     1      32.117  -8.248 162.864  0.00  0.00    +0.000 A 
ATOM     55  C   UNL     1      33.395  -7.566 162.657  0.00  0.00    +0.000 A 
ATOM     56  C   UNL     1      32.095  -8.683 164.225  0.00  0.00    +0.000 A 
ATOM     57  C   UNL     1      34.427  -7.366 163.609  0.00  0.00    +0.000 A 
ATOM     58  C   UNL     1      33.122  -8.492 165.196  0.00  0.00    +0.000 A 
ATOM     59  C   UNL     1      34.288  -7.834 164.890  0.00  0.00    +0.000 A 
ENDBRANCH  53  54
ENDBRANCH  51  53
ENDBRANCH   7  51
BRANCH   4  60
ATOM     60  O   UNL     1      30.976 -11.263 162.249  0.00  0.00    +0.000 OA
BRANCH  60  62
ATOM     61  O   UNL     1      32.284 -12.908 163.018  0.00  0.00    +0.000 OA
ATOM     62  C   UNL     1      32.172 -11.892 162.335  0.00  0.00    +0.000 C 
ATOM     63  C   UNL     1      33.367 -11.268 161.688  0.00  0.00    +0.000 C 
ENDBRANCH  60  62
ENDBRANCH   4  60
TORSDOF 17
ENDMDL
MODEL 8
REMARK VINA RESULT:      -6.2     25.945     29.464
REMARK  Name = 
REMARK  25 active torsions:
REMARK  status: ('A' for Active; 'I' for Inactive)
REMARK    1  A    between atoms: O_2  and  C_17
REMARK    2  A    between atoms: O_2  and  C_36
REMARK    3  A    between atoms: O_3  and  C_20
REMARK    4  A    between atoms: O_3  and  C_37
REMARK    5  A    between atoms: O_4  and  C_21
REMARK    6  A    between atoms: O_5  and  C_22
REMARK    7  A    between atoms: O_7  and  C_30
REMARK    8  A    between atoms: O_8  and  C_31
REMARK    9  A    between atoms: O_8  and  C_39
REMARK   10  A    between atoms: O_12  and  C_41
REMARK   11  A    between atoms: O_13  and  C_51
REMARK   12  A    between atoms: O_13  and  C_55
REMARK   13  A    between atoms: N_15  and  C_44
REMARK   14  A    between atoms: C_18  and  C_29
REMARK   15  A    between atoms: C_24  and  C_33
REMARK   16  A    between atoms: C_24  and  C_34
REMARK   17  A    between atoms: C_32  and  C_35
REMARK   18  A    between atoms: C_36  and  C_38
REMARK   19  A    between atoms: C_37  and  C_40
REMARK   20  A    between atoms: C_39  and  C_41
REMARK   21  A    between atoms: C_41  and  C_44
REMARK   22  A    between atoms: C_44  and  C_48
REMARK   23  A    between atoms: C_55  and  C_56
REMARK   24  A    between atoms: C_55  and  C_57
REMARK   25  A    between atoms: C_55  and  C_58
REMARK                            x       y       z     vdW  Elec       q    Type
REMARK                         _______ _______ _______ _____ _____    ______ ____
ROOT
ATOM      1  O   UNL     1      11.451 -17.782 185.018  0.00  0.00    +0.000 OA
ATOM      2  O   UNL     1       9.026 -22.756 181.205  0.00  0.00    +0.000 OA
ATOM      3  C   UNL     1      12.272 -20.191 182.698  0.00  0.00    +0.000 C 
ATOM      4  C   UNL     1      12.105 -18.730 183.211  0.00  0.00    +0.000 C 
ATOM      5  C   UNL     1      10.603 -20.714 181.962  0.00  0.00    +0.000 C 
ATOM      6  C   UNL     1      11.097 -19.045 184.391  0.00  0.00    +0.000 C 
ATOM      7  C   UNL     1      13.879 -20.434 181.785  0.00  0.00    +0.000 C 
ATOM      8  C   UNL     1      14.860 -21.749 180.837  0.00  0.00    +0.000 C 
ATOM      9  C   UNL     1       9.605 -20.622 183.190  0.00  0.00    +0.000 C 
ATOM     10  C   UNL     1       9.656 -19.287 183.995  0.00  0.00    +0.000 C 
ATOM     11  C   UNL     1      14.306 -23.327 180.241  0.00  0.00    +0.000 C 
ATOM     12  C   UNL     1      12.793 -17.983 184.422  0.00  0.00    +0.000 C 
ATOM     13  C   UNL     1      10.186 -22.312 181.058  0.00  0.00    +0.000 C 
ATOM     14  C   UNL     1      15.270 -21.056 179.457  0.00  0.00    +0.000 C 
ATOM     15  C   UNL     1      12.988 -23.189 179.344  0.00  0.00    +0.000 C 
ATOM     16  C   UNL     1      10.029 -19.641 180.945  0.00  0.00    +0.000 C 
ATOM     17  C   UNL     1      11.307 -23.372 179.918  0.00  0.00    +0.000 C 
ATOM     18  C   UNL     1      14.354 -21.333 178.179  0.00  0.00    +0.000 C 
ATOM     19  C   UNL     1      13.210 -22.408 178.235  0.00  0.00    +0.000 C 
ATOM     20  C   UNL     1      15.465 -23.901 179.281  0.00  0.00    +0.000 C 
ATOM     21  C   UNL     1      14.312 -24.554 181.207  0.00  0.00    +0.000 C 
ATOM     22  C   UNL     1      12.223 -22.317 177.097  0.00  0.00    +0.000 C 
ENDROOT
BRANCH  17  23
ATOM     23  O   UNL     1      11.147 -24.774 180.138  0.00  0.00    +0.000 OA
ATOM     24  H   UNL     1      11.056 -24.867 181.105  0.00  0.00    +0.000 HD
ENDBRANCH  17  23
BRANCH   9  25
ATOM     25  O   UNL     1       9.914 -21.670 184.109  0.00  0.00    +0.000 OA
ATOM     26  H   UNL     1      10.207 -22.435 183.581  0.00  0.00    +0.000 HD
ENDBRANCH   9  25
BRANCH   8  27
ATOM     27  O   UNL     1      16.074 -21.913 181.595  0.00  0.00    +0.000 OA
ATOM     28  H   UNL     1      16.722 -21.246 181.308  0.00  0.00    +0.000 HD
ENDBRANCH   8  27
BRANCH  18  29
ATOM     29  O   UNL     1      13.728 -20.072 177.805  0.00  0.00    +0.000 OA
BRANCH  29  31
ATOM     30  O   UNL     1      13.389 -18.641 176.091  0.00  0.00    +0.000 OA
ATOM     31  C   UNL     1      14.050 -19.541 176.599  0.00  0.00    +0.000 C 
BRANCH  31  32
ATOM     32  C   UNL     1      15.186 -20.252 175.855  0.00  0.00    +0.000 C 
BRANCH  32  33
ATOM     33  O   UNL     1      16.498 -19.729 176.090  0.00  0.00    +0.000 OA
ATOM     34  H   UNL     1      16.433 -18.765 175.951  0.00  0.00    +0.000 HD
ENDBRANCH  32  33
BRANCH  32  35
ATOM     35  C   UNL     1      14.844 -20.272 174.341  0.00  0.00    +0.000 C 
BRANCH  35  36
ATOM     36  C   UNL     1      13.857 -21.376 173.977  0.00  0.00    +0.000 A 
ATOM     37  C   UNL     1      12.591 -21.036 173.473  0.00  0.00    +0.000 A 
ATOM     38  C   UNL     1      14.188 -22.737 174.093  0.00  0.00    +0.000 A 
ATOM     39  C   UNL     1      11.672 -22.027 173.121  0.00  0.00    +0.000 A 
ATOM     40  C   UNL     1      13.267 -23.725 173.741  0.00  0.00    +0.000 A 
ATOM     41  C   UNL     1      12.009 -23.371 173.258  0.00  0.00    +0.000 A 
ENDBRANCH  35  36
BRANCH  35  43
ATOM     42  O   UNL     1      15.280 -19.368 171.648  0.00  0.00    +0.000 OA
ATOM     43  N   UNL     1      16.041 -20.426 173.526  0.00  0.00    +0.000 N 
ATOM     44  C   UNL     1      16.108 -20.054 172.223  0.00  0.00    +0.000 C 
ATOM     45  H   UNL     1      16.736 -21.092 173.837  0.00  0.00    +0.000 HD
BRANCH  44  46
ATOM     46  O   UNL     1      17.248 -20.545 171.692  0.00  0.00    +0.000 OA
BRANCH  46  47
ATOM     47  C   UNL     1      17.207 -21.590 170.686  0.00  0.00    +0.000 C 
ATOM     48  C   UNL     1      17.133 -21.003 169.273  0.00  0.00    +0.000 C 
ATOM     49  C   UNL     1      18.543 -22.332 170.840  0.00  0.00    +0.000 C 
ATOM     50  C   UNL     1      16.065 -22.576 170.957  0.00  0.00    +0.000 C 
ENDBRANCH  46  47
ENDBRANCH  44  46
ENDBRANCH  35  43
ENDBRANCH  32  35
ENDBRANCH  31  32
ENDBRANCH  29  31
ENDBRANCH  18  29
BRANCH   7  51
ATOM     51  O   UNL     1      13.192 -20.188 180.690  0.00  0.00    +0.000 OA
BRANCH  51  53
ATOM     52  O   UNL     1      14.623 -19.014 181.469  0.00  0.00    +0.000 OA
ATOM     53  C   UNL     1      13.823 -18.976 180.540  0.00  0.00    +0.000 C 
BRANCH  53  54
ATOM     54  C   UNL     1      13.231 -17.599 179.347  0.00  0.00    +0.000 A 
ATOM     55  C   UNL     1      11.863 -17.434 178.856  0.00  0.00    +0.000 A 
ATOM     56  C   UNL     1      13.979 -16.475 178.878  0.00  0.00    +0.000 A 
ATOM     57  C   UNL     1      11.357 -16.373 178.062  0.00  0.00    +0.000 A 
ATOM     58  C   UNL     1      13.489 -15.400 178.080  0.00  0.00    +0.000 A 
ATOM     59  C   UNL     1      12.179 -15.347 177.671  0.00  0.00    +0.000 A 
ENDBRANCH  53  54
ENDBRANCH  51  53
ENDBRANCH   7  51
BRANCH   4  60
ATOM     60  O   UNL     1      11.575 -17.846 182.195  0.00  0.00    +0.000 OA
BRANCH  60  62
ATOM     61  O   UNL     1      12.748 -15.941 182.227  0.00  0.00    +0.000 OA
ATOM     62  C   UNL     1      11.651 -16.496 182.247  0.00  0.00    +0.000 C 
ATOM     63  C   UNL     1      10.397 -15.705 182.447  0.00  0.00    +0.000 C 
ENDBRANCH  60  62
ENDBRANCH   4  60
TORSDOF 17
ENDMDL
MODEL 9
REMARK VINA RESULT:      -6.1     20.590     26.259
REMARK  Name = 
REMARK  25 active torsions:
REMARK  status: ('A' for Active; 'I' for Inactive)
REMARK    1  A    between atoms: O_2  and  C_17
REMARK    2  A    between atoms: O_2  and  C_36
REMARK    3  A    between atoms: O_3  and  C_20
REMARK    4  A    between atoms: O_3  and  C_37
REMARK    5  A    between atoms: O_4  and  C_21
REMARK    6  A    between atoms: O_5  and  C_22
REMARK    7  A    between atoms: O_7  and  C_30
REMARK    8  A    between atoms: O_8  and  C_31
REMARK    9  A    between atoms: O_8  and  C_39
REMARK   10  A    between atoms: O_12  and  C_41
REMARK   11  A    between atoms: O_13  and  C_51
REMARK   12  A    between atoms: O_13  and  C_55
REMARK   13  A    between atoms: N_15  and  C_44
REMARK   14  A    between atoms: C_18  and  C_29
REMARK   15  A    between atoms: C_24  and  C_33
REMARK   16  A    between atoms: C_24  and  C_34
REMARK   17  A    between atoms: C_32  and  C_35
REMARK   18  A    between atoms: C_36  and  C_38
REMARK   19  A    between atoms: C_37  and  C_40
REMARK   20  A    between atoms: C_39  and  C_41
REMARK   21  A    between atoms: C_41  and  C_44
REMARK   22  A    between atoms: C_44  and  C_48
REMARK   23  A    between atoms: C_55  and  C_56
REMARK   24  A    between atoms: C_55  and  C_57
REMARK   25  A    between atoms: C_55  and  C_58
REMARK                            x       y       z     vdW  Elec       q    Type
REMARK                         _______ _______ _______ _____ _____    ______ ____
ROOT
ATOM      1  O   UNL     1      37.930   4.606 171.117  0.00  0.00    +0.000 OA
ATOM      2  O   UNL     1      42.351   9.467 169.708  0.00  0.00    +0.000 OA
ATOM      3  C   UNL     1      41.222   5.571 171.411  0.00  0.00    +0.000 C 
ATOM      4  C   UNL     1      39.811   5.198 171.954  0.00  0.00    +0.000 C 
ATOM      5  C   UNL     1      41.196   7.430 171.031  0.00  0.00    +0.000 C 
ATOM      6  C   UNL     1      39.009   5.439 170.610  0.00  0.00    +0.000 C 
ATOM      7  C   UNL     1      42.588   4.781 172.403  0.00  0.00    +0.000 C 
ATOM      8  C   UNL     1      44.477   4.697 172.518  0.00  0.00    +0.000 C 
ATOM      9  C   UNL     1      40.072   7.572 169.922  0.00  0.00    +0.000 C 
ATOM     10  C   UNL     1      38.714   6.880 170.255  0.00  0.00    +0.000 C 
ATOM     11  C   UNL     1      45.682   5.728 171.721  0.00  0.00    +0.000 C 
ATOM     12  C   UNL     1      38.988   3.854 171.833  0.00  0.00    +0.000 C 
ATOM     13  C   UNL     1      42.627   8.520 170.476  0.00  0.00    +0.000 C 
ATOM     14  C   UNL     1      44.820   4.997 174.050  0.00  0.00    +0.000 C 
ATOM     15  C   UNL     1      45.404   7.280 171.996  0.00  0.00    +0.000 C 
ATOM     16  C   UNL     1      40.626   8.285 172.239  0.00  0.00    +0.000 C 
ATOM     17  C   UNL     1      44.485   8.384 170.935  0.00  0.00    +0.000 C 
ATOM     18  C   UNL     1      45.221   6.490 174.448  0.00  0.00    +0.000 C 
ATOM     19  C   UNL     1      45.464   7.575 173.338  0.00  0.00    +0.000 C 
ATOM     20  C   UNL     1      47.109   5.385 172.385  0.00  0.00    +0.000 C 
ATOM     21  C   UNL     1      46.129   5.394 170.262  0.00  0.00    +0.000 C 
ATOM     22  C   UNL     1      45.491   8.992 173.855  0.00  0.00    +0.000 C 
ENDROOT
BRANCH  17  23
ATOM     23  O   UNL     1      45.346   8.618 169.821  0.00  0.00    +0.000 OA
ATOM     24  H   UNL     1      44.944   9.370 169.346  0.00  0.00    +0.000 HD
ENDBRANCH  17  23
BRANCH   9  25
ATOM     25  O   UNL     1      40.548   6.985 168.711  0.00  0.00    +0.000 OA
ATOM     26  H   UNL     1      40.702   6.041 168.893  0.00  0.00    +0.000 HD
ENDBRANCH   9  25
BRANCH   8  27
ATOM     27  O   UNL     1      44.793   3.310 172.288  0.00  0.00    +0.000 OA
ATOM     28  H   UNL     1      43.996   2.771 172.440  0.00  0.00    +0.000 HD
ENDBRANCH   8  27
BRANCH  18  29
ATOM     29  O   UNL     1      44.176   7.009 175.320  0.00  0.00    +0.000 OA
BRANCH  29  31
ATOM     30  O   UNL     1      44.903   7.607 177.373  0.00  0.00    +0.000 OA
ATOM     31  C   UNL     1      44.310   6.809 176.655  0.00  0.00    +0.000 C 
BRANCH  31  32
ATOM     32  C   UNL     1      43.818   5.449 177.163  0.00  0.00    +0.000 C 
BRANCH  32  33
ATOM     33  O   UNL     1      42.453   5.411 177.596  0.00  0.00    +0.000 OA
ATOM     34  H   UNL     1      42.474   5.114 178.526  0.00  0.00    +0.000 HD
ENDBRANCH  32  33
BRANCH  32  35
ATOM     35  C   UNL     1      44.783   4.962 178.277  0.00  0.00    +0.000 C 
BRANCH  35  36
ATOM     36  C   UNL     1      45.141   3.486 178.140  0.00  0.00    +0.000 A 
ATOM     37  C   UNL     1      46.147   3.097 177.241  0.00  0.00    +0.000 A 
ATOM     38  C   UNL     1      44.518   2.495 178.917  0.00  0.00    +0.000 A 
ATOM     39  C   UNL     1      46.503   1.754 177.104  0.00  0.00    +0.000 A 
ATOM     40  C   UNL     1      44.875   1.152 178.777  0.00  0.00    +0.000 A 
ATOM     41  C   UNL     1      45.864   0.782 177.869  0.00  0.00    +0.000 A 
ENDBRANCH  35  36
BRANCH  35  43
ATOM     42  O   UNL     1      46.046   6.197 180.543  0.00  0.00    +0.000 OA
ATOM     43  N   UNL     1      44.224   5.188 179.603  0.00  0.00    +0.000 N 
ATOM     44  C   UNL     1      44.943   5.687 180.639  0.00  0.00    +0.000 C 
ATOM     45  H   UNL     1      43.378   4.688 179.845  0.00  0.00    +0.000 HD
BRANCH  44  46
ATOM     46  O   UNL     1      44.222   5.546 181.772  0.00  0.00    +0.000 OA
BRANCH  46  47
ATOM     47  C   UNL     1      44.264   4.308 182.528  0.00  0.00    +0.000 C 
ATOM     48  C   UNL     1      45.567   3.542 182.275  0.00  0.00    +0.000 C 
ATOM     49  C   UNL     1      44.232   4.749 183.999  0.00  0.00    +0.000 C 
ATOM     50  C   UNL     1      43.029   3.445 182.248  0.00  0.00    +0.000 C 
ENDBRANCH  46  47
ENDBRANCH  44  46
ENDBRANCH  35  43
ENDBRANCH  32  35
ENDBRANCH  31  32
ENDBRANCH  29  31
ENDBRANCH  18  29
BRANCH   7  51
ATOM     51  O   UNL     1      42.618   5.903 173.091  0.00  0.00    +0.000 OA
BRANCH  51  53
ATOM     52  O   UNL     1      41.521   6.310 174.723  0.00  0.00    +0.000 OA
ATOM     53  C   UNL     1      41.915   5.319 174.117  0.00  0.00    +0.000 C 
BRANCH  53  54
ATOM     54  C   UNL     1      41.947   3.444 174.510  0.00  0.00    +0.000 A 
ATOM     55  C   UNL     1      43.080   2.719 175.085  0.00  0.00    +0.000 A 
ATOM     56  C   UNL     1      40.860   2.521 174.432  0.00  0.00    +0.000 A 
ATOM     57  C   UNL     1      43.114   1.360 175.491  0.00  0.00    +0.000 A 
ATOM     58  C   UNL     1      40.875   1.153 174.834  0.00  0.00    +0.000 A 
ATOM     59  C   UNL     1      42.000   0.571 175.364  0.00  0.00    +0.000 A 
ENDBRANCH  53  54
ENDBRANCH  51  53
ENDBRANCH   7  51
BRANCH   4  60
ATOM     60  O   UNL     1      39.401   6.046 173.052  0.00  0.00    +0.000 OA
BRANCH  60  62
ATOM     61  O   UNL     1      38.257   4.771 174.492  0.00  0.00    +0.000 OA
ATOM     62  C   UNL     1      38.323   5.808 173.835  0.00  0.00    +0.000 C 
ATOM     63  C   UNL     1      37.172   6.763 173.794  0.00  0.00    +0.000 C 
ENDBRANCH  60  62
ENDBRANCH   4  60
TORSDOF 17
ENDMDL
