REMARK  Name = 
REMARK  25 active torsions:
REMARK  status: ('A' for Active; 'I' for Inactive)
REMARK    1  A    between atoms: O_2  and  C_17
REMARK    2  A    between atoms: O_2  and  C_36
REMARK    3  A    between atoms: O_3  and  C_20
REMARK    4  A    between atoms: O_3  and  C_37
REMARK    5  A    between atoms: O_4  and  C_21
REMARK    6  A    between atoms: O_5  and  C_22
REMARK    7  A    between atoms: O_7  and  C_30
REMARK    8  A    between atoms: O_8  and  C_31
REMARK    9  A    between atoms: O_8  and  C_39
REMARK   10  A    between atoms: O_12  and  C_41
REMARK   11  A    between atoms: O_13  and  C_51
REMARK   12  A    between atoms: O_13  and  C_55
REMARK   13  A    between atoms: N_15  and  C_44
REMARK   14  A    between atoms: C_18  and  C_29
REMARK   15  A    between atoms: C_24  and  C_33
REMARK   16  A    between atoms: C_24  and  C_34
REMARK   17  A    between atoms: C_32  and  C_35
REMARK   18  A    between atoms: C_36  and  C_38
REMARK   19  A    between atoms: C_37  and  C_40
REMARK   20  A    between atoms: C_39  and  C_41
REMARK   21  A    between atoms: C_41  and  C_44
REMARK   22  A    between atoms: C_44  and  C_48
REMARK   23  A    between atoms: C_55  and  C_56
REMARK   24  A    between atoms: C_55  and  C_57
REMARK   25  A    between atoms: C_55  and  C_58
REMARK                            x       y       z     vdW  Elec       q    Type
REMARK                         _______ _______ _______ _____ _____    ______ ____
ROOT
ATOM      1  O   UNL     1       1.975  -6.970   6.023  0.00  0.00    +0.000 OA
ATOM      2  O   UNL     1       3.906  -0.650   7.242  0.00  0.00    +0.000 OA
ATOM      3  C   UNL     1       1.442  -3.669   5.201  0.00  0.00    +0.000 C 
ATOM      4  C   UNL     1       1.869  -5.139   4.915  0.00  0.00    +0.000 C 
ATOM      5  C   UNL     1       2.970  -2.770   5.878  0.00  0.00    +0.000 C 
ATOM      6  C   UNL     1       2.101  -5.577   6.419  0.00  0.00    +0.000 C 
ATOM      7  C   UNL     1       0.402  -2.960   3.826  0.00  0.00    +0.000 C 
ATOM      8  C   UNL     1      -0.469  -1.362   3.301  0.00  0.00    +0.000 C 
ATOM      9  C   UNL     1       3.315  -3.562   7.207  0.00  0.00    +0.000 C 
ATOM     10  C   UNL     1       3.391  -5.113   7.061  0.00  0.00    +0.000 C 
ATOM     11  C   UNL     1      -0.298   0.268   3.983  0.00  0.00    +0.000 C 
ATOM     12  C   UNL     1       1.036  -6.481   4.985  0.00  0.00    +0.000 C 
ATOM     13  C   UNL     1       3.152  -0.942   6.288  0.00  0.00    +0.000 C 
ATOM     14  C   UNL     1       0.014  -1.091   1.802  0.00  0.00    +0.000 C 
ATOM     15  C   UNL     1       1.234   0.729   4.032  0.00  0.00    +0.000 C 
ATOM     16  C   UNL     1       4.254  -2.999   4.975  0.00  0.00    +0.000 C 
ATOM     17  C   UNL     1       2.333   0.566   5.430  0.00  0.00    +0.000 C 
ATOM     18  C   UNL     1       1.228  -0.078   1.579  0.00  0.00    +0.000 C 
ATOM     19  C   UNL     1       1.790   0.771   2.775  0.00  0.00    +0.000 C 
ATOM     20  C   UNL     1      -1.057   1.279   2.985  0.00  0.00    +0.000 C 
ATOM     21  C   UNL     1      -1.138   0.663   5.239  0.00  0.00    +0.000 C 
ATOM     22  C   UNL     1       3.131   1.407   2.504  0.00  0.00    +0.000 C 
ENDROOT
BRANCH  17  23
ATOM     23  O   UNL     1       1.888   1.554   6.360  0.00  0.00    +0.000 OA
ATOM     24  H   UNL     1       2.646   1.696   6.958  0.00  0.00    +0.000 HD
ENDBRANCH  17  23
BRANCH   9  25
ATOM     25  O   UNL     1       2.303  -3.288   8.177  0.00  0.00    +0.000 OA
ATOM     26  H   UNL     1       2.704  -3.426   9.054  0.00  0.00    +0.000 HD
ENDBRANCH   9  25
BRANCH   8  27
ATOM     27  O   UNL     1      -1.864  -1.716   3.228  0.00  0.00    +0.000 OA
ATOM     28  H   UNL     1      -2.339  -1.037   2.717  0.00  0.00    +0.000 HD
ENDBRANCH   8  27
BRANCH  18  29
ATOM     29  O   UNL     1       2.347  -0.843   1.045  0.00  0.00    +0.000 OA
BRANCH  29  31
ATOM     30  O   UNL     1       2.153  -2.614  -0.343  0.00  0.00    +0.000 OA
ATOM     31  C   UNL     1       2.203  -1.399  -0.184  0.00  0.00    +0.000 C 
BRANCH  31  32
ATOM     32  C   UNL     1       2.274  -0.415  -1.357  0.00  0.00    +0.000 C 
BRANCH  32  33
ATOM     33  O   UNL     1       2.616   0.932  -1.011  0.00  0.00    +0.000 OA
ATOM     34  H   UNL     1       3.464   0.880  -0.531  0.00  0.00    +0.000 HD
ENDBRANCH  32  33
BRANCH  32  35
ATOM     35  C   UNL     1       0.932  -0.480  -2.134  0.00  0.00    +0.000 C 
BRANCH  35  36
ATOM     36  C   UNL     1       1.111  -0.272  -3.634  0.00  0.00    +0.000 A 
ATOM     37  C   UNL     1       0.530  -1.180  -4.534  0.00  0.00    +0.000 A 
ATOM     38  C   UNL     1       1.813   0.829  -4.153  0.00  0.00    +0.000 A 
ATOM     39  C   UNL     1       0.669  -1.007  -5.913  0.00  0.00    +0.000 A 
ATOM     40  C   UNL     1       1.951   0.999  -5.532  0.00  0.00    +0.000 A 
ATOM     41  C   UNL     1       1.382   0.080  -6.411  0.00  0.00    +0.000 A 
ENDBRANCH  35  36
BRANCH  35  43
ATOM     42  O   UNL     1      -1.889  -0.814  -1.700  0.00  0.00    +0.000 OA
ATOM     43  N   UNL     1      -0.021   0.502  -1.635  0.00  0.00    +0.000 N 
ATOM     44  C   UNL     1      -1.357   0.275  -1.566  0.00  0.00    +0.000 C 
ATOM     45  H   UNL     1       0.269   1.471  -1.623  0.00  0.00    +0.000 HD
BRANCH  44  46
ATOM     46  O   UNL     1      -1.980   1.443  -1.300  0.00  0.00    +0.000 OA
BRANCH  46  47
ATOM     47  C   UNL     1      -3.427   1.509  -1.216  0.00  0.00    +0.000 C 
ATOM     48  C   UNL     1      -3.959   0.661  -0.056  0.00  0.00    +0.000 C 
ATOM     49  C   UNL     1      -3.733   2.986  -0.925  0.00  0.00    +0.000 C 
ATOM     50  C   UNL     1      -4.078   1.127  -2.550  0.00  0.00    +0.000 C 
ENDBRANCH  46  47
ENDBRANCH  44  46
ENDBRANCH  35  43
ENDBRANCH  32  35
ENDBRANCH  31  32
ENDBRANCH  29  31
ENDBRANCH  18  29
BRANCH   7  51
ATOM     51  O   UNL     1       1.528  -2.480   3.341  0.00  0.00    +0.000 OA
BRANCH  51  53
ATOM     52  O   UNL     1       2.743  -1.121   4.182  0.00  0.00    +0.000 OA
ATOM     53  C   UNL     1       1.639  -1.610   4.398  0.00  0.00    +0.000 C 
BRANCH  53  54
ATOM     54  C   UNL     1       0.433  -1.569   5.886  0.00  0.00    +0.000 A 
ATOM     55  C   UNL     1      -0.871  -2.231   5.938  0.00  0.00    +0.000 A 
ATOM     56  C   UNL     1       0.671  -1.019   7.183  0.00  0.00    +0.000 A 
ATOM     57  C   UNL     1      -1.747  -2.318   7.050  0.00  0.00    +0.000 A 
ATOM     58  C   UNL     1      -0.196  -1.096   8.312  0.00  0.00    +0.000 A 
ATOM     59  C   UNL     1      -1.405  -1.745   8.248  0.00  0.00    +0.000 A 
ENDBRANCH  53  54
ENDBRANCH  51  53
ENDBRANCH   7  51
BRANCH   4  60
ATOM     60  O   UNL     1       3.050  -5.219   4.083  0.00  0.00    +0.000 OA
BRANCH  60  62
ATOM     61  O   UNL     1       4.073  -6.056   2.278  0.00  0.00    +0.000 OA
ATOM     62  C   UNL     1       3.044  -5.622   2.791  0.00  0.00    +0.000 C 
ATOM     63  C   UNL     1       1.807  -5.421   1.974  0.00  0.00    +0.000 C 
ENDBRANCH  60  62
ENDBRANCH   4  60
TORSDOF 17
