MODEL 1
REMARK VINA RESULT:      -9.2      0.000      0.000
REMARK  Name = 
REMARK  13 active torsions:
REMARK  status: ('A' for Active; 'I' for Inactive)
REMARK    1  A    between atoms: O_1  and  C_13
REMARK    2  A    between atoms: O_1  and  C_19
REMARK    3  A    between atoms: O_3  and  C_14
REMARK    4  A    between atoms: O_4  and  C_22
REMARK    5  A    between atoms: O_5  and  C_24
REMARK    6  A    between atoms: O_6  and  C_26
REMARK    7  A    between atoms: O_8  and  C_30
REMARK    8  A    between atoms: O_11  and  C_35
REMARK    9  A    between atoms: O_11  and  C_39
REMARK   10  A    between atoms: N_12  and  C_21
REMARK   11  A    between atoms: C_14  and  C_25
REMARK   12  A    between atoms: C_23  and  C_29
REMARK   13  A    between atoms: C_25  and  C_30
REMARK                            x       y       z     vdW  Elec       q    Type
REMARK                         _______ _______ _______ _____ _____    ______ ____
ROOT
ATOM      1  O   UNL     1      23.533   1.854 187.372  0.00  0.00    +0.000 OA
ATOM      2  O   UNL     1      19.813   1.533 191.157  0.00  0.00    +0.000 OA
ATOM      3  C   UNL     1      26.058  -0.300 191.282  0.00  0.00    +0.000 C 
ATOM      4  C   UNL     1      25.444  -0.771 193.695  0.00  0.00    +0.000 C 
ATOM      5  C   UNL     1      26.140  -1.302 192.435  0.00  0.00    +0.000 C 
ATOM      6  C   UNL     1      23.962  -0.481 193.415  0.00  0.00    +0.000 C 
ATOM      7  C   UNL     1      24.634   0.152 191.027  0.00  0.00    +0.000 A 
ATOM      8  C   UNL     1      23.661   0.099 192.045  0.00  0.00    +0.000 A 
ATOM      9  C   UNL     1      24.279   0.687 189.774  0.00  0.00    +0.000 A 
ATOM     10  C   UNL     1      22.359   0.556 191.772  0.00  0.00    +0.000 A 
ATOM     11  C   UNL     1      22.976   1.153 189.513  0.00  0.00    +0.000 A 
ATOM     12  C   UNL     1      22.016   1.084 190.516  0.00  0.00    +0.000 A 
ATOM     13  C   UNL     1      22.630   1.724 188.192  0.00  0.00    +0.000 C 
ATOM     14  C   UNL     1      20.646   1.566 190.256  0.00  0.00    +0.000 C 
ATOM     15  C   UNL     1      21.237   2.143 187.903  0.00  0.00    +0.000 A 
ATOM     16  C   UNL     1      20.283   2.072 188.921  0.00  0.00    +0.000 A 
ATOM     17  C   UNL     1      20.842   2.619 186.643  0.00  0.00    +0.000 A 
ATOM     18  C   UNL     1      18.958   2.472 188.688  0.00  0.00    +0.000 A 
ATOM     19  C   UNL     1      19.514   2.992 186.406  0.00  0.00    +0.000 A 
ATOM     20  C   UNL     1      18.575   2.930 187.431  0.00  0.00    +0.000 A 
ENDROOT
BRANCH   4  21
ATOM     21  O   UNL     1      26.095   0.414 194.169  0.00  0.00    +0.000 OA
ATOM     22  H   UNL     1      25.509   0.812 194.847  0.00  0.00    +0.000 HD
ENDBRANCH   4  21
BRANCH   9  23
ATOM     23  O   UNL     1      25.264   0.732 188.816  0.00  0.00    +0.000 OA
ATOM     24  H   UNL     1      25.669  -0.164 188.738  0.00  0.00    +0.000 HD
ENDBRANCH   9  23
BRANCH  10  25
ATOM     25  O   UNL     1      21.445   0.455 192.792  0.00  0.00    +0.000 OA
ATOM     26  H   UNL     1      21.514  -0.440 193.195  0.00  0.00    +0.000 HD
ENDBRANCH  10  25
BRANCH   4  28
ATOM     27  O   UNL     1      24.731  -1.862 195.758  0.00  0.00    +0.000 OA
ATOM     28  C   UNL     1      25.536  -1.817 194.820  0.00  0.00    +0.000 C 
BRANCH  28  29
ATOM     29  C   UNL     1      26.692  -2.812 194.757  0.00  0.00    +0.000 C 
BRANCH  29  30
ATOM     30  O   UNL     1      26.305  -4.087 195.256  0.00  0.00    +0.000 OA
ATOM     31  H   UNL     1      25.438  -3.955 195.692  0.00  0.00    +0.000 HD
ENDBRANCH  29  30
ENDBRANCH  28  29
ENDBRANCH   4  28
BRANCH  17  32
ATOM     32  O   UNL     1      21.697   2.639 185.574  0.00  0.00    +0.000 OA
ATOM     33  C   UNL     1      21.718   3.934 184.970  0.00  0.00    +0.000 C 
ENDBRANCH  17  32
BRANCH   3  34
ATOM     34  O   UNL     1      26.797   0.880 191.642  0.00  0.00    +0.000 OA
BRANCH  34  36
ATOM     35  O   UNL     1      28.916   1.785 192.124  0.00  0.00    +0.000 OA
ATOM     36  C   UNL     1      28.211   0.680 191.565  0.00  0.00    +0.000 C 
ATOM     37  C   UNL     1      28.602   0.422 190.108  0.00  0.00    +0.000 C 
ATOM     38  C   UNL     1      28.455   1.693 189.267  0.00  0.00    +0.000 C 
ATOM     39  C   UNL     1      29.248   2.842 189.924  0.00  0.00    +0.000 C 
ATOM     40  C   UNL     1      28.776   3.003 191.381  0.00  0.00    +0.000 C 
ATOM     41  C   UNL     1      29.558   4.075 192.133  0.00  0.00    +0.000 C 
BRANCH  38  42
ATOM     42  N   UNL     1      28.924   1.463 187.889  0.00  0.00    +0.000 NA
ATOM     43  H   UNL     1      29.567   0.674 187.866  0.00  0.00    +0.000 HD
ATOM     44  H   UNL     1      29.476   2.286 187.622  0.00  0.00    +0.000 HD
ENDBRANCH  38  42
BRANCH  39  45
ATOM     45  O   UNL     1      30.649   2.522 189.851  0.00  0.00    +0.000 OA
ATOM     46  H   UNL     1      30.793   1.716 190.374  0.00  0.00    +0.000 HD
ENDBRANCH  39  45
ENDBRANCH  34  36
ENDBRANCH   3  34
TORSDOF 11
ENDMDL
MODEL 2
REMARK VINA RESULT:      -8.6      3.113      4.208
REMARK  Name = 
REMARK  13 active torsions:
REMARK  status: ('A' for Active; 'I' for Inactive)
REMARK    1  A    between atoms: O_1  and  C_13
REMARK    2  A    between atoms: O_1  and  C_19
REMARK    3  A    between atoms: O_3  and  C_14
REMARK    4  A    between atoms: O_4  and  C_22
REMARK    5  A    between atoms: O_5  and  C_24
REMARK    6  A    between atoms: O_6  and  C_26
REMARK    7  A    between atoms: O_8  and  C_30
REMARK    8  A    between atoms: O_11  and  C_35
REMARK    9  A    between atoms: O_11  and  C_39
REMARK   10  A    between atoms: N_12  and  C_21
REMARK   11  A    between atoms: C_14  and  C_25
REMARK   12  A    between atoms: C_23  and  C_29
REMARK   13  A    between atoms: C_25  and  C_30
REMARK                            x       y       z     vdW  Elec       q    Type
REMARK                         _______ _______ _______ _____ _____    ______ ____
ROOT
ATOM      1  O   UNL     1      23.275   1.751 188.898  0.00  0.00    +0.000 OA
ATOM      2  O   UNL     1      18.112   1.787 190.170  0.00  0.00    +0.000 OA
ATOM      3  C   UNL     1      23.221  -0.436 193.537  0.00  0.00    +0.000 C 
ATOM      4  C   UNL     1      21.403  -0.791 195.267  0.00  0.00    +0.000 C 
ATOM      5  C   UNL     1      22.616  -1.405 194.555  0.00  0.00    +0.000 C 
ATOM      6  C   UNL     1      20.312  -0.416 194.254  0.00  0.00    +0.000 C 
ATOM      7  C   UNL     1      22.177   0.098 192.577  0.00  0.00    +0.000 A 
ATOM      8  C   UNL     1      20.815   0.139 192.933  0.00  0.00    +0.000 A 
ATOM      9  C   UNL     1      22.568   0.614 191.327  0.00  0.00    +0.000 A 
ATOM     10  C   UNL     1      19.884   0.669 192.021  0.00  0.00    +0.000 A 
ATOM     11  C   UNL     1      21.631   1.154 190.425  0.00  0.00    +0.000 A 
ATOM     12  C   UNL     1      20.287   1.178 190.775  0.00  0.00    +0.000 A 
ATOM     13  C   UNL     1      22.069   1.705 189.123  0.00  0.00    +0.000 C 
ATOM     14  C   UNL     1      19.294   1.738 189.839  0.00  0.00    +0.000 C 
ATOM     15  C   UNL     1      21.067   2.201 188.149  0.00  0.00    +0.000 A 
ATOM     16  C   UNL     1      19.720   2.224 188.515  0.00  0.00    +0.000 A 
ATOM     17  C   UNL     1      21.425   2.662 186.872  0.00  0.00    +0.000 A 
ATOM     18  C   UNL     1      18.744   2.700 187.625  0.00  0.00    +0.000 A 
ATOM     19  C   UNL     1      20.448   3.112 185.976  0.00  0.00    +0.000 A 
ATOM     20  C   UNL     1      19.109   3.141 186.356  0.00  0.00    +0.000 A 
ENDROOT
BRANCH   4  21
ATOM     21  O   UNL     1      21.792   0.364 196.020  0.00  0.00    +0.000 OA
ATOM     22  H   UNL     1      22.218   0.042 196.843  0.00  0.00    +0.000 HD
ENDBRANCH   4  21
BRANCH   9  23
ATOM     23  O   UNL     1      23.909   0.566 191.027  0.00  0.00    +0.000 OA
ATOM     24  H   UNL     1      24.195   1.456 190.713  0.00  0.00    +0.000 HD
ENDBRANCH   9  23
BRANCH  10  25
ATOM     25  O   UNL     1      18.566   0.659 192.410  0.00  0.00    +0.000 OA
ATOM     26  H   UNL     1      18.120   1.455 192.043  0.00  0.00    +0.000 HD
ENDBRANCH  10  25
BRANCH   4  28
ATOM     27  O   UNL     1      20.395  -2.914 195.923  0.00  0.00    +0.000 OA
ATOM     28  C   UNL     1      20.818  -1.804 196.266  0.00  0.00    +0.000 C 
BRANCH  28  29
ATOM     29  C   UNL     1      20.753  -1.382 197.732  0.00  0.00    +0.000 C 
BRANCH  29  30
ATOM     30  O   UNL     1      19.726  -0.421 197.948  0.00  0.00    +0.000 OA
ATOM     31  H   UNL     1      19.295  -0.670 198.791  0.00  0.00    +0.000 HD
ENDBRANCH  29  30
ENDBRANCH  28  29
ENDBRANCH   4  28
BRANCH  17  32
ATOM     32  O   UNL     1      22.712   2.594 186.409  0.00  0.00    +0.000 OA
ATOM     33  C   UNL     1      23.258   3.904 186.244  0.00  0.00    +0.000 C 
ENDBRANCH  17  32
BRANCH   3  34
ATOM     34  O   UNL     1      23.743   0.705 194.239  0.00  0.00    +0.000 OA
BRANCH  34  36
ATOM     35  O   UNL     1      25.475   0.462 195.816  0.00  0.00    +0.000 OA
ATOM     36  C   UNL     1      25.157   0.621 194.435  0.00  0.00    +0.000 C 
ATOM     37  C   UNL     1      25.821   1.859 193.828  0.00  0.00    +0.000 C 
ATOM     38  C   UNL     1      25.502   3.111 194.649  0.00  0.00    +0.000 C 
ATOM     39  C   UNL     1      25.877   2.872 196.125  0.00  0.00    +0.000 C 
ATOM     40  C   UNL     1      25.159   1.603 196.623  0.00  0.00    +0.000 C 
ATOM     41  C   UNL     1      25.529   1.248 198.059  0.00  0.00    +0.000 C 
BRANCH  38  42
ATOM     42  N   UNL     1      26.222   4.282 194.116  0.00  0.00    +0.000 NA
ATOM     43  H   UNL     1      27.219   4.190 194.298  0.00  0.00    +0.000 HD
ATOM     44  H   UNL     1      25.908   5.095 194.657  0.00  0.00    +0.000 HD
ENDBRANCH  38  42
BRANCH  39  45
ATOM     45  O   UNL     1      27.308   2.741 196.212  0.00  0.00    +0.000 OA
ATOM     46  H   UNL     1      27.504   1.814 196.424  0.00  0.00    +0.000 HD
ENDBRANCH  39  45
ENDBRANCH  34  36
ENDBRANCH   3  34
TORSDOF 11
ENDMDL
MODEL 3
REMARK VINA RESULT:      -8.5      3.661      7.860
REMARK  Name = 
REMARK  13 active torsions:
REMARK  status: ('A' for Active; 'I' for Inactive)
REMARK    1  A    between atoms: O_1  and  C_13
REMARK    2  A    between atoms: O_1  and  C_19
REMARK    3  A    between atoms: O_3  and  C_14
REMARK    4  A    between atoms: O_4  and  C_22
REMARK    5  A    between atoms: O_5  and  C_24
REMARK    6  A    between atoms: O_6  and  C_26
REMARK    7  A    between atoms: O_8  and  C_30
REMARK    8  A    between atoms: O_11  and  C_35
REMARK    9  A    between atoms: O_11  and  C_39
REMARK   10  A    between atoms: N_12  and  C_21
REMARK   11  A    between atoms: C_14  and  C_25
REMARK   12  A    between atoms: C_23  and  C_29
REMARK   13  A    between atoms: C_25  and  C_30
REMARK                            x       y       z     vdW  Elec       q    Type
REMARK                         _______ _______ _______ _____ _____    ______ ____
ROOT
ATOM      1  O   UNL     1      22.623   1.208 196.159  0.00  0.00    +0.000 OA
ATOM      2  O   UNL     1      17.830  -0.563 194.691  0.00  0.00    +0.000 OA
ATOM      3  C   UNL     1      22.058   3.187 191.461  0.00  0.00    +0.000 C 
ATOM      4  C   UNL     1      20.307   2.892 189.653  0.00  0.00    +0.000 C 
ATOM      5  C   UNL     1      21.214   3.885 190.393  0.00  0.00    +0.000 C 
ATOM      6  C   UNL     1      19.357   2.190 190.633  0.00  0.00    +0.000 C 
ATOM      7  C   UNL     1      21.208   2.350 192.395  0.00  0.00    +0.000 A 
ATOM      8  C   UNL     1      19.955   1.852 191.988  0.00  0.00    +0.000 A 
ATOM      9  C   UNL     1      21.691   2.010 193.673  0.00  0.00    +0.000 A 
ATOM     10  C   UNL     1      19.212   1.055 192.878  0.00  0.00    +0.000 A 
ATOM     11  C   UNL     1      20.947   1.202 194.553  0.00  0.00    +0.000 A 
ATOM     12  C   UNL     1      19.704   0.726 194.152  0.00  0.00    +0.000 A 
ATOM     13  C   UNL     1      21.482   0.847 195.887  0.00  0.00    +0.000 C 
ATOM     14  C   UNL     1      18.911  -0.119 195.065  0.00  0.00    +0.000 C 
ATOM     15  C   UNL     1      20.659   0.059 196.835  0.00  0.00    +0.000 A 
ATOM     16  C   UNL     1      19.414  -0.417 196.418  0.00  0.00    +0.000 A 
ATOM     17  C   UNL     1      21.090  -0.238 198.137  0.00  0.00    +0.000 A 
ATOM     18  C   UNL     1      18.612  -1.178 197.283  0.00  0.00    +0.000 A 
ATOM     19  C   UNL     1      20.278  -0.975 199.007  0.00  0.00    +0.000 A 
ATOM     20  C   UNL     1      19.044  -1.455 198.577  0.00  0.00    +0.000 A 
ENDROOT
BRANCH   4  21
ATOM     21  O   UNL     1      21.092   1.922 188.949  0.00  0.00    +0.000 OA
ATOM     22  H   UNL     1      21.362   2.331 188.100  0.00  0.00    +0.000 HD
ENDBRANCH   4  21
BRANCH   9  23
ATOM     23  O   UNL     1      22.925   2.507 194.023  0.00  0.00    +0.000 OA
ATOM     24  H   UNL     1      23.600   2.140 193.405  0.00  0.00    +0.000 HD
ENDBRANCH   9  23
BRANCH  10  25
ATOM     25  O   UNL     1      17.985   0.620 192.438  0.00  0.00    +0.000 OA
ATOM     26  H   UNL     1      18.115  -0.164 191.857  0.00  0.00    +0.000 HD
ENDBRANCH  10  25
BRANCH   4  28
ATOM     27  O   UNL     1      19.367   4.871 188.578  0.00  0.00    +0.000 OA
ATOM     28  C   UNL     1      19.465   3.639 188.604  0.00  0.00    +0.000 C 
BRANCH  28  29
ATOM     29  C   UNL     1      18.716   2.791 187.578  0.00  0.00    +0.000 C 
BRANCH  29  30
ATOM     30  O   UNL     1      19.595   2.299 186.573  0.00  0.00    +0.000 OA
ATOM     31  H   UNL     1      20.385   1.963 187.043  0.00  0.00    +0.000 HD
ENDBRANCH  29  30
ENDBRANCH  28  29
ENDBRANCH   4  28
BRANCH  17  32
ATOM     32  O   UNL     1      22.258   0.261 198.647  0.00  0.00    +0.000 OA
ATOM     33  C   UNL     1      23.108  -0.799 199.091  0.00  0.00    +0.000 C 
ENDBRANCH  17  32
BRANCH   3  34
ATOM     34  O   UNL     1      22.961   2.276 190.812  0.00  0.00    +0.000 OA
BRANCH  34  36
ATOM     35  O   UNL     1      24.647   3.824 190.259  0.00  0.00    +0.000 OA
ATOM     36  C   UNL     1      24.331   2.646 190.996  0.00  0.00    +0.000 C 
ATOM     37  C   UNL     1      25.225   1.465 190.609  0.00  0.00    +0.000 C 
ATOM     38  C   UNL     1      25.201   1.232 189.097  0.00  0.00    +0.000 C 
ATOM     39  C   UNL     1      25.559   2.541 188.365  0.00  0.00    +0.000 C 
ATOM     40  C   UNL     1      24.603   3.653 188.837  0.00  0.00    +0.000 C 
ATOM     41  C   UNL     1      24.930   5.007 188.216  0.00  0.00    +0.000 C 
BRANCH  38  42
ATOM     42  N   UNL     1      26.138   0.157 188.720  0.00  0.00    +0.000 NA
ATOM     43  H   UNL     1      26.416   0.263 187.747  0.00  0.00    +0.000 HD
ATOM     44  H   UNL     1      25.615  -0.724 188.772  0.00  0.00    +0.000 HD
ENDBRANCH  38  42
BRANCH  39  45
ATOM     45  O   UNL     1      26.932   2.861 188.659  0.00  0.00    +0.000 OA
ATOM     46  H   UNL     1      27.402   2.936 187.812  0.00  0.00    +0.000 HD
ENDBRANCH  39  45
ENDBRANCH  34  36
ENDBRANCH   3  34
TORSDOF 11
ENDMDL
MODEL 4
REMARK VINA RESULT:      -8.2      2.807      9.066
REMARK  Name = 
REMARK  13 active torsions:
REMARK  status: ('A' for Active; 'I' for Inactive)
REMARK    1  A    between atoms: O_1  and  C_13
REMARK    2  A    between atoms: O_1  and  C_19
REMARK    3  A    between atoms: O_3  and  C_14
REMARK    4  A    between atoms: O_4  and  C_22
REMARK    5  A    between atoms: O_5  and  C_24
REMARK    6  A    between atoms: O_6  and  C_26
REMARK    7  A    between atoms: O_8  and  C_30
REMARK    8  A    between atoms: O_11  and  C_35
REMARK    9  A    between atoms: O_11  and  C_39
REMARK   10  A    between atoms: N_12  and  C_21
REMARK   11  A    between atoms: C_14  and  C_25
REMARK   12  A    between atoms: C_23  and  C_29
REMARK   13  A    between atoms: C_25  and  C_30
REMARK                            x       y       z     vdW  Elec       q    Type
REMARK                         _______ _______ _______ _____ _____    ______ ____
ROOT
ATOM      1  O   UNL     1      25.584  -1.603 192.281  0.00  0.00    +0.000 OA
ATOM      2  O   UNL     1      28.894   2.546 192.599  0.00  0.00    +0.000 OA
ATOM      3  C   UNL     1      23.667   1.663 188.821  0.00  0.00    +0.000 C 
ATOM      4  C   UNL     1      24.223   4.055 188.198  0.00  0.00    +0.000 C 
ATOM      5  C   UNL     1      23.847   2.662 187.677  0.00  0.00    +0.000 C 
ATOM      6  C   UNL     1      25.532   4.000 189.000  0.00  0.00    +0.000 C 
ATOM      7  C   UNL     1      24.864   1.646 189.750  0.00  0.00    +0.000 A 
ATOM      8  C   UNL     1      25.717   2.762 189.858  0.00  0.00    +0.000 A 
ATOM      9  C   UNL     1      25.106   0.524 190.565  0.00  0.00    +0.000 A 
ATOM     10  C   UNL     1      26.799   2.712 190.754  0.00  0.00    +0.000 A 
ATOM     11  C   UNL     1      26.186   0.487 191.469  0.00  0.00    +0.000 A 
ATOM     12  C   UNL     1      27.034   1.585 191.559  0.00  0.00    +0.000 A 
ATOM     13  C   UNL     1      26.413  -0.699 192.325  0.00  0.00    +0.000 C 
ATOM     14  C   UNL     1      28.170   1.559 192.499  0.00  0.00    +0.000 C 
ATOM     15  C   UNL     1      27.595  -0.758 193.218  0.00  0.00    +0.000 A 
ATOM     16  C   UNL     1      28.436   0.353 193.303  0.00  0.00    +0.000 A 
ATOM     17  C   UNL     1      27.896  -1.889 193.992  0.00  0.00    +0.000 A 
ATOM     18  C   UNL     1      29.558   0.339 194.148  0.00  0.00    +0.000 A 
ATOM     19  C   UNL     1      29.029  -1.911 194.814  0.00  0.00    +0.000 A 
ATOM     20  C   UNL     1      29.853  -0.793 194.900  0.00  0.00    +0.000 A 
ENDROOT
BRANCH   4  21
ATOM     21  O   UNL     1      23.171   4.589 189.012  0.00  0.00    +0.000 OA
ATOM     22  H   UNL     1      23.541   5.360 189.492  0.00  0.00    +0.000 HD
ENDBRANCH   4  21
BRANCH   9  23
ATOM     23  O   UNL     1      24.241  -0.537 190.437  0.00  0.00    +0.000 OA
ATOM     24  H   UNL     1      23.317  -0.191 190.426  0.00  0.00    +0.000 HD
ENDBRANCH   9  23
BRANCH  10  25
ATOM     25  O   UNL     1      27.614   3.818 190.798  0.00  0.00    +0.000 OA
ATOM     26  H   UNL     1      28.000   3.893 191.700  0.00  0.00    +0.000 HD
ENDBRANCH  10  25
BRANCH   4  28
ATOM     27  O   UNL     1      25.269   5.912 187.010  0.00  0.00    +0.000 OA
ATOM     28  C   UNL     1      24.412   5.021 187.016  0.00  0.00    +0.000 C 
BRANCH  28  29
ATOM     29  C   UNL     1      23.471   4.858 185.824  0.00  0.00    +0.000 C 
BRANCH  29  30
ATOM     30  O   UNL     1      24.001   5.479 184.659  0.00  0.00    +0.000 OA
ATOM     31  H   UNL     1      23.424   6.249 184.475  0.00  0.00    +0.000 HD
ENDBRANCH  29  30
ENDBRANCH  28  29
ENDBRANCH   4  28
BRANCH  17  32
ATOM     32  O   UNL     1      27.169  -3.046 193.901  0.00  0.00    +0.000 OA
ATOM     33  C   UNL     1      26.811  -3.520 195.201  0.00  0.00    +0.000 C 
ENDBRANCH  17  32
BRANCH   3  34
ATOM     34  O   UNL     1      22.543   2.073 189.619  0.00  0.00    +0.000 OA
BRANCH  34  36
ATOM     35  O   UNL     1      20.451   1.897 188.553  0.00  0.00    +0.000 OA
ATOM     36  C   UNL     1      21.394   1.249 189.404  0.00  0.00    +0.000 C 
ATOM     37  C   UNL     1      20.787   0.871 190.757  0.00  0.00    +0.000 C 
ATOM     38  C   UNL     1      20.137   2.085 191.425  0.00  0.00    +0.000 C 
ATOM     39  C   UNL     1      19.125   2.729 190.455  0.00  0.00    +0.000 C 
ATOM     40  C   UNL     1      19.843   3.059 189.133  0.00  0.00    +0.000 C 
ATOM     41  C   UNL     1      18.900   3.637 188.083  0.00  0.00    +0.000 C 
BRANCH  38  42
ATOM     42  N   UNL     1      19.471   1.694 192.681  0.00  0.00    +0.000 NA
ATOM     43  H   UNL     1      19.548   0.688 192.817  0.00  0.00    +0.000 HD
ATOM     44  H   UNL     1      18.471   1.889 192.560  0.00  0.00    +0.000 HD
ENDBRANCH  38  42
BRANCH  39  45
ATOM     45  O   UNL     1      18.041   1.804 190.254  0.00  0.00    +0.000 OA
ATOM     46  H   UNL     1      17.424   1.911 190.997  0.00  0.00    +0.000 HD
ENDBRANCH  39  45
ENDBRANCH  34  36
ENDBRANCH   3  34
TORSDOF 11
ENDMDL
MODEL 5
REMARK VINA RESULT:      -8.0      2.327      5.338
REMARK  Name = 
REMARK  13 active torsions:
REMARK  status: ('A' for Active; 'I' for Inactive)
REMARK    1  A    between atoms: O_1  and  C_13
REMARK    2  A    between atoms: O_1  and  C_19
REMARK    3  A    between atoms: O_3  and  C_14
REMARK    4  A    between atoms: O_4  and  C_22
REMARK    5  A    between atoms: O_5  and  C_24
REMARK    6  A    between atoms: O_6  and  C_26
REMARK    7  A    between atoms: O_8  and  C_30
REMARK    8  A    between atoms: O_11  and  C_35
REMARK    9  A    between atoms: O_11  and  C_39
REMARK   10  A    between atoms: N_12  and  C_21
REMARK   11  A    between atoms: C_14  and  C_25
REMARK   12  A    between atoms: C_23  and  C_29
REMARK   13  A    between atoms: C_25  and  C_30
REMARK                            x       y       z     vdW  Elec       q    Type
REMARK                         _______ _______ _______ _____ _____    ______ ____
ROOT
ATOM      1  O   UNL     1      20.908   2.174 191.391  0.00  0.00    +0.000 OA
ATOM      2  O   UNL     1      23.472   3.237 186.857  0.00  0.00    +0.000 OA
ATOM      3  C   UNL     1      25.789   2.609 192.908  0.00  0.00    +0.000 C 
ATOM      4  C   UNL     1      27.976   2.886 191.658  0.00  0.00    +0.000 C 
ATOM      5  C   UNL     1      27.145   3.316 192.874  0.00  0.00    +0.000 C 
ATOM      6  C   UNL     1      27.234   3.208 190.353  0.00  0.00    +0.000 C 
ATOM      7  C   UNL     1      25.042   2.756 191.597  0.00  0.00    +0.000 A 
ATOM      8  C   UNL     1      25.730   3.001 190.392  0.00  0.00    +0.000 A 
ATOM      9  C   UNL     1      23.645   2.593 191.560  0.00  0.00    +0.000 A 
ATOM     10  C   UNL     1      24.999   3.103 189.195  0.00  0.00    +0.000 A 
ATOM     11  C   UNL     1      22.922   2.684 190.355  0.00  0.00    +0.000 A 
ATOM     12  C   UNL     1      23.604   2.942 189.172  0.00  0.00    +0.000 A 
ATOM     13  C   UNL     1      21.454   2.495 190.340  0.00  0.00    +0.000 C 
ATOM     14  C   UNL     1      22.859   3.043 187.902  0.00  0.00    +0.000 C 
ATOM     15  C   UNL     1      20.694   2.668 189.079  0.00  0.00    +0.000 A 
ATOM     16  C   UNL     1      21.391   2.922 187.896  0.00  0.00    +0.000 A 
ATOM     17  C   UNL     1      19.294   2.574 189.027  0.00  0.00    +0.000 A 
ATOM     18  C   UNL     1      20.706   3.078 186.681  0.00  0.00    +0.000 A 
ATOM     19  C   UNL     1      18.611   2.756 187.819  0.00  0.00    +0.000 A 
ATOM     20  C   UNL     1      19.317   2.997 186.644  0.00  0.00    +0.000 A 
ENDROOT
BRANCH   4  21
ATOM     21  O   UNL     1      28.274   1.486 191.721  0.00  0.00    +0.000 OA
ATOM     22  H   UNL     1      29.250   1.398 191.682  0.00  0.00    +0.000 HD
ENDBRANCH   4  21
BRANCH   9  23
ATOM     23  O   UNL     1      23.017   2.342 192.757  0.00  0.00    +0.000 OA
ATOM     24  H   UNL     1      23.438   1.554 193.176  0.00  0.00    +0.000 HD
ENDBRANCH   9  23
BRANCH  10  25
ATOM     25  O   UNL     1      25.718   3.370 188.055  0.00  0.00    +0.000 OA
ATOM     26  H   UNL     1      25.930   2.520 187.606  0.00  0.00    +0.000 HD
ENDBRANCH  10  25
BRANCH   4  28
ATOM     27  O   UNL     1      29.746   4.249 192.640  0.00  0.00    +0.000 OA
ATOM     28  C   UNL     1      29.320   3.634 191.656  0.00  0.00    +0.000 C 
BRANCH  28  29
ATOM     29  C   UNL     1      30.128   3.614 190.360  0.00  0.00    +0.000 C 
BRANCH  29  30
ATOM     30  O   UNL     1      30.656   2.319 190.100  0.00  0.00    +0.000 OA
ATOM     31  H   UNL     1      30.540   2.166 189.140  0.00  0.00    +0.000 HD
ENDBRANCH  29  30
ENDBRANCH  28  29
ENDBRANCH   4  28
BRANCH  17  32
ATOM     32  O   UNL     1      18.534   2.411 190.155  0.00  0.00    +0.000 OA
ATOM     33  C   UNL     1      17.690   1.264 190.031  0.00  0.00    +0.000 C 
ENDBRANCH  17  32
BRANCH   3  34
ATOM     34  O   UNL     1      26.008   1.199 193.090  0.00  0.00    +0.000 OA
BRANCH  34  36
ATOM     35  O   UNL     1      27.491   0.024 194.491  0.00  0.00    +0.000 OA
ATOM     36  C   UNL     1      26.346   0.872 194.440  0.00  0.00    +0.000 C 
ATOM     37  C   UNL     1      25.130   0.243 195.124  0.00  0.00    +0.000 C 
ATOM     38  C   UNL     1      24.846  -1.153 194.564  0.00  0.00    +0.000 C 
ATOM     39  C   UNL     1      26.121  -2.016 194.658  0.00  0.00    +0.000 C 
ATOM     40  C   UNL     1      27.274  -1.283 193.945  0.00  0.00    +0.000 C 
ATOM     41  C   UNL     1      28.597  -2.034 194.049  0.00  0.00    +0.000 C 
BRANCH  38  42
ATOM     42  N   UNL     1      23.735  -1.791 195.292  0.00  0.00    +0.000 NA
ATOM     43  H   UNL     1      23.631  -1.366 196.211  0.00  0.00    +0.000 HD
ATOM     44  H   UNL     1      24.010  -2.765 195.460  0.00  0.00    +0.000 HD
ENDBRANCH  38  42
BRANCH  39  45
ATOM     45  O   UNL     1      26.413  -2.239 196.049  0.00  0.00    +0.000 OA
ATOM     46  H   UNL     1      26.463  -1.370 196.481  0.00  0.00    +0.000 HD
ENDBRANCH  39  45
ENDBRANCH  34  36
ENDBRANCH   3  34
TORSDOF 11
ENDMDL
MODEL 6
REMARK VINA RESULT:      -7.9      2.754      8.931
REMARK  Name = 
REMARK  13 active torsions:
REMARK  status: ('A' for Active; 'I' for Inactive)
REMARK    1  A    between atoms: O_1  and  C_13
REMARK    2  A    between atoms: O_1  and  C_19
REMARK    3  A    between atoms: O_3  and  C_14
REMARK    4  A    between atoms: O_4  and  C_22
REMARK    5  A    between atoms: O_5  and  C_24
REMARK    6  A    between atoms: O_6  and  C_26
REMARK    7  A    between atoms: O_8  and  C_30
REMARK    8  A    between atoms: O_11  and  C_35
REMARK    9  A    between atoms: O_11  and  C_39
REMARK   10  A    between atoms: N_12  and  C_21
REMARK   11  A    between atoms: C_14  and  C_25
REMARK   12  A    between atoms: C_23  and  C_29
REMARK   13  A    between atoms: C_25  and  C_30
REMARK                            x       y       z     vdW  Elec       q    Type
REMARK                         _______ _______ _______ _____ _____    ______ ____
ROOT
ATOM      1  O   UNL     1      26.858  -0.686 192.088  0.00  0.00    +0.000 OA
ATOM      2  O   UNL     1      28.569   3.602 189.451  0.00  0.00    +0.000 OA
ATOM      3  C   UNL     1      22.729   0.727 189.394  0.00  0.00    +0.000 C 
ATOM      4  C   UNL     1      22.213   2.732 187.933  0.00  0.00    +0.000 C 
ATOM      5  C   UNL     1      22.075   1.213 188.099  0.00  0.00    +0.000 C 
ATOM      6  C   UNL     1      23.693   3.143 187.908  0.00  0.00    +0.000 C 
ATOM      7  C   UNL     1      24.160   1.210 189.520  0.00  0.00    +0.000 A 
ATOM      8  C   UNL     1      24.598   2.368 188.848  0.00  0.00    +0.000 A 
ATOM      9  C   UNL     1      25.060   0.532 190.363  0.00  0.00    +0.000 A 
ATOM     10  C   UNL     1      25.928   2.796 189.017  0.00  0.00    +0.000 A 
ATOM     11  C   UNL     1      26.387   0.973 190.535  0.00  0.00    +0.000 A 
ATOM     12  C   UNL     1      26.818   2.107 189.857  0.00  0.00    +0.000 A 
ATOM     13  C   UNL     1      27.311   0.251 191.437  0.00  0.00    +0.000 C 
ATOM     14  C   UNL     1      28.205   2.580 190.026  0.00  0.00    +0.000 C 
ATOM     15  C   UNL     1      28.725   0.680 191.553  0.00  0.00    +0.000 A 
ATOM     16  C   UNL     1      29.146   1.823 190.871  0.00  0.00    +0.000 A 
ATOM     17  C   UNL     1      29.660  -0.017 192.335  0.00  0.00    +0.000 A 
ATOM     18  C   UNL     1      30.474   2.267 190.967  0.00  0.00    +0.000 A 
ATOM     19  C   UNL     1      30.990   0.412 192.410  0.00  0.00    +0.000 A 
ATOM     20  C   UNL     1      31.394   1.560 191.735  0.00  0.00    +0.000 A 
ENDROOT
BRANCH   4  21
ATOM     21  O   UNL     1      21.531   3.419 188.989  0.00  0.00    +0.000 OA
ATOM     22  H   UNL     1      22.197   3.615 189.682  0.00  0.00    +0.000 HD
ENDBRANCH   4  21
BRANCH   9  23
ATOM     23  O   UNL     1      24.586  -0.585 191.009  0.00  0.00    +0.000 OA
ATOM     24  H   UNL     1      23.980  -1.069 190.399  0.00  0.00    +0.000 HD
ENDBRANCH   9  23
BRANCH  10  25
ATOM     25  O   UNL     1      26.308   3.915 188.316  0.00  0.00    +0.000 OA
ATOM     26  H   UNL     1      27.112   4.296 188.737  0.00  0.00    +0.000 HD
ENDBRANCH  10  25
BRANCH   4  28
ATOM     27  O   UNL     1      22.059   2.936 185.506  0.00  0.00    +0.000 OA
ATOM     28  C   UNL     1      21.559   3.173 186.612  0.00  0.00    +0.000 C 
BRANCH  28  29
ATOM     29  C   UNL     1      20.249   3.951 186.706  0.00  0.00    +0.000 C 
BRANCH  29  30
ATOM     30  O   UNL     1      19.181   3.115 187.136  0.00  0.00    +0.000 OA
ATOM     31  H   UNL     1      18.843   3.512 187.965  0.00  0.00    +0.000 HD
ENDBRANCH  29  30
ENDBRANCH  28  29
ENDBRANCH   4  28
BRANCH  17  32
ATOM     32  O   UNL     1      29.347  -1.192 192.966  0.00  0.00    +0.000 OA
ATOM     33  C   UNL     1      29.603  -1.094 194.369  0.00  0.00    +0.000 C 
ENDBRANCH  17  32
BRANCH   3  34
ATOM     34  O   UNL     1      22.015   1.287 190.510  0.00  0.00    +0.000 OA
BRANCH  34  36
ATOM     35  O   UNL     1      19.885   0.379 190.939  0.00  0.00    +0.000 OA
ATOM     36  C   UNL     1      21.278   0.299 191.234  0.00  0.00    +0.000 C 
ATOM     37  C   UNL     1      21.562   0.458 192.730  0.00  0.00    +0.000 C 
ATOM     38  C   UNL     1      20.922   1.736 193.277  0.00  0.00    +0.000 C 
ATOM     39  C   UNL     1      19.420   1.752 192.930  0.00  0.00    +0.000 C 
ATOM     40  C   UNL     1      19.258   1.579 191.407  0.00  0.00    +0.000 C 
ATOM     41  C   UNL     1      17.796   1.512 190.979  0.00  0.00    +0.000 C 
BRANCH  38  42
ATOM     42  N   UNL     1      21.117   1.834 194.735  0.00  0.00    +0.000 NA
ATOM     43  H   UNL     1      20.265   2.170 195.178  0.00  0.00    +0.000 HD
ATOM     44  H   UNL     1      21.824   2.560 194.892  0.00  0.00    +0.000 HD
ENDBRANCH  38  42
BRANCH  39  45
ATOM     45  O   UNL     1      18.777   0.689 193.657  0.00  0.00    +0.000 OA
ATOM     46  H   UNL     1      18.896  -0.129 193.145  0.00  0.00    +0.000 HD
ENDBRANCH  39  45
ENDBRANCH  34  36
ENDBRANCH   3  34
TORSDOF 11
ENDMDL
MODEL 7
REMARK VINA RESULT:      -7.7      3.105      8.832
REMARK  Name = 
REMARK  13 active torsions:
REMARK  status: ('A' for Active; 'I' for Inactive)
REMARK    1  A    between atoms: O_1  and  C_13
REMARK    2  A    between atoms: O_1  and  C_19
REMARK    3  A    between atoms: O_3  and  C_14
REMARK    4  A    between atoms: O_4  and  C_22
REMARK    5  A    between atoms: O_5  and  C_24
REMARK    6  A    between atoms: O_6  and  C_26
REMARK    7  A    between atoms: O_8  and  C_30
REMARK    8  A    between atoms: O_11  and  C_35
REMARK    9  A    between atoms: O_11  and  C_39
REMARK   10  A    between atoms: N_12  and  C_21
REMARK   11  A    between atoms: C_14  and  C_25
REMARK   12  A    between atoms: C_23  and  C_29
REMARK   13  A    between atoms: C_25  and  C_30
REMARK                            x       y       z     vdW  Elec       q    Type
REMARK                         _______ _______ _______ _____ _____    ______ ____
ROOT
ATOM      1  O   UNL     1      25.440  -1.285 192.922  0.00  0.00    +0.000 OA
ATOM      2  O   UNL     1      26.786   3.564 191.207  0.00  0.00    +0.000 OA
ATOM      3  C   UNL     1      20.998   0.585 191.167  0.00  0.00    +0.000 C 
ATOM      4  C   UNL     1      20.293   2.861 190.305  0.00  0.00    +0.000 C 
ATOM      5  C   UNL     1      20.184   1.342 190.117  0.00  0.00    +0.000 C 
ATOM      6  C   UNL     1      21.756   3.317 190.201  0.00  0.00    +0.000 C 
ATOM      7  C   UNL     1      22.432   1.073 191.232  0.00  0.00    +0.000 A 
ATOM      8  C   UNL     1      22.776   2.372 190.810  0.00  0.00    +0.000 A 
ATOM      9  C   UNL     1      23.434   0.245 191.771  0.00  0.00    +0.000 A 
ATOM     10  C   UNL     1      24.114   2.794 190.914  0.00  0.00    +0.000 A 
ATOM     11  C   UNL     1      24.769   0.679 191.882  0.00  0.00    +0.000 A 
ATOM     12  C   UNL     1      25.107   1.956 191.450  0.00  0.00    +0.000 A 
ATOM     13  C   UNL     1      25.803  -0.205 192.465  0.00  0.00    +0.000 C 
ATOM     14  C   UNL     1      26.502   2.423 191.558  0.00  0.00    +0.000 C 
ATOM     15  C   UNL     1      27.219   0.233 192.509  0.00  0.00    +0.000 A 
ATOM     16  C   UNL     1      27.544   1.520 192.076  0.00  0.00    +0.000 A 
ATOM     17  C   UNL     1      28.247  -0.598 192.982  0.00  0.00    +0.000 A 
ATOM     18  C   UNL     1      28.872   1.974 192.115  0.00  0.00    +0.000 A 
ATOM     19  C   UNL     1      29.575  -0.153 192.996  0.00  0.00    +0.000 A 
ATOM     20  C   UNL     1      29.885   1.137 192.573  0.00  0.00    +0.000 A 
ENDROOT
BRANCH   4  21
ATOM     21  O   UNL     1      19.746   3.252 191.570  0.00  0.00    +0.000 OA
ATOM     22  H   UNL     1      19.218   2.495 191.902  0.00  0.00    +0.000 HD
ENDBRANCH   4  21
BRANCH   9  23
ATOM     23  O   UNL     1      23.049  -1.009 192.182  0.00  0.00    +0.000 OA
ATOM     24  H   UNL     1      22.374  -1.355 191.552  0.00  0.00    +0.000 HD
ENDBRANCH   9  23
BRANCH  10  25
ATOM     25  O   UNL     1      24.398   4.060 190.463  0.00  0.00    +0.000 OA
ATOM     26  H   UNL     1      23.787   4.697 190.897  0.00  0.00    +0.000 HD
ENDBRANCH  10  25
BRANCH   4  28
ATOM     27  O   UNL     1      19.518   4.805 189.051  0.00  0.00    +0.000 OA
ATOM     28  C   UNL     1      19.476   3.581 189.218  0.00  0.00    +0.000 C 
BRANCH  28  29
ATOM     29  C   UNL     1      18.571   2.720 188.340  0.00  0.00    +0.000 C 
BRANCH  29  30
ATOM     30  O   UNL     1      18.840   2.929 186.958  0.00  0.00    +0.000 OA
ATOM     31  H   UNL     1      17.992   2.782 186.492  0.00  0.00    +0.000 HD
ENDBRANCH  29  30
ENDBRANCH  28  29
ENDBRANCH   4  28
BRANCH  17  32
ATOM     32  O   UNL     1      28.022  -1.899 193.345  0.00  0.00    +0.000 OA
ATOM     33  C   UNL     1      28.488  -2.139 194.674  0.00  0.00    +0.000 C 
ENDBRANCH  17  32
BRANCH   3  34
ATOM     34  O   UNL     1      20.428   0.838 192.463  0.00  0.00    +0.000 OA
BRANCH  34  36
ATOM     35  O   UNL     1      18.668   0.258 193.916  0.00  0.00    +0.000 OA
ATOM     36  C   UNL     1      19.525  -0.194 192.870  0.00  0.00    +0.000 C 
ATOM     37  C   UNL     1      20.328  -1.432 193.274  0.00  0.00    +0.000 C 
ATOM     38  C   UNL     1      21.083  -1.193 194.584  0.00  0.00    +0.000 C 
ATOM     39  C   UNL     1      20.097  -0.716 195.670  0.00  0.00    +0.000 C 
ATOM     40  C   UNL     1      19.345   0.524 195.151  0.00  0.00    +0.000 C 
ATOM     41  C   UNL     1      18.293   1.025 196.135  0.00  0.00    +0.000 C 
BRANCH  38  42
ATOM     42  N   UNL     1      21.776  -2.420 195.018  0.00  0.00    +0.000 NA
ATOM     43  H   UNL     1      21.130  -3.207 195.007  0.00  0.00    +0.000 HD
ATOM     44  H   UNL     1      22.037  -2.281 196.000  0.00  0.00    +0.000 HD
ENDBRANCH  38  42
BRANCH  39  45
ATOM     45  O   UNL     1      19.195  -1.798 195.967  0.00  0.00    +0.000 OA
ATOM     46  H   UNL     1      18.619  -1.920 195.194  0.00  0.00    +0.000 HD
ENDBRANCH  39  45
ENDBRANCH  34  36
ENDBRANCH   3  34
TORSDOF 11
ENDMDL
MODEL 8
REMARK VINA RESULT:      -7.6      3.250      6.998
REMARK  Name = 
REMARK  13 active torsions:
REMARK  status: ('A' for Active; 'I' for Inactive)
REMARK    1  A    between atoms: O_1  and  C_13
REMARK    2  A    between atoms: O_1  and  C_19
REMARK    3  A    between atoms: O_3  and  C_14
REMARK    4  A    between atoms: O_4  and  C_22
REMARK    5  A    between atoms: O_5  and  C_24
REMARK    6  A    between atoms: O_6  and  C_26
REMARK    7  A    between atoms: O_8  and  C_30
REMARK    8  A    between atoms: O_11  and  C_35
REMARK    9  A    between atoms: O_11  and  C_39
REMARK   10  A    between atoms: N_12  and  C_21
REMARK   11  A    between atoms: C_14  and  C_25
REMARK   12  A    between atoms: C_23  and  C_29
REMARK   13  A    between atoms: C_25  and  C_30
REMARK                            x       y       z     vdW  Elec       q    Type
REMARK                         _______ _______ _______ _____ _____    ______ ____
ROOT
ATOM      1  O   UNL     1      22.690   1.334 195.571  0.00  0.00    +0.000 OA
ATOM      2  O   UNL     1      18.325   0.837 192.576  0.00  0.00    +0.000 OA
ATOM      3  C   UNL     1      24.074   3.537 191.151  0.00  0.00    +0.000 C 
ATOM      4  C   UNL     1      22.955   3.736 188.886  0.00  0.00    +0.000 C 
ATOM      5  C   UNL     1      23.783   4.453 189.961  0.00  0.00    +0.000 C 
ATOM      6  C   UNL     1      21.615   3.257 189.463  0.00  0.00    +0.000 C 
ATOM      7  C   UNL     1      22.811   2.904 191.699  0.00  0.00    +0.000 A 
ATOM      8  C   UNL     1      21.669   2.741 190.890  0.00  0.00    +0.000 A 
ATOM      9  C   UNL     1      22.783   2.417 193.019  0.00  0.00    +0.000 A 
ATOM     10  C   UNL     1      20.528   2.123 191.432  0.00  0.00    +0.000 A 
ATOM     11  C   UNL     1      21.640   1.789 193.551  0.00  0.00    +0.000 A 
ATOM     12  C   UNL     1      20.511   1.645 192.753  0.00  0.00    +0.000 A 
ATOM     13  C   UNL     1      21.640   1.272 194.938  0.00  0.00    +0.000 C 
ATOM     14  C   UNL     1      19.306   0.991 193.297  0.00  0.00    +0.000 C 
ATOM     15  C   UNL     1      20.408   0.680 195.512  0.00  0.00    +0.000 A 
ATOM     16  C   UNL     1      19.282   0.538 194.699  0.00  0.00    +0.000 A 
ATOM     17  C   UNL     1      20.334   0.246 196.845  0.00  0.00    +0.000 A 
ATOM     18  C   UNL     1      18.102  -0.031 195.204  0.00  0.00    +0.000 A 
ATOM     19  C   UNL     1      19.148  -0.296 197.354  0.00  0.00    +0.000 A 
ATOM     20  C   UNL     1      18.036  -0.445 196.531  0.00  0.00    +0.000 A 
ENDROOT
BRANCH   4  21
ATOM     21  O   UNL     1      23.683   2.625 188.347  0.00  0.00    +0.000 OA
ATOM     22  H   UNL     1      24.493   2.987 187.930  0.00  0.00    +0.000 HD
ENDBRANCH   4  21
BRANCH   9  23
ATOM     23  O   UNL     1      23.924   2.585 193.768  0.00  0.00    +0.000 OA
ATOM     24  H   UNL     1      23.878   3.460 194.222  0.00  0.00    +0.000 HD
ENDBRANCH   9  23
BRANCH  10  25
ATOM     25  O   UNL     1      19.435   2.016 190.607  0.00  0.00    +0.000 OA
ATOM     26  H   UNL     1      19.737   2.062 189.671  0.00  0.00    +0.000 HD
ENDBRANCH  10  25
BRANCH   4  28
ATOM     27  O   UNL     1      22.051   5.758 187.862  0.00  0.00    +0.000 OA
ATOM     28  C   UNL     1      22.671   4.698 187.719  0.00  0.00    +0.000 C 
BRANCH  28  29
ATOM     29  C   UNL     1      23.172   4.286 186.337  0.00  0.00    +0.000 C 
BRANCH  29  30
ATOM     30  O   UNL     1      22.473   3.146 185.852  0.00  0.00    +0.000 OA
ATOM     31  H   UNL     1      22.945   2.366 186.210  0.00  0.00    +0.000 HD
ENDBRANCH  29  30
ENDBRANCH  28  29
ENDBRANCH   4  28
BRANCH  17  32
ATOM     32  O   UNL     1      21.366   0.428 197.727  0.00  0.00    +0.000 OA
ATOM     33  C   UNL     1      21.781  -0.822 198.281  0.00  0.00    +0.000 C 
ENDBRANCH  17  32
BRANCH   3  34
ATOM     34  O   UNL     1      24.907   2.452 190.706  0.00  0.00    +0.000 OA
BRANCH  34  36
ATOM     35  O   UNL     1      27.256   2.516 190.547  0.00  0.00    +0.000 OA
ATOM     36  C   UNL     1      26.141   2.384 191.426  0.00  0.00    +0.000 C 
ATOM     37  C   UNL     1      26.185   1.079 192.223  0.00  0.00    +0.000 C 
ATOM     38  C   UNL     1      26.340  -0.127 191.293  0.00  0.00    +0.000 C 
ATOM     39  C   UNL     1      27.565   0.078 190.380  0.00  0.00    +0.000 C 
ATOM     40  C   UNL     1      27.415   1.420 189.637  0.00  0.00    +0.000 C 
ATOM     41  C   UNL     1      28.620   1.741 188.761  0.00  0.00    +0.000 C 
BRANCH  38  42
ATOM     42  N   UNL     1      26.478  -1.371 192.071  0.00  0.00    +0.000 NA
ATOM     43  H   UNL     1      26.966  -2.075 191.520  0.00  0.00    +0.000 HD
ATOM     44  H   UNL     1      25.531  -1.736 192.220  0.00  0.00    +0.000 HD
ENDBRANCH  38  42
BRANCH  39  45
ATOM     45  O   UNL     1      28.748   0.055 191.200  0.00  0.00    +0.000 OA
ATOM     46  H   UNL     1      29.471   0.448 190.682  0.00  0.00    +0.000 HD
ENDBRANCH  39  45
ENDBRANCH  34  36
ENDBRANCH   3  34
TORSDOF 11
ENDMDL
MODEL 9
REMARK VINA RESULT:      -7.5      3.249      8.131
REMARK  Name = 
REMARK  13 active torsions:
REMARK  status: ('A' for Active; 'I' for Inactive)
REMARK    1  A    between atoms: O_1  and  C_13
REMARK    2  A    between atoms: O_1  and  C_19
REMARK    3  A    between atoms: O_3  and  C_14
REMARK    4  A    between atoms: O_4  and  C_22
REMARK    5  A    between atoms: O_5  and  C_24
REMARK    6  A    between atoms: O_6  and  C_26
REMARK    7  A    between atoms: O_8  and  C_30
REMARK    8  A    between atoms: O_11  and  C_35
REMARK    9  A    between atoms: O_11  and  C_39
REMARK   10  A    between atoms: N_12  and  C_21
REMARK   11  A    between atoms: C_14  and  C_25
REMARK   12  A    between atoms: C_23  and  C_29
REMARK   13  A    between atoms: C_25  and  C_30
REMARK                            x       y       z     vdW  Elec       q    Type
REMARK                         _______ _______ _______ _____ _____    ______ ____
ROOT
ATOM      1  O   UNL     1      27.118  -0.353 191.705  0.00  0.00    +0.000 OA
ATOM      2  O   UNL     1      26.190   4.072 188.907  0.00  0.00    +0.000 OA
ATOM      3  C   UNL     1      22.022   0.146 192.004  0.00  0.00    +0.000 C 
ATOM      4  C   UNL     1      20.410   1.957 191.268  0.00  0.00    +0.000 C 
ATOM      5  C   UNL     1      20.665   0.447 191.365  0.00  0.00    +0.000 C 
ATOM      6  C   UNL     1      21.499   2.638 190.427  0.00  0.00    +0.000 C 
ATOM      7  C   UNL     1      23.148   0.895 191.319  0.00  0.00    +0.000 A 
ATOM      8  C   UNL     1      22.902   2.087 190.610  0.00  0.00    +0.000 A 
ATOM      9  C   UNL     1      24.472   0.433 191.433  0.00  0.00    +0.000 A 
ATOM     10  C   UNL     1      23.980   2.765 190.014  0.00  0.00    +0.000 A 
ATOM     11  C   UNL     1      25.548   1.124 190.843  0.00  0.00    +0.000 A 
ATOM     12  C   UNL     1      25.298   2.291 190.131  0.00  0.00    +0.000 A 
ATOM     13  C   UNL     1      26.935   0.626 190.988  0.00  0.00    +0.000 C 
ATOM     14  C   UNL     1      26.415   3.024 189.505  0.00  0.00    +0.000 C 
ATOM     15  C   UNL     1      28.051   1.318 190.300  0.00  0.00    +0.000 A 
ATOM     16  C   UNL     1      27.787   2.492 189.592  0.00  0.00    +0.000 A 
ATOM     17  C   UNL     1      29.371   0.843 190.344  0.00  0.00    +0.000 A 
ATOM     18  C   UNL     1      28.820   3.183 188.940  0.00  0.00    +0.000 A 
ATOM     19  C   UNL     1      30.396   1.518 189.671  0.00  0.00    +0.000 A 
ATOM     20  C   UNL     1      30.123   2.694 188.979  0.00  0.00    +0.000 A 
ENDROOT
BRANCH   4  21
ATOM     21  O   UNL     1      20.359   2.544 192.574  0.00  0.00    +0.000 OA
ATOM     22  H   UNL     1      21.285   2.643 192.882  0.00  0.00    +0.000 HD
ENDBRANCH   4  21
BRANCH   9  23
ATOM     23  O   UNL     1      24.667  -0.727 192.145  0.00  0.00    +0.000 OA
ATOM     24  H   UNL     1      25.357  -1.265 191.690  0.00  0.00    +0.000 HD
ENDBRANCH   9  23
BRANCH  10  25
ATOM     25  O   UNL     1      23.679   3.906 189.312  0.00  0.00    +0.000 OA
ATOM     26  H   UNL     1      24.515   4.376 189.093  0.00  0.00    +0.000 HD
ENDBRANCH  10  25
BRANCH   4  28
ATOM     27  O   UNL     1      18.921   2.863 189.561  0.00  0.00    +0.000 OA
ATOM     28  C   UNL     1      19.045   2.213 190.605  0.00  0.00    +0.000 C 
BRANCH  28  29
ATOM     29  C   UNL     1      17.812   1.644 191.302  0.00  0.00    +0.000 C 
BRANCH  29  30
ATOM     30  O   UNL     1      17.187   0.641 190.510  0.00  0.00    +0.000 OA
ATOM     31  H   UNL     1      17.453   0.820 189.585  0.00  0.00    +0.000 HD
ENDBRANCH  29  30
ENDBRANCH  28  29
ENDBRANCH   4  28
BRANCH  17  32
ATOM     32  O   UNL     1      29.696  -0.344 190.946  0.00  0.00    +0.000 OA
ATOM     33  C   UNL     1      31.113  -0.526 190.967  0.00  0.00    +0.000 C 
ENDBRANCH  17  32
BRANCH   3  34
ATOM     34  O   UNL     1      22.003   0.605 193.366  0.00  0.00    +0.000 OA
BRANCH  34  36
ATOM     35  O   UNL     1      20.344  -0.350 194.738  0.00  0.00    +0.000 OA
ATOM     36  C   UNL     1      21.694  -0.444 194.289  0.00  0.00    +0.000 C 
ATOM     37  C   UNL     1      22.693  -0.403 195.447  0.00  0.00    +0.000 C 
ATOM     38  C   UNL     1      22.457   0.823 196.333  0.00  0.00    +0.000 C 
ATOM     39  C   UNL     1      20.983   0.856 196.788  0.00  0.00    +0.000 C 
ATOM     40  C   UNL     1      20.076   0.804 195.544  0.00  0.00    +0.000 C 
ATOM     41  C   UNL     1      18.594   0.761 195.903  0.00  0.00    +0.000 C 
BRANCH  38  42
ATOM     42  N   UNL     1      23.357   0.806 197.499  0.00  0.00    +0.000 NA
ATOM     43  H   UNL     1      22.939   1.322 198.271  0.00  0.00    +0.000 HD
ATOM     44  H   UNL     1      24.199   1.328 197.233  0.00  0.00    +0.000 HD
ENDBRANCH  38  42
BRANCH  39  45
ATOM     45  O   UNL     1      20.755  -0.266 197.660  0.00  0.00    +0.000 OA
ATOM     46  H   UNL     1      21.412  -0.220 198.374  0.00  0.00    +0.000 HD
ENDBRANCH  39  45
ENDBRANCH  34  36
ENDBRANCH   3  34
TORSDOF 11
ENDMDL
