MODEL 1
REMARK VINA RESULT:      -8.7      0.000      0.000
REMARK  Name = Dronabinol.pdbqt.pdb
REMARK  3 active torsions:
REMARK  status: ('A' for Active; 'I' for Inactive)
REMARK    1  A    between atoms: C_13  and  O_18
REMARK    2  A    between atoms: C_16  and  C_20
REMARK    3  A    between atoms: C_21  and  C_22
REMARK                            x       y       z     vdW  Elec       q    Type
REMARK                         _______ _______ _______ _____ _____    ______ ____
ROOT
ATOM      1  O   UNL     1      22.913   2.599 186.551  0.00  0.00    +0.000 OA
ATOM      2  C   UNL     1      20.521   2.855 187.088  0.00  0.00    +0.000 A 
ATOM      3  C   UNL     1      20.775   2.093 188.335  0.00  0.00    +0.000 A 
ATOM      4  C   UNL     1      21.716   3.384 186.342  0.00  0.00    +0.000 C 
ATOM      5  C   UNL     1      19.127   3.165 186.903  0.00  0.00    +0.000 A 
ATOM      6  C   UNL     1      22.144   1.770 188.731  0.00  0.00    +0.000 A 
ATOM      7  C   UNL     1      18.000   2.728 187.857  0.00  0.00    +0.000 A 
ATOM      8  C   UNL     1      19.563   1.788 189.064  0.00  0.00    +0.000 A 
ATOM      9  C   UNL     1      18.263   1.958 189.039  0.00  0.00    +0.000 A 
ATOM     10  C   UNL     1      23.146   2.054 187.790  0.00  0.00    +0.000 A 
ATOM     11  C   UNL     1      21.431   3.332 184.815  0.00  0.00    +0.000 C 
ATOM     12  C   UNL     1      22.000   4.848 186.788  0.00  0.00    +0.000 C 
ATOM     13  C   UNL     1      22.520   1.191 189.949  0.00  0.00    +0.000 A 
ATOM     14  C   UNL     1      24.479   1.733 188.053  0.00  0.00    +0.000 A 
ATOM     15  C   UNL     1      17.342   0.848 189.436  0.00  0.00    +0.000 C 
ATOM     16  C   UNL     1      24.833   1.157 189.269  0.00  0.00    +0.000 A 
ATOM     17  C   UNL     1      23.856   0.888 190.220  0.00  0.00    +0.000 A 
ENDROOT
BRANCH  13  18
ATOM     18  O   UNL     1      21.583   0.917 190.906  0.00  0.00    +0.000 OA
ATOM     19  H   UNL     1      21.960   0.299 191.557  0.00  0.00    +0.000 HD
ENDBRANCH  13  18
BRANCH  16  20
ATOM     20  C   UNL     1      26.197   0.855 189.543  0.00  0.00    +0.000 C 
ATOM     21  C   UNL     1      27.661   0.520 189.846  0.00  0.00    +0.000 C 
BRANCH  21  22
ATOM     22  C   UNL     1      29.121   0.174 190.152  0.00  0.00    +0.000 C 
ATOM     23  C   UNL     1      30.581  -0.176 190.459  0.00  0.00    +0.000 C 
ATOM     24  C   UNL     1      32.040  -0.529 190.765  0.00  0.00    +0.000 C 
ENDBRANCH  21  22
ENDBRANCH  16  20
TORSDOF 3
ENDMDL
MODEL 2
REMARK VINA RESULT:      -8.5      3.661      6.677
REMARK  Name = Dronabinol.pdbqt.pdb
REMARK  3 active torsions:
REMARK  status: ('A' for Active; 'I' for Inactive)
REMARK    1  A    between atoms: C_13  and  O_18
REMARK    2  A    between atoms: C_16  and  C_20
REMARK    3  A    between atoms: C_21  and  C_22
REMARK                            x       y       z     vdW  Elec       q    Type
REMARK                         _______ _______ _______ _____ _____    ______ ____
ROOT
ATOM      1  O   UNL     1      23.337   3.841 188.935  0.00  0.00    +0.000 OA
ATOM      2  C   UNL     1      23.162   4.584 186.591  0.00  0.00    +0.000 A 
ATOM      3  C   UNL     1      21.864   3.868 186.519  0.00  0.00    +0.000 A 
ATOM      4  C   UNL     1      23.745   4.826 187.957  0.00  0.00    +0.000 C 
ATOM      5  C   UNL     1      23.557   5.143 185.325  0.00  0.00    +0.000 A 
ATOM      6  C   UNL     1      21.264   3.314 187.730  0.00  0.00    +0.000 A 
ATOM      7  C   UNL     1      22.761   4.991 184.016  0.00  0.00    +0.000 A 
ATOM      8  C   UNL     1      21.308   3.847 185.183  0.00  0.00    +0.000 A 
ATOM      9  C   UNL     1      21.527   4.261 183.958  0.00  0.00    +0.000 A 
ATOM     10  C   UNL     1      22.059   3.341 188.886  0.00  0.00    +0.000 A 
ATOM     11  C   UNL     1      25.294   4.733 187.877  0.00  0.00    +0.000 C 
ATOM     12  C   UNL     1      23.314   6.234 188.464  0.00  0.00    +0.000 C 
ATOM     13  C   UNL     1      19.984   2.752 187.815  0.00  0.00    +0.000 A 
ATOM     14  C   UNL     1      21.594   2.787 190.080  0.00  0.00    +0.000 A 
ATOM     15  C   UNL     1      21.229   3.375 182.790  0.00  0.00    +0.000 C 
ATOM     16  C   UNL     1      20.321   2.232 190.145  0.00  0.00    +0.000 A 
ATOM     17  C   UNL     1      19.512   2.216 189.015  0.00  0.00    +0.000 A 
ENDROOT
BRANCH  13  18
ATOM     18  O   UNL     1      19.164   2.723 186.722  0.00  0.00    +0.000 OA
ATOM     19  H   UNL     1      18.337   2.262 186.952  0.00  0.00    +0.000 HD
ENDBRANCH  13  18
BRANCH  16  20
ATOM     20  C   UNL     1      19.842   1.693 191.372  0.00  0.00    +0.000 C 
ATOM     21  C   UNL     1      19.335   1.118 192.701  0.00  0.00    +0.000 C 
BRANCH  21  22
ATOM     22  C   UNL     1      18.835   0.552 194.032  0.00  0.00    +0.000 C 
ATOM     23  C   UNL     1      18.339  -0.017 195.365  0.00  0.00    +0.000 C 
ATOM     24  C   UNL     1      17.845  -0.587 196.700  0.00  0.00    +0.000 C 
ENDBRANCH  21  22
ENDBRANCH  16  20
TORSDOF 3
ENDMDL
MODEL 3
REMARK VINA RESULT:      -8.0      4.277      7.627
REMARK  Name = Dronabinol.pdbqt.pdb
REMARK  3 active torsions:
REMARK  status: ('A' for Active; 'I' for Inactive)
REMARK    1  A    between atoms: C_13  and  O_18
REMARK    2  A    between atoms: C_16  and  C_20
REMARK    3  A    between atoms: C_21  and  C_22
REMARK                            x       y       z     vdW  Elec       q    Type
REMARK                         _______ _______ _______ _____ _____    ______ ____
ROOT
ATOM      1  O   UNL     1      19.422   3.045 190.428  0.00  0.00    +0.000 OA
ATOM      2  C   UNL     1      20.990   2.429 188.629  0.00  0.00    +0.000 A 
ATOM      3  C   UNL     1      21.634   1.495 189.585  0.00  0.00    +0.000 A 
ATOM      4  C   UNL     1      19.639   2.979 188.999  0.00  0.00    +0.000 C 
ATOM      5  C   UNL     1      21.678   2.490 187.366  0.00  0.00    +0.000 A 
ATOM      6  C   UNL     1      21.021   1.238 190.886  0.00  0.00    +0.000 A 
ATOM      7  C   UNL     1      22.966   1.715 187.033  0.00  0.00    +0.000 A 
ATOM      8  C   UNL     1      22.837   0.890 189.054  0.00  0.00    +0.000 A 
ATOM      9  C   UNL     1      23.596   0.845 187.986  0.00  0.00    +0.000 A 
ATOM     10  C   UNL     1      19.927   2.048 191.227  0.00  0.00    +0.000 A 
ATOM     11  C   UNL     1      19.519   4.438 188.481  0.00  0.00    +0.000 C 
ATOM     12  C   UNL     1      18.527   2.089 188.370  0.00  0.00    +0.000 C 
ATOM     13  C   UNL     1      21.449   0.274 191.807  0.00  0.00    +0.000 A 
ATOM     14  C   UNL     1      19.307   1.917 192.471  0.00  0.00    +0.000 A 
ATOM     15  C   UNL     1      25.086   0.816 188.110  0.00  0.00    +0.000 C 
ATOM     16  C   UNL     1      19.746   0.954 193.373  0.00  0.00    +0.000 A 
ATOM     17  C   UNL     1      20.815   0.129 193.043  0.00  0.00    +0.000 A 
ENDROOT
BRANCH  13  18
ATOM     18  O   UNL     1      22.495  -0.553 191.509  0.00  0.00    +0.000 OA
ATOM     19  H   UNL     1      22.499  -0.735 190.552  0.00  0.00    +0.000 HD
ENDBRANCH  13  18
BRANCH  16  20
ATOM     20  C   UNL     1      19.094   0.805 194.630  0.00  0.00    +0.000 C 
ATOM     21  C   UNL     1      18.389   0.659 195.983  0.00  0.00    +0.000 C 
BRANCH  21  22
ATOM     22  C   UNL     1      17.681   0.523 197.334  0.00  0.00    +0.000 C 
ATOM     23  C   UNL     1      16.970   0.391 198.685  0.00  0.00    +0.000 C 
ATOM     24  C   UNL     1      16.257   0.258 200.034  0.00  0.00    +0.000 C 
ENDBRANCH  21  22
ENDBRANCH  16  20
TORSDOF 3
ENDMDL
MODEL 4
REMARK VINA RESULT:      -7.9      2.864      4.531
REMARK  Name = Dronabinol.pdbqt.pdb
REMARK  3 active torsions:
REMARK  status: ('A' for Active; 'I' for Inactive)
REMARK    1  A    between atoms: C_13  and  O_18
REMARK    2  A    between atoms: C_16  and  C_20
REMARK    3  A    between atoms: C_21  and  C_22
REMARK                            x       y       z     vdW  Elec       q    Type
REMARK                         _______ _______ _______ _____ _____    ______ ____
ROOT
ATOM      1  O   UNL     1      20.000   1.373 191.458  0.00  0.00    +0.000 OA
ATOM      2  C   UNL     1      19.323   2.093 189.201  0.00  0.00    +0.000 A 
ATOM      3  C   UNL     1      20.719   1.847 188.763  0.00  0.00    +0.000 A 
ATOM      4  C   UNL     1      18.902   1.525 190.529  0.00  0.00    +0.000 C 
ATOM      5  C   UNL     1      18.507   2.660 188.159  0.00  0.00    +0.000 A 
ATOM      6  C   UNL     1      21.664   1.191 189.662  0.00  0.00    +0.000 A 
ATOM      7  C   UNL     1      19.015   3.022 186.750  0.00  0.00    +0.000 A 
ATOM      8  C   UNL     1      20.964   2.277 187.403  0.00  0.00    +0.000 A 
ATOM      9  C   UNL     1      20.379   2.812 186.358  0.00  0.00    +0.000 A 
ATOM     10  C   UNL     1      21.230   0.990 190.981  0.00  0.00    +0.000 A 
ATOM     11  C   UNL     1      17.899   2.498 191.208  0.00  0.00    +0.000 C 
ATOM     12  C   UNL     1      18.240   0.132 190.312  0.00  0.00    +0.000 C 
ATOM     13  C   UNL     1      22.955   0.773 189.315  0.00  0.00    +0.000 A 
ATOM     14  C   UNL     1      22.081   0.420 191.930  0.00  0.00    +0.000 A 
ATOM     15  C   UNL     1      21.090   3.832 185.526  0.00  0.00    +0.000 C 
ATOM     16  C   UNL     1      23.360   0.012 191.567  0.00  0.00    +0.000 A 
ATOM     17  C   UNL     1      23.799   0.185 190.259  0.00  0.00    +0.000 A 
ENDROOT
BRANCH  13  18
ATOM     18  O   UNL     1      23.414   0.927 188.037  0.00  0.00    +0.000 OA
ATOM     19  H   UNL     1      24.199   0.364 187.908  0.00  0.00    +0.000 HD
ENDBRANCH  13  18
BRANCH  16  20
ATOM     20  C   UNL     1      24.215  -0.593 192.531  0.00  0.00    +0.000 C 
ATOM     21  C   UNL     1      25.125  -1.254 193.573  0.00  0.00    +0.000 C 
BRANCH  21  22
ATOM     22  C   UNL     1      26.028  -1.922 194.613  0.00  0.00    +0.000 C 
ATOM     23  C   UNL     1      26.928  -2.589 195.658  0.00  0.00    +0.000 C 
ATOM     24  C   UNL     1      27.827  -3.257 196.704  0.00  0.00    +0.000 C 
ENDBRANCH  21  22
ENDBRANCH  16  20
TORSDOF 3
ENDMDL
MODEL 5
REMARK VINA RESULT:      -7.9      1.354      3.463
REMARK  Name = Dronabinol.pdbqt.pdb
REMARK  3 active torsions:
REMARK  status: ('A' for Active; 'I' for Inactive)
REMARK    1  A    between atoms: C_13  and  O_18
REMARK    2  A    between atoms: C_16  and  C_20
REMARK    3  A    between atoms: C_21  and  C_22
REMARK                            x       y       z     vdW  Elec       q    Type
REMARK                         _______ _______ _______ _____ _____    ______ ____
ROOT
ATOM      1  O   UNL     1      22.938   1.853 191.538  0.00  0.00    +0.000 OA
ATOM      2  C   UNL     1      20.917   2.077 190.144  0.00  0.00    +0.000 A 
ATOM      3  C   UNL     1      21.787   1.917 188.953  0.00  0.00    +0.000 A 
ATOM      4  C   UNL     1      21.499   1.712 191.483  0.00  0.00    +0.000 C 
ATOM      5  C   UNL     1      19.548   2.353 189.797  0.00  0.00    +0.000 A 
ATOM      6  C   UNL     1      23.190   1.543 189.115  0.00  0.00    +0.000 A 
ATOM      7  C   UNL     1      19.026   2.513 188.356  0.00  0.00    +0.000 A 
ATOM      8  C   UNL     1      21.078   2.122 187.708  0.00  0.00    +0.000 A 
ATOM      9  C   UNL     1      19.892   2.393 187.218  0.00  0.00    +0.000 A 
ATOM     10  C   UNL     1      23.683   1.533 190.429  0.00  0.00    +0.000 A 
ATOM     11  C   UNL     1      20.934   2.670 192.567  0.00  0.00    +0.000 C 
ATOM     12  C   UNL     1      21.133   0.237 191.823  0.00  0.00    +0.000 C 
ATOM     13  C   UNL     1      24.067   1.220 188.072  0.00  0.00    +0.000 A 
ATOM     14  C   UNL     1      25.024   1.242 190.682  0.00  0.00    +0.000 A 
ATOM     15  C   UNL     1      19.742   3.321 186.055  0.00  0.00    +0.000 C 
ATOM     16  C   UNL     1      25.881   0.924 189.633  0.00  0.00    +0.000 A 
ATOM     17  C   UNL     1      25.404   0.909 188.328  0.00  0.00    +0.000 A 
ENDROOT
BRANCH  13  18
ATOM     18  O   UNL     1      23.628   1.194 186.779  0.00  0.00    +0.000 OA
ATOM     19  H   UNL     1      24.395   1.143 186.180  0.00  0.00    +0.000 HD
ENDBRANCH  13  18
BRANCH  16  20
ATOM     20  C   UNL     1      27.242   0.601 189.899  0.00  0.00    +0.000 C 
ATOM     21  C   UNL     1      28.706   0.243 190.177  0.00  0.00    +0.000 C 
BRANCH  21  22
ATOM     22  C   UNL     1      30.168  -0.122 190.447  0.00  0.00    +0.000 C 
ATOM     23  C   UNL     1      31.631  -0.492 190.716  0.00  0.00    +0.000 C 
ATOM     24  C   UNL     1      33.093  -0.863 190.982  0.00  0.00    +0.000 C 
ENDBRANCH  21  22
ENDBRANCH  16  20
TORSDOF 3
ENDMDL
MODEL 6
REMARK VINA RESULT:      -7.4      3.850      7.251
REMARK  Name = Dronabinol.pdbqt.pdb
REMARK  3 active torsions:
REMARK  status: ('A' for Active; 'I' for Inactive)
REMARK    1  A    between atoms: C_13  and  O_18
REMARK    2  A    between atoms: C_16  and  C_20
REMARK    3  A    between atoms: C_21  and  C_22
REMARK                            x       y       z     vdW  Elec       q    Type
REMARK                         _______ _______ _______ _____ _____    ______ ____
ROOT
ATOM      1  O   UNL     1      23.202   1.148 190.902  0.00  0.00    +0.000 OA
ATOM      2  C   UNL     1      23.275   2.397 188.778  0.00  0.00    +0.000 A 
ATOM      3  C   UNL     1      21.815   2.617 188.921  0.00  0.00    +0.000 A 
ATOM      4  C   UNL     1      24.026   1.911 189.989  0.00  0.00    +0.000 C 
ATOM      5  C   UNL     1      23.794   2.908 187.536  0.00  0.00    +0.000 A 
ATOM      6  C   UNL     1      21.135   2.244 190.158  0.00  0.00    +0.000 A 
ATOM      7  C   UNL     1      22.940   3.574 186.440  0.00  0.00    +0.000 A 
ATOM      8  C   UNL     1      21.227   3.251 187.760  0.00  0.00    +0.000 A 
ATOM      9  C   UNL     1      21.522   3.743 186.581  0.00  0.00    +0.000 A 
ATOM     10  C   UNL     1      21.894   1.519 191.090  0.00  0.00    +0.000 A 
ATOM     11  C   UNL     1      25.163   0.955 189.537  0.00  0.00    +0.000 C 
ATOM     12  C   UNL     1      24.617   3.130 190.756  0.00  0.00    +0.000 C 
ATOM     13  C   UNL     1      19.800   2.534 190.468  0.00  0.00    +0.000 A 
ATOM     14  C   UNL     1      21.317   1.070 192.280  0.00  0.00    +0.000 A 
ATOM     15  C   UNL     1      20.616   3.515 185.412  0.00  0.00    +0.000 C 
ATOM     16  C   UNL     1      19.990   1.368 192.570  0.00  0.00    +0.000 A 
ATOM     17  C   UNL     1      19.230   2.102 191.668  0.00  0.00    +0.000 A 
ENDROOT
BRANCH  13  18
ATOM     18  O   UNL     1      19.029   3.257 189.603  0.00  0.00    +0.000 OA
ATOM     19  H   UNL     1      18.238   3.582 190.072  0.00  0.00    +0.000 HD
ENDBRANCH  13  18
BRANCH  16  20
ATOM     20  C   UNL     1      19.415   0.930 193.796  0.00  0.00    +0.000 C 
ATOM     21  C   UNL     1      18.796   0.472 195.122  0.00  0.00    +0.000 C 
BRANCH  21  22
ATOM     22  C   UNL     1      18.175   0.025 196.448  0.00  0.00    +0.000 C 
ATOM     23  C   UNL     1      17.558  -0.426 197.776  0.00  0.00    +0.000 C 
ATOM     24  C   UNL     1      16.943  -0.876 199.106  0.00  0.00    +0.000 C 
ENDBRANCH  21  22
ENDBRANCH  16  20
TORSDOF 3
ENDMDL
MODEL 7
REMARK VINA RESULT:      -7.3      2.250      4.259
REMARK  Name = Dronabinol.pdbqt.pdb
REMARK  3 active torsions:
REMARK  status: ('A' for Active; 'I' for Inactive)
REMARK    1  A    between atoms: C_13  and  O_18
REMARK    2  A    between atoms: C_16  and  C_20
REMARK    3  A    between atoms: C_21  and  C_22
REMARK                            x       y       z     vdW  Elec       q    Type
REMARK                         _______ _______ _______ _____ _____    ______ ____
ROOT
ATOM      1  O   UNL     1      21.419   0.393 192.929  0.00  0.00    +0.000 OA
ATOM      2  C   UNL     1      19.504   0.855 191.448  0.00  0.00    +0.000 A 
ATOM      3  C   UNL     1      20.479   1.162 190.373  0.00  0.00    +0.000 A 
ATOM      4  C   UNL     1      20.018   0.141 192.669  0.00  0.00    +0.000 C 
ATOM      5  C   UNL     1      18.142   1.096 191.047  0.00  0.00    +0.000 A 
ATOM      6  C   UNL     1      21.900   0.890 190.573  0.00  0.00    +0.000 A 
ATOM      7  C   UNL     1      17.722   1.653 189.674  0.00  0.00    +0.000 A 
ATOM      8  C   UNL     1      19.851   1.682 189.177  0.00  0.00    +0.000 A 
ATOM      9  C   UNL     1      18.683   1.981 188.660  0.00  0.00    +0.000 A 
ATOM     10  C   UNL     1      22.284   0.512 191.868  0.00  0.00    +0.000 A 
ATOM     11  C   UNL     1      19.253   0.650 193.921  0.00  0.00    +0.000 C 
ATOM     12  C   UNL     1      19.814  -1.393 192.498  0.00  0.00    +0.000 C 
ATOM     13  C   UNL     1      22.891   0.997 189.589  0.00  0.00    +0.000 A 
ATOM     14  C   UNL     1      23.627   0.283 192.173  0.00  0.00    +0.000 A 
ATOM     15  C   UNL     1      18.511   3.211 187.827  0.00  0.00    +0.000 C 
ATOM     16  C   UNL     1      24.597   0.394 191.183  0.00  0.00    +0.000 A 
ATOM     17  C   UNL     1      24.232   0.748 189.889  0.00  0.00    +0.000 A 
ENDROOT
BRANCH  13  18
ATOM     18  O   UNL     1      22.563   1.339 188.308  0.00  0.00    +0.000 OA
ATOM     19  H   UNL     1      23.307   1.821 187.903  0.00  0.00    +0.000 HD
ENDBRANCH  13  18
BRANCH  16  20
ATOM     20  C   UNL     1      25.963   0.134 191.492  0.00  0.00    +0.000 C 
ATOM     21  C   UNL     1      27.431  -0.159 191.822  0.00  0.00    +0.000 C 
BRANCH  21  22
ATOM     22  C   UNL     1      28.896  -0.462 192.146  0.00  0.00    +0.000 C 
ATOM     23  C   UNL     1      30.362  -0.769 192.469  0.00  0.00    +0.000 C 
ATOM     24  C   UNL     1      31.828  -1.078 192.790  0.00  0.00    +0.000 C 
ENDBRANCH  21  22
ENDBRANCH  16  20
TORSDOF 3
ENDMDL
MODEL 8
REMARK VINA RESULT:      -7.0      2.688      4.353
REMARK  Name = Dronabinol.pdbqt.pdb
REMARK  3 active torsions:
REMARK  status: ('A' for Active; 'I' for Inactive)
REMARK    1  A    between atoms: C_13  and  O_18
REMARK    2  A    between atoms: C_16  and  C_20
REMARK    3  A    between atoms: C_21  and  C_22
REMARK                            x       y       z     vdW  Elec       q    Type
REMARK                         _______ _______ _______ _____ _____    ______ ____
ROOT
ATOM      1  O   UNL     1      23.948   2.144 192.036  0.00  0.00    +0.000 OA
ATOM      2  C   UNL     1      21.712   2.652 191.132  0.00  0.00    +0.000 A 
ATOM      3  C   UNL     1      22.384   3.399 190.040  0.00  0.00    +0.000 A 
ATOM      4  C   UNL     1      22.562   1.735 191.970  0.00  0.00    +0.000 C 
ATOM      5  C   UNL     1      20.278   2.756 191.073  0.00  0.00    +0.000 A 
ATOM      6  C   UNL     1      23.836   3.331 189.891  0.00  0.00    +0.000 A 
ATOM      7  C   UNL     1      19.503   3.581 190.028  0.00  0.00    +0.000 A 
ATOM      8  C   UNL     1      21.453   4.107 189.188  0.00  0.00    +0.000 A 
ATOM      9  C   UNL     1      20.173   4.329 189.003  0.00  0.00    +0.000 A 
ATOM     10  C   UNL     1      24.538   2.690 190.923  0.00  0.00    +0.000 A 
ATOM     11  C   UNL     1      22.041   1.750 193.433  0.00  0.00    +0.000 C 
ATOM     12  C   UNL     1      22.498   0.292 191.388  0.00  0.00    +0.000 C 
ATOM     13  C   UNL     1      24.565   3.867 188.822  0.00  0.00    +0.000 A 
ATOM     14  C   UNL     1      25.931   2.621 190.898  0.00  0.00    +0.000 A 
ATOM     15  C   UNL     1      19.684   5.690 188.621  0.00  0.00    +0.000 C 
ATOM     16  C   UNL     1      26.639   3.159 189.828  0.00  0.00    +0.000 A 
ATOM     17  C   UNL     1      25.959   3.780 188.788  0.00  0.00    +0.000 A 
ENDROOT
BRANCH  13  18
ATOM     18  O   UNL     1      23.925   4.480 187.783  0.00  0.00    +0.000 OA
ATOM     19  H   UNL     1      24.369   5.325 187.585  0.00  0.00    +0.000 HD
ENDBRANCH  13  18
BRANCH  16  20
ATOM     20  C   UNL     1      28.059   3.064 189.794  0.00  0.00    +0.000 C 
ATOM     21  C   UNL     1      29.588   2.953 189.770  0.00  0.00    +0.000 C 
BRANCH  21  22
ATOM     22  C   UNL     1      31.114   2.835 189.752  0.00  0.00    +0.000 C 
ATOM     23  C   UNL     1      32.642   2.720 189.739  0.00  0.00    +0.000 C 
ATOM     24  C   UNL     1      34.170   2.603 189.728  0.00  0.00    +0.000 C 
ENDBRANCH  21  22
ENDBRANCH  16  20
TORSDOF 3
ENDMDL
MODEL 9
REMARK VINA RESULT:      -6.5      3.875     10.640
REMARK  Name = Dronabinol.pdbqt.pdb
REMARK  3 active torsions:
REMARK  status: ('A' for Active; 'I' for Inactive)
REMARK    1  A    between atoms: C_13  and  O_18
REMARK    2  A    between atoms: C_16  and  C_20
REMARK    3  A    between atoms: C_21  and  C_22
REMARK                            x       y       z     vdW  Elec       q    Type
REMARK                         _______ _______ _______ _____ _____    ______ ____
ROOT
ATOM      1  O   UNL     1      31.162   4.366 189.265  0.00  0.00    +0.000 OA
ATOM      2  C   UNL     1      32.900   2.649 189.589  0.00  0.00    +0.000 A 
ATOM      3  C   UNL     1      31.813   1.684 189.887  0.00  0.00    +0.000 A 
ATOM      4  C   UNL     1      32.512   3.955 188.948  0.00  0.00    +0.000 C 
ATOM      5  C   UNL     1      34.210   2.078 189.759  0.00  0.00    +0.000 A 
ATOM      6  C   UNL     1      30.418   2.063 189.680  0.00  0.00    +0.000 A 
ATOM      7  C   UNL     1      34.482   0.640 190.240  0.00  0.00    +0.000 A 
ATOM      8  C   UNL     1      32.310   0.399 190.331  0.00  0.00    +0.000 A 
ATOM      9  C   UNL     1      33.417  -0.266 190.561  0.00  0.00    +0.000 A 
ATOM     10  C   UNL     1      30.180   3.412 189.372  0.00  0.00    +0.000 A 
ATOM     11  C   UNL     1      33.439   5.082 189.480  0.00  0.00    +0.000 C 
ATOM     12  C   UNL     1      32.642   3.833 187.401  0.00  0.00    +0.000 C 
ATOM     13  C   UNL     1      29.320   1.200 189.783  0.00  0.00    +0.000 A 
ATOM     14  C   UNL     1      28.876   3.883 189.210  0.00  0.00    +0.000 A 
ATOM     15  C   UNL     1      33.529  -1.171 191.747  0.00  0.00    +0.000 C 
ATOM     16  C   UNL     1      27.798   3.011 189.316  0.00  0.00    +0.000 A 
ATOM     17  C   UNL     1      28.017   1.668 189.600  0.00  0.00    +0.000 A 
ENDROOT
BRANCH  13  18
ATOM     18  O   UNL     1      29.503  -0.126 190.058  0.00  0.00    +0.000 OA
ATOM     19  H   UNL     1      30.149  -0.498 189.430  0.00  0.00    +0.000 HD
ENDBRANCH  13  18
BRANCH  16  20
ATOM     20  C   UNL     1      26.472   3.492 189.123  0.00  0.00    +0.000 C 
ATOM     21  C   UNL     1      25.049   4.019 188.907  0.00  0.00    +0.000 C 
BRANCH  21  22
ATOM     22  C   UNL     1      23.631   4.551 188.682  0.00  0.00    +0.000 C 
ATOM     23  C   UNL     1      22.211   5.083 188.462  0.00  0.00    +0.000 C 
ATOM     24  C   UNL     1      20.791   5.616 188.244  0.00  0.00    +0.000 C 
ENDBRANCH  21  22
ENDBRANCH  16  20
TORSDOF 3
ENDMDL
