MODEL 1
REMARK VINA RESULT:      -9.2      0.000      0.000
REMARK  Name = Ellipticine.pdbqt.pdb
REMARK  0 active torsions:
REMARK  status: ('A' for Active; 'I' for Inactive)
REMARK                            x       y       z     vdW  Elec       q    Type
REMARK                         _______ _______ _______ _____ _____    ______ ____
ROOT
ATOM      1  N   UNL     1      22.732   4.187 189.931  0.00  0.00    +0.000 N 
ATOM      2  N   UNL     1      17.003   1.291 189.798  0.00  0.00    +0.000 NA
ATOM      3  C   UNL     1      21.141   3.536 188.494  0.00  0.00    +0.000 A 
ATOM      4  C   UNL     1      21.501   3.571 189.845  0.00  0.00    +0.000 A 
ATOM      5  C   UNL     1      19.901   2.945 188.142  0.00  0.00    +0.000 A 
ATOM      6  C   UNL     1      22.214   4.162 187.767  0.00  0.00    +0.000 A 
ATOM      7  C   UNL     1      20.691   3.047 190.865  0.00  0.00    +0.000 A 
ATOM      8  C   UNL     1      19.460   2.461 190.513  0.00  0.00    +0.000 A 
ATOM      9  C   UNL     1      19.071   2.412 189.157  0.00  0.00    +0.000 A 
ATOM     10  C   UNL     1      23.183   4.552 188.689  0.00  0.00    +0.000 A 
ATOM     11  C   UNL     1      19.480   2.891 186.690  0.00  0.00    +0.000 C 
ATOM     12  C   UNL     1      22.447   4.430 186.403  0.00  0.00    +0.000 A 
ATOM     13  C   UNL     1      21.179   3.138 192.291  0.00  0.00    +0.000 C 
ATOM     14  C   UNL     1      24.371   5.195 188.324  0.00  0.00    +0.000 A 
ATOM     15  C   UNL     1      18.599   1.917 191.478  0.00  0.00    +0.000 A 
ATOM     16  C   UNL     1      17.840   1.818 188.879  0.00  0.00    +0.000 A 
ATOM     17  C   UNL     1      23.626   5.071 186.017  0.00  0.00    +0.000 A 
ATOM     18  C   UNL     1      24.570   5.446 186.965  0.00  0.00    +0.000 A 
ATOM     19  C   UNL     1      17.401   1.352 191.081  0.00  0.00    +0.000 A 
ATOM     20  H   UNL     1      23.228   4.343 190.801  0.00  0.00    +0.000 HD
ENDROOT
TORSDOF 0
ENDMDL
MODEL 2
REMARK VINA RESULT:      -8.9      1.956      3.384
REMARK  Name = Ellipticine.pdbqt.pdb
REMARK  0 active torsions:
REMARK  status: ('A' for Active; 'I' for Inactive)
REMARK                            x       y       z     vdW  Elec       q    Type
REMARK                         _______ _______ _______ _____ _____    ______ ____
ROOT
ATOM      1  N   UNL     1      21.789   3.653 189.591  0.00  0.00    +0.000 N 
ATOM      2  N   UNL     1      18.891   0.539 194.400  0.00  0.00    +0.000 NA
ATOM      3  C   UNL     1      19.962   2.432 190.026  0.00  0.00    +0.000 A 
ATOM      4  C   UNL     1      21.124   2.969 190.587  0.00  0.00    +0.000 A 
ATOM      5  C   UNL     1      19.098   1.676 190.859  0.00  0.00    +0.000 A 
ATOM      6  C   UNL     1      19.955   2.824 188.641  0.00  0.00    +0.000 A 
ATOM      7  C   UNL     1      21.473   2.793 191.936  0.00  0.00    +0.000 A 
ATOM      8  C   UNL     1      20.614   2.042 192.761  0.00  0.00    +0.000 A 
ATOM      9  C   UNL     1      19.434   1.488 192.221  0.00  0.00    +0.000 A 
ATOM     10  C   UNL     1      21.102   3.580 188.406  0.00  0.00    +0.000 A 
ATOM     11  C   UNL     1      17.832   1.080 190.284  0.00  0.00    +0.000 C 
ATOM     12  C   UNL     1      19.073   2.602 187.565  0.00  0.00    +0.000 A 
ATOM     13  C   UNL     1      22.753   3.419 192.437  0.00  0.00    +0.000 C 
ATOM     14  C   UNL     1      21.416   4.125 187.157  0.00  0.00    +0.000 A 
ATOM     15  C   UNL     1      20.898   1.825 194.118  0.00  0.00    +0.000 A 
ATOM     16  C   UNL     1      18.629   0.755 193.093  0.00  0.00    +0.000 A 
ATOM     17  C   UNL     1      19.367   3.138 186.309  0.00  0.00    +0.000 A 
ATOM     18  C   UNL     1      20.521   3.887 186.113  0.00  0.00    +0.000 A 
ATOM     19  C   UNL     1      20.022   1.080 194.885  0.00  0.00    +0.000 A 
ATOM     20  H   UNL     1      22.667   4.142 189.727  0.00  0.00    +0.000 HD
ENDROOT
TORSDOF 0
ENDMDL
MODEL 3
REMARK VINA RESULT:      -8.8      1.667      5.841
REMARK  Name = Ellipticine.pdbqt.pdb
REMARK  0 active torsions:
REMARK  status: ('A' for Active; 'I' for Inactive)
REMARK                            x       y       z     vdW  Elec       q    Type
REMARK                         _______ _______ _______ _____ _____    ______ ____
ROOT
ATOM      1  N   UNL     1      19.663   2.559 189.342  0.00  0.00    +0.000 N 
ATOM      2  N   UNL     1      23.610   5.348 185.114  0.00  0.00    +0.000 NA
ATOM      3  C   UNL     1      21.668   3.549 189.221  0.00  0.00    +0.000 A 
ATOM      4  C   UNL     1      20.548   3.167 188.476  0.00  0.00    +0.000 A 
ATOM      5  C   UNL     1      22.733   4.203 188.549  0.00  0.00    +0.000 A 
ATOM      6  C   UNL     1      21.417   3.143 190.579  0.00  0.00    +0.000 A 
ATOM      7  C   UNL     1      20.432   3.401 187.097  0.00  0.00    +0.000 A 
ATOM      8  C   UNL     1      21.490   4.050 186.432  0.00  0.00    +0.000 A 
ATOM      9  C   UNL     1      22.633   4.447 187.159  0.00  0.00    +0.000 A 
ATOM     10  C   UNL     1      20.166   2.533 190.617  0.00  0.00    +0.000 A 
ATOM     11  C   UNL     1      23.960   4.631 189.324  0.00  0.00    +0.000 C 
ATOM     12  C   UNL     1      22.147   3.242 191.781  0.00  0.00    +0.000 A 
ATOM     13  C   UNL     1      19.177   2.944 186.392  0.00  0.00    +0.000 C 
ATOM     14  C   UNL     1      19.602   2.015 191.788  0.00  0.00    +0.000 A 
ATOM     15  C   UNL     1      21.443   4.317 185.056  0.00  0.00    +0.000 A 
ATOM     16  C   UNL     1      23.643   5.085 186.439  0.00  0.00    +0.000 A 
ATOM     17  C   UNL     1      21.602   2.732 192.962  0.00  0.00    +0.000 A 
ATOM     18  C   UNL     1      20.351   2.129 192.961  0.00  0.00    +0.000 A 
ATOM     19  C   UNL     1      22.509   4.957 184.450  0.00  0.00    +0.000 A 
ATOM     20  H   UNL     1      18.763   2.184 189.062  0.00  0.00    +0.000 HD
ENDROOT
TORSDOF 0
ENDMDL
MODEL 4
REMARK VINA RESULT:      -8.6      2.096      3.829
REMARK  Name = Ellipticine.pdbqt.pdb
REMARK  0 active torsions:
REMARK  status: ('A' for Active; 'I' for Inactive)
REMARK                            x       y       z     vdW  Elec       q    Type
REMARK                         _______ _______ _______ _____ _____    ______ ____
ROOT
ATOM      1  N   UNL     1      19.170   3.081 189.022  0.00  0.00    +0.000 N 
ATOM      2  N   UNL     1      20.320   0.964 194.974  0.00  0.00    +0.000 NA
ATOM      3  C   UNL     1      20.727   3.163 190.630  0.00  0.00    +0.000 A 
ATOM      4  C   UNL     1      19.467   2.653 190.299  0.00  0.00    +0.000 A 
ATOM      5  C   UNL     1      21.262   2.859 191.908  0.00  0.00    +0.000 A 
ATOM      6  C   UNL     1      21.177   3.919 189.491  0.00  0.00    +0.000 A 
ATOM      7  C   UNL     1      18.712   1.857 191.174  0.00  0.00    +0.000 A 
ATOM      8  C   UNL     1      19.245   1.557 192.442  0.00  0.00    +0.000 A 
ATOM      9  C   UNL     1      20.514   2.058 192.803  0.00  0.00    +0.000 A 
ATOM     10  C   UNL     1      20.187   3.847 188.514  0.00  0.00    +0.000 A 
ATOM     11  C   UNL     1      22.622   3.394 192.299  0.00  0.00    +0.000 C 
ATOM     12  C   UNL     1      22.341   4.660 189.206  0.00  0.00    +0.000 A 
ATOM     13  C   UNL     1      17.362   1.360 190.713  0.00  0.00    +0.000 C 
ATOM     14  C   UNL     1      20.295   4.473 187.267  0.00  0.00    +0.000 A 
ATOM     15  C   UNL     1      18.547   0.767 193.368  0.00  0.00    +0.000 A 
ATOM     16  C   UNL     1      20.982   1.723 194.074  0.00  0.00    +0.000 A 
ATOM     17  C   UNL     1      22.469   5.294 187.967  0.00  0.00    +0.000 A 
ATOM     18  C   UNL     1      21.461   5.199 187.017  0.00  0.00    +0.000 A 
ATOM     19  C   UNL     1      19.114   0.502 194.601  0.00  0.00    +0.000 A 
ATOM     20  H   UNL     1      18.310   2.853 188.534  0.00  0.00    +0.000 HD
ENDROOT
TORSDOF 0
ENDMDL
MODEL 5
REMARK VINA RESULT:      -8.3      2.958      4.417
REMARK  Name = Ellipticine.pdbqt.pdb
REMARK  0 active torsions:
REMARK  status: ('A' for Active; 'I' for Inactive)
REMARK                            x       y       z     vdW  Elec       q    Type
REMARK                         _______ _______ _______ _____ _____    ______ ____
ROOT
ATOM      1  N   UNL     1      19.476   2.076 189.156  0.00  0.00    +0.000 N 
ATOM      2  N   UNL     1      23.822  -0.996 192.749  0.00  0.00    +0.000 NA
ATOM      3  C   UNL     1      21.621   1.430 189.124  0.00  0.00    +0.000 A 
ATOM      4  C   UNL     1      20.448   1.424 189.886  0.00  0.00    +0.000 A 
ATOM      5  C   UNL     1      22.778   0.813 189.664  0.00  0.00    +0.000 A 
ATOM      6  C   UNL     1      21.311   2.117 187.898  0.00  0.00    +0.000 A 
ATOM      7  C   UNL     1      20.367   0.836 191.158  0.00  0.00    +0.000 A 
ATOM      8  C   UNL     1      21.517   0.224 191.692  0.00  0.00    +0.000 A 
ATOM      9  C   UNL     1      22.715   0.215 190.945  0.00  0.00    +0.000 A 
ATOM     10  C   UNL     1      19.973   2.503 187.952  0.00  0.00    +0.000 A 
ATOM     11  C   UNL     1      24.065   0.802 188.867  0.00  0.00    +0.000 C 
ATOM     12  C   UNL     1      22.052   2.445 186.745  0.00  0.00    +0.000 A 
ATOM     13  C   UNL     1      19.049   0.887 191.893  0.00  0.00    +0.000 C 
ATOM     14  C   UNL     1      19.335   3.198 186.919  0.00  0.00    +0.000 A 
ATOM     15  C   UNL     1      21.511  -0.384 192.956  0.00  0.00    +0.000 A 
ATOM     16  C   UNL     1      23.816  -0.408 191.533  0.00  0.00    +0.000 A 
ATOM     17  C   UNL     1      21.434   3.139 185.702  0.00  0.00    +0.000 A 
ATOM     18  C   UNL     1      20.098   3.507 185.791  0.00  0.00    +0.000 A 
ATOM     19  C   UNL     1      22.667  -0.971 193.436  0.00  0.00    +0.000 A 
ATOM     20  H   UNL     1      18.524   2.214 189.477  0.00  0.00    +0.000 HD
ENDROOT
TORSDOF 0
ENDMDL
MODEL 6
REMARK VINA RESULT:      -7.5     19.779     23.162
REMARK  Name = Ellipticine.pdbqt.pdb
REMARK  0 active torsions:
REMARK  status: ('A' for Active; 'I' for Inactive)
REMARK                            x       y       z     vdW  Elec       q    Type
REMARK                         _______ _______ _______ _____ _____    ______ ____
ROOT
ATOM      1  N   UNL     1      23.194   8.434 169.144  0.00  0.00    +0.000 N 
ATOM      2  N   UNL     1      24.846   9.042 162.969  0.00  0.00    +0.000 NA
ATOM      3  C   UNL     1      24.903   9.092 167.854  0.00  0.00    +0.000 A 
ATOM      4  C   UNL     1      23.600   8.585 167.834  0.00  0.00    +0.000 A 
ATOM      5  C   UNL     1      25.549   9.337 166.615  0.00  0.00    +0.000 A 
ATOM      6  C   UNL     1      25.266   9.241 169.239  0.00  0.00    +0.000 A 
ATOM      7  C   UNL     1      22.906   8.307 166.646  0.00  0.00    +0.000 A 
ATOM      8  C   UNL     1      23.550   8.551 165.418  0.00  0.00    +0.000 A 
ATOM      9  C   UNL     1      24.865   9.063 165.407  0.00  0.00    +0.000 A 
ATOM     10  C   UNL     1      24.183   8.824 170.010  0.00  0.00    +0.000 A 
ATOM     11  C   UNL     1      26.960   9.886 166.599  0.00  0.00    +0.000 C 
ATOM     12  C   UNL     1      26.422   9.695 169.904  0.00  0.00    +0.000 A 
ATOM     13  C   UNL     1      21.502   7.761 166.742  0.00  0.00    +0.000 C 
ATOM     14  C   UNL     1      24.191   8.835 171.409  0.00  0.00    +0.000 A 
ATOM     15  C   UNL     1      22.918   8.298 164.191  0.00  0.00    +0.000 A 
ATOM     16  C   UNL     1      25.443   9.281 164.156  0.00  0.00    +0.000 A 
ATOM     17  C   UNL     1      26.451   9.715 171.301  0.00  0.00    +0.000 A 
ATOM     18  C   UNL     1      25.352   9.291 172.037  0.00  0.00    +0.000 A 
ATOM     19  C   UNL     1      23.593   8.554 163.012  0.00  0.00    +0.000 A 
ATOM     20  H   UNL     1      22.284   8.081 169.418  0.00  0.00    +0.000 HD
ENDROOT
TORSDOF 0
ENDMDL
MODEL 7
REMARK VINA RESULT:      -7.2     29.263     31.922
REMARK  Name = Ellipticine.pdbqt.pdb
REMARK  0 active torsions:
REMARK  status: ('A' for Active; 'I' for Inactive)
REMARK                            x       y       z     vdW  Elec       q    Type
REMARK                         _______ _______ _______ _____ _____    ______ ____
ROOT
ATOM      1  N   UNL     1      41.581  -7.716 164.772  0.00  0.00    +0.000 N 
ATOM      2  N   UNL     1      35.248  -6.684 164.994  0.00  0.00    +0.000 NA
ATOM      3  C   UNL     1      40.003  -6.851 166.104  0.00  0.00    +0.000 A 
ATOM      4  C   UNL     1      40.228  -7.471 164.871  0.00  0.00    +0.000 A 
ATOM      5  C   UNL     1      38.673  -6.494 166.446  0.00  0.00    +0.000 A 
ATOM      6  C   UNL     1      41.286  -6.733 166.746  0.00  0.00    +0.000 A 
ATOM      7  C   UNL     1      39.198  -7.754 163.960  0.00  0.00    +0.000 A 
ATOM      8  C   UNL     1      37.880  -7.399 164.302  0.00  0.00    +0.000 A 
ATOM      9  C   UNL     1      37.623  -6.772 165.540  0.00  0.00    +0.000 A 
ATOM     10  C   UNL     1      42.241  -7.279 165.891  0.00  0.00    +0.000 A 
ATOM     11  C   UNL     1      38.393  -5.821 167.773  0.00  0.00    +0.000 C 
ATOM     12  C   UNL     1      41.719  -6.208 167.980  0.00  0.00    +0.000 A 
ATOM     13  C   UNL     1      39.555  -8.427 162.656  0.00  0.00    +0.000 C 
ATOM     14  C   UNL     1      43.604  -7.331 166.201  0.00  0.00    +0.000 A 
ATOM     15  C   UNL     1      36.801  -7.651 163.440  0.00  0.00    +0.000 A 
ATOM     16  C   UNL     1      36.294  -6.447 165.814  0.00  0.00    +0.000 A 
ATOM     17  C   UNL     1      43.076  -6.250 168.309  0.00  0.00    +0.000 A 
ATOM     18  C   UNL     1      44.000  -6.803 167.432  0.00  0.00    +0.000 A 
ATOM     19  C   UNL     1      35.524  -7.283 163.823  0.00  0.00    +0.000 A 
ATOM     20  H   UNL     1      42.019  -8.161 163.973  0.00  0.00    +0.000 HD
ENDROOT
TORSDOF 0
ENDMDL
MODEL 8
REMARK VINA RESULT:      -7.0     28.979     31.738
REMARK  Name = Ellipticine.pdbqt.pdb
REMARK  0 active torsions:
REMARK  status: ('A' for Active; 'I' for Inactive)
REMARK                            x       y       z     vdW  Elec       q    Type
REMARK                         _______ _______ _______ _____ _____    ______ ____
ROOT
ATOM      1  N   UNL     1      41.180  -6.280 167.824  0.00  0.00    +0.000 N 
ATOM      2  N   UNL     1      36.056  -6.783 163.986  0.00  0.00    +0.000 NA
ATOM      3  C   UNL     1      40.631  -6.737 165.701  0.00  0.00    +0.000 A 
ATOM      4  C   UNL     1      40.114  -6.401 166.956  0.00  0.00    +0.000 A 
ATOM      5  C   UNL     1      39.724  -6.919 164.625  0.00  0.00    +0.000 A 
ATOM      6  C   UNL     1      42.060  -6.813 165.851  0.00  0.00    +0.000 A 
ATOM      7  C   UNL     1      38.741  -6.237 167.198  0.00  0.00    +0.000 A 
ATOM      8  C   UNL     1      37.843  -6.418 166.129  0.00  0.00    +0.000 A 
ATOM      9  C   UNL     1      38.336  -6.757 164.851  0.00  0.00    +0.000 A 
ATOM     10  C   UNL     1      42.365  -6.524 167.180  0.00  0.00    +0.000 A 
ATOM     11  C   UNL     1      40.248  -7.282 163.253  0.00  0.00    +0.000 C 
ATOM     12  C   UNL     1      43.123  -7.103 164.972  0.00  0.00    +0.000 A 
ATOM     13  C   UNL     1      38.294  -5.874 168.594  0.00  0.00    +0.000 C 
ATOM     14  C   UNL     1      43.672  -6.509 167.679  0.00  0.00    +0.000 A 
ATOM     15  C   UNL     1      36.458  -6.271 166.296  0.00  0.00    +0.000 A 
ATOM     16  C   UNL     1      37.392  -6.922 163.838  0.00  0.00    +0.000 A 
ATOM     17  C   UNL     1      44.436  -7.093 165.450  0.00  0.00    +0.000 A 
ATOM     18  C   UNL     1      44.701  -6.800 166.782  0.00  0.00    +0.000 A 
ATOM     19  C   UNL     1      35.617  -6.460 165.215  0.00  0.00    +0.000 A 
ATOM     20  H   UNL     1      41.087  -6.042 168.805  0.00  0.00    +0.000 HD
ENDROOT
TORSDOF 0
ENDMDL
MODEL 9
REMARK VINA RESULT:      -6.9     19.987     23.375
REMARK  Name = Ellipticine.pdbqt.pdb
REMARK  0 active torsions:
REMARK  status: ('A' for Active; 'I' for Inactive)
REMARK                            x       y       z     vdW  Elec       q    Type
REMARK                         _______ _______ _______ _____ _____    ______ ____
ROOT
ATOM      1  N   UNL     1      26.671   9.642 168.434  0.00  0.00    +0.000 N 
ATOM      2  N   UNL     1      23.207   8.504 163.148  0.00  0.00    +0.000 NA
ATOM      3  C   UNL     1      24.633   8.962 167.799  0.00  0.00    +0.000 A 
ATOM      4  C   UNL     1      25.883   9.383 167.332  0.00  0.00    +0.000 A 
ATOM      5  C   UNL     1      23.635   8.631 166.847  0.00  0.00    +0.000 A 
ATOM      6  C   UNL     1      24.704   8.979 169.236  0.00  0.00    +0.000 A 
ATOM      7  C   UNL     1      26.191   9.492 165.967  0.00  0.00    +0.000 A 
ATOM      8  C   UNL     1      25.198   9.163 165.024  0.00  0.00    +0.000 A 
ATOM      9  C   UNL     1      23.928   8.735 165.467  0.00  0.00    +0.000 A 
ATOM     10  C   UNL     1      25.981   9.406 169.595  0.00  0.00    +0.000 A 
ATOM     11  C   UNL     1      22.272   8.172 167.317  0.00  0.00    +0.000 C 
ATOM     12  C   UNL     1      23.792   8.669 170.265  0.00  0.00    +0.000 A 
ATOM     13  C   UNL     1      27.573   9.957 165.575  0.00  0.00    +0.000 C 
ATOM     14  C   UNL     1      26.398   9.540 170.924  0.00  0.00    +0.000 A 
ATOM     15  C   UNL     1      25.435   9.249 163.644  0.00  0.00    +0.000 A 
ATOM     16  C   UNL     1      22.992   8.426 164.480  0.00  0.00    +0.000 A 
ATOM     17  C   UNL     1      24.188   8.796 171.599  0.00  0.00    +0.000 A 
ATOM     18  C   UNL     1      25.470   9.224 171.919  0.00  0.00    +0.000 A 
ATOM     19  C   UNL     1      24.427   8.915 162.758  0.00  0.00    +0.000 A 
ATOM     20  H   UNL     1      27.631   9.964 168.381  0.00  0.00    +0.000 HD
ENDROOT
TORSDOF 0
ENDMDL
