MODEL 1
REMARK VINA RESULT:      -8.5      0.000      0.000
REMARK  Name = Enterolactone.pdbqt.pdb
REMARK  2 active torsions:
REMARK  status: ('A' for Active; 'I' for Inactive)
REMARK    1  A    between atoms: C_10  and  O_14
REMARK    2  A    between atoms: C_19  and  O_23
REMARK                            x       y       z     vdW  Elec       q    Type
REMARK                         _______ _______ _______ _____ _____    ______ ____
ROOT
ATOM      1  O   UNL     1      24.802   3.914 192.065  0.00  0.00    +0.000 OA
ATOM      2  O   UNL     1      24.704   4.386 189.784  0.00  0.00    +0.000 OA
ATOM      3  C   UNL     1      22.636   3.001 192.364  0.00  0.00    +0.000 C 
ATOM      4  C   UNL     1      22.819   3.371 190.982  0.00  0.00    +0.000 C 
ATOM      5  C   UNL     1      23.888   3.372 192.854  0.00  0.00    +0.000 C 
ATOM      6  C   UNL     1      24.206   3.963 190.811  0.00  0.00    +0.000 C 
ATOM      7  C   UNL     1      21.703   2.069 192.859  0.00  0.00    +0.000 C 
ATOM      8  C   UNL     1      20.748   1.129 193.343  0.00  0.00    +0.000 C 
ATOM      9  C   UNL     1      20.368   0.054 192.543  0.00  0.00    +0.000 C 
ATOM     10  C   UNL     1      19.426  -0.851 193.023  0.00  0.00    +0.000 C 
ATOM     11  C   UNL     1      18.863  -0.695 194.285  0.00  0.00    +0.000 C 
ATOM     12  C   UNL     1      19.247   0.382 195.080  0.00  0.00    +0.000 C 
ATOM     13  C   UNL     1      20.190   1.294 194.609  0.00  0.00    +0.000 C 
ATOM     14  C   UNL     1      21.896   3.145 189.936  0.00  0.00    +0.000 C 
ATOM     15  C   UNL     1      20.961   2.909 188.886  0.00  0.00    +0.000 C 
ATOM     16  C   UNL     1      19.599   3.066 189.123  0.00  0.00    +0.000 C 
ATOM     17  C   UNL     1      18.696   2.821 188.093  0.00  0.00    +0.000 C 
ATOM     18  C   UNL     1      19.137   2.423 186.836  0.00  0.00    +0.000 C 
ATOM     19  C   UNL     1      20.502   2.268 186.605  0.00  0.00    +0.000 C 
ATOM     20  C   UNL     1      21.416   2.510 187.630  0.00  0.00    +0.000 C 
ENDROOT
BRANCH  10  21
ATOM     21  O   UNL     1      19.032  -1.915 192.265  0.00  0.00    +0.000 OA
ATOM     22  H   UNL     1      18.660  -1.580 191.430  0.00  0.00    +0.000 HD
ENDBRANCH  10  21
BRANCH  17  23
ATOM     23  O   UNL     1      17.354   2.965 188.292  0.00  0.00    +0.000 OA
ATOM     24  H   UNL     1      17.215   3.634 188.985  0.00  0.00    +0.000 HD
ENDBRANCH  17  23
TORSDOF 2
ENDMDL
MODEL 2
REMARK VINA RESULT:      -6.6      2.691      4.208
REMARK  Name = Enterolactone.pdbqt.pdb
REMARK  2 active torsions:
REMARK  status: ('A' for Active; 'I' for Inactive)
REMARK    1  A    between atoms: C_10  and  O_14
REMARK    2  A    between atoms: C_19  and  O_23
REMARK                            x       y       z     vdW  Elec       q    Type
REMARK                         _______ _______ _______ _____ _____    ______ ____
ROOT
ATOM      1  O   UNL     1      24.215  -0.936 192.726  0.00  0.00    +0.000 OA
ATOM      2  O   UNL     1      25.989   0.060 191.589  0.00  0.00    +0.000 OA
ATOM      3  C   UNL     1      22.464   0.514 192.055  0.00  0.00    +0.000 C 
ATOM      4  C   UNL     1      23.703   0.938 191.449  0.00  0.00    +0.000 C 
ATOM      5  C   UNL     1      22.936  -0.596 192.756  0.00  0.00    +0.000 C 
ATOM      6  C   UNL     1      24.813   0.006 191.897  0.00  0.00    +0.000 C 
ATOM      7  C   UNL     1      21.168   0.820 191.597  0.00  0.00    +0.000 C 
ATOM      8  C   UNL     1      19.863   1.146 191.125  0.00  0.00    +0.000 C 
ATOM      9  C   UNL     1      19.648   1.334 189.762  0.00  0.00    +0.000 C 
ATOM     10  C   UNL     1      18.371   1.663 189.315  0.00  0.00    +0.000 C 
ATOM     11  C   UNL     1      17.315   1.804 190.209  0.00  0.00    +0.000 C 
ATOM     12  C   UNL     1      17.537   1.615 191.570  0.00  0.00    +0.000 C 
ATOM     13  C   UNL     1      18.812   1.285 192.029  0.00  0.00    +0.000 C 
ATOM     14  C   UNL     1      23.851   1.994 190.522  0.00  0.00    +0.000 C 
ATOM     15  C   UNL     1      23.992   3.057 189.584  0.00  0.00    +0.000 C 
ATOM     16  C   UNL     1      23.253   4.226 189.746  0.00  0.00    +0.000 C 
ATOM     17  C   UNL     1      23.391   5.252 188.816  0.00  0.00    +0.000 C 
ATOM     18  C   UNL     1      24.253   5.125 187.733  0.00  0.00    +0.000 C 
ATOM     19  C   UNL     1      24.990   3.953 187.577  0.00  0.00    +0.000 C 
ATOM     20  C   UNL     1      24.860   2.918 188.502  0.00  0.00    +0.000 C 
ENDROOT
BRANCH  10  21
ATOM     21  O   UNL     1      18.126   1.854 187.986  0.00  0.00    +0.000 OA
ATOM     22  H   UNL     1      18.117   0.987 187.544  0.00  0.00    +0.000 HD
ENDBRANCH  10  21
BRANCH  17  23
ATOM     23  O   UNL     1      22.680   6.410 188.944  0.00  0.00    +0.000 OA
ATOM     24  H   UNL     1      22.884   6.983 188.184  0.00  0.00    +0.000 HD
ENDBRANCH  17  23
TORSDOF 2
ENDMDL
MODEL 3
REMARK VINA RESULT:      -6.5      2.507      2.990
REMARK  Name = Enterolactone.pdbqt.pdb
REMARK  2 active torsions:
REMARK  status: ('A' for Active; 'I' for Inactive)
REMARK    1  A    between atoms: C_10  and  O_14
REMARK    2  A    between atoms: C_19  and  O_23
REMARK                            x       y       z     vdW  Elec       q    Type
REMARK                         _______ _______ _______ _____ _____    ______ ____
ROOT
ATOM      1  O   UNL     1      24.654   4.770 188.685  0.00  0.00    +0.000 OA
ATOM      2  O   UNL     1      22.806   5.021 187.287  0.00  0.00    +0.000 OA
ATOM      3  C   UNL     1      23.669   3.454 190.394  0.00  0.00    +0.000 C 
ATOM      4  C   UNL     1      22.688   3.739 189.375  0.00  0.00    +0.000 C 
ATOM      5  C   UNL     1      24.761   4.117 189.832  0.00  0.00    +0.000 C 
ATOM      6  C   UNL     1      23.332   4.590 188.296  0.00  0.00    +0.000 C 
ATOM      7  C   UNL     1      23.625   2.394 191.318  0.00  0.00    +0.000 C 
ATOM      8  C   UNL     1      23.558   1.319 192.252  0.00  0.00    +0.000 C 
ATOM      9  C   UNL     1      22.937   0.126 191.891  0.00  0.00    +0.000 C 
ATOM     10  C   UNL     1      22.869  -0.912 192.816  0.00  0.00    +0.000 C 
ATOM     11  C   UNL     1      23.413  -0.772 194.088  0.00  0.00    +0.000 C 
ATOM     12  C   UNL     1      24.034   0.423 194.443  0.00  0.00    +0.000 C 
ATOM     13  C   UNL     1      24.107   1.469 193.525  0.00  0.00    +0.000 C 
ATOM     14  C   UNL     1      21.366   3.240 189.338  0.00  0.00    +0.000 C 
ATOM     15  C   UNL     1      20.037   2.729 189.306  0.00  0.00    +0.000 C 
ATOM     16  C   UNL     1      19.308   2.619 190.486  0.00  0.00    +0.000 C 
ATOM     17  C   UNL     1      18.014   2.108 190.442  0.00  0.00    +0.000 C 
ATOM     18  C   UNL     1      17.445   1.707 189.239  0.00  0.00    +0.000 C 
ATOM     19  C   UNL     1      18.179   1.820 188.061  0.00  0.00    +0.000 C 
ATOM     20  C   UNL     1      19.476   2.331 188.093  0.00  0.00    +0.000 C 
ENDROOT
BRANCH  10  21
ATOM     21  O   UNL     1      22.267  -2.094 192.495  0.00  0.00    +0.000 OA
ATOM     22  H   UNL     1      22.727  -2.813 192.962  0.00  0.00    +0.000 HD
ENDBRANCH  10  21
BRANCH  17  23
ATOM     23  O   UNL     1      17.273   1.985 191.581  0.00  0.00    +0.000 OA
ATOM     24  H   UNL     1      17.593   1.210 192.076  0.00  0.00    +0.000 HD
ENDBRANCH  17  23
TORSDOF 2
ENDMDL
MODEL 4
REMARK VINA RESULT:      -6.4     21.572     24.968
REMARK  Name = Enterolactone.pdbqt.pdb
REMARK  2 active torsions:
REMARK  status: ('A' for Active; 'I' for Inactive)
REMARK    1  A    between atoms: C_10  and  O_14
REMARK    2  A    between atoms: C_19  and  O_23
REMARK                            x       y       z     vdW  Elec       q    Type
REMARK                         _______ _______ _______ _____ _____    ______ ____
ROOT
ATOM      1  O   UNL     1      24.798   8.887 163.801  0.00  0.00    +0.000 OA
ATOM      2  O   UNL     1      26.604   9.766 164.985  0.00  0.00    +0.000 OA
ATOM      3  C   UNL     1      23.317   8.475 165.606  0.00  0.00    +0.000 C 
ATOM      4  C   UNL     1      24.544   9.048 166.106  0.00  0.00    +0.000 C 
ATOM      5  C   UNL     1      23.627   8.460 164.245  0.00  0.00    +0.000 C 
ATOM      6  C   UNL     1      25.482   9.295 164.940  0.00  0.00    +0.000 C 
ATOM      7  C   UNL     1      22.069   8.484 166.256  0.00  0.00    +0.000 C 
ATOM      8  C   UNL     1      20.815   8.496 166.933  0.00  0.00    +0.000 C 
ATOM      9  C   UNL     1      20.495   9.554 167.780  0.00  0.00    +0.000 C 
ATOM     10  C   UNL     1      19.272   9.548 168.443  0.00  0.00    +0.000 C 
ATOM     11  C   UNL     1      18.370   8.503 168.271  0.00  0.00    +0.000 C 
ATOM     12  C   UNL     1      18.696   7.447 167.423  0.00  0.00    +0.000 C 
ATOM     13  C   UNL     1      19.919   7.443 166.754  0.00  0.00    +0.000 C 
ATOM     14  C   UNL     1      24.802   9.403 167.449  0.00  0.00    +0.000 C 
ATOM     15  C   UNL     1      25.053   9.764 168.805  0.00  0.00    +0.000 C 
ATOM     16  C   UNL     1      24.590   8.950 169.835  0.00  0.00    +0.000 C 
ATOM     17  C   UNL     1      24.832   9.319 171.154  0.00  0.00    +0.000 C 
ATOM     18  C   UNL     1      25.527  10.485 171.455  0.00  0.00    +0.000 C 
ATOM     19  C   UNL     1      25.989  11.295 170.419  0.00  0.00    +0.000 C 
ATOM     20  C   UNL     1      25.752  10.935 169.093  0.00  0.00    +0.000 C 
ENDROOT
BRANCH  10  21
ATOM     21  O   UNL     1      18.927  10.570 169.279  0.00  0.00    +0.000 OA
ATOM     22  H   UNL     1      19.425  11.364 169.020  0.00  0.00    +0.000 HD
ENDBRANCH  10  21
BRANCH  17  23
ATOM     23  O   UNL     1      24.391   8.545 172.187  0.00  0.00    +0.000 OA
ATOM     24  H   UNL     1      24.807   8.860 173.010  0.00  0.00    +0.000 HD
ENDBRANCH  17  23
TORSDOF 2
ENDMDL
MODEL 5
REMARK VINA RESULT:      -6.4      8.020     10.670
REMARK  Name = Enterolactone.pdbqt.pdb
REMARK  2 active torsions:
REMARK  status: ('A' for Active; 'I' for Inactive)
REMARK    1  A    between atoms: C_10  and  O_14
REMARK    2  A    between atoms: C_19  and  O_23
REMARK                            x       y       z     vdW  Elec       q    Type
REMARK                         _______ _______ _______ _____ _____    ______ ____
ROOT
ATOM      1  O   UNL     1      33.752  -1.091 191.555  0.00  0.00    +0.000 OA
ATOM      2  O   UNL     1      35.168  -0.063 190.014  0.00  0.00    +0.000 OA
ATOM      3  C   UNL     1      31.818   0.246 191.256  0.00  0.00    +0.000 C 
ATOM      4  C   UNL     1      32.864   0.701 190.371  0.00  0.00    +0.000 C 
ATOM      5  C   UNL     1      32.496  -0.810 191.864  0.00  0.00    +0.000 C 
ATOM      6  C   UNL     1      34.096  -0.159 190.584  0.00  0.00    +0.000 C 
ATOM      7  C   UNL     1      30.438   0.472 191.096  0.00  0.00    +0.000 C 
ATOM      8  C   UNL     1      29.045   0.717 190.923  0.00  0.00    +0.000 C 
ATOM      9  C   UNL     1      28.517   0.838 189.640  0.00  0.00    +0.000 C 
ATOM     10  C   UNL     1      27.157   1.088 189.484  0.00  0.00    +0.000 C 
ATOM     11  C   UNL     1      26.324   1.218 190.590  0.00  0.00    +0.000 C 
ATOM     12  C   UNL     1      26.857   1.096 191.871  0.00  0.00    +0.000 C 
ATOM     13  C   UNL     1      28.218   0.846 192.038  0.00  0.00    +0.000 C 
ATOM     14  C   UNL     1      32.742   1.724 189.404  0.00  0.00    +0.000 C 
ATOM     15  C   UNL     1      32.608   2.752 188.426  0.00  0.00    +0.000 C 
ATOM     16  C   UNL     1      31.862   3.891 188.717  0.00  0.00    +0.000 C 
ATOM     17  C   UNL     1      31.731   4.883 187.749  0.00  0.00    +0.000 C 
ATOM     18  C   UNL     1      32.332   4.750 186.503  0.00  0.00    +0.000 C 
ATOM     19  C   UNL     1      33.078   3.609 186.219  0.00  0.00    +0.000 C 
ATOM     20  C   UNL     1      33.217   2.608 187.180  0.00  0.00    +0.000 C 
ENDROOT
BRANCH  10  21
ATOM     21  O   UNL     1      26.609   1.212 188.241  0.00  0.00    +0.000 OA
ATOM     22  H   UNL     1      25.767   1.694 188.320  0.00  0.00    +0.000 HD
ENDBRANCH  10  21
BRANCH  17  23
ATOM     23  O   UNL     1      31.005   6.010 188.001  0.00  0.00    +0.000 OA
ATOM     24  H   UNL     1      30.389   5.825 188.732  0.00  0.00    +0.000 HD
ENDBRANCH  17  23
TORSDOF 2
ENDMDL
MODEL 6
REMARK VINA RESULT:      -6.3     26.393     29.276
REMARK  Name = Enterolactone.pdbqt.pdb
REMARK  2 active torsions:
REMARK  status: ('A' for Active; 'I' for Inactive)
REMARK    1  A    between atoms: C_10  and  O_14
REMARK    2  A    between atoms: C_19  and  O_23
REMARK                            x       y       z     vdW  Elec       q    Type
REMARK                         _______ _______ _______ _____ _____    ______ ____
ROOT
ATOM      1  O   UNL     1      29.342  -3.945 162.969  0.00  0.00    +0.000 OA
ATOM      2  O   UNL     1      27.096  -3.940 163.595  0.00  0.00    +0.000 OA
ATOM      3  C   UNL     1      30.072  -5.855 164.169  0.00  0.00    +0.000 C 
ATOM      4  C   UNL     1      28.663  -5.647 164.400  0.00  0.00    +0.000 C 
ATOM      5  C   UNL     1      30.309  -4.784 163.305  0.00  0.00    +0.000 C 
ATOM      6  C   UNL     1      28.215  -4.417 163.633  0.00  0.00    +0.000 C 
ATOM      7  C   UNL     1      30.772  -7.065 164.333  0.00  0.00    +0.000 C 
ATOM      8  C   UNL     1      31.466  -8.297 164.512  0.00  0.00    +0.000 C 
ATOM      9  C   UNL     1      30.801  -9.503 164.302  0.00  0.00    +0.000 C 
ATOM     10  C   UNL     1      31.487 -10.699 164.491  0.00  0.00    +0.000 C 
ATOM     11  C   UNL     1      32.822 -10.703 164.884  0.00  0.00    +0.000 C 
ATOM     12  C   UNL     1      33.481  -9.494 165.092  0.00  0.00    +0.000 C 
ATOM     13  C   UNL     1      32.803  -8.290 164.906  0.00  0.00    +0.000 C 
ATOM     14  C   UNL     1      27.814  -6.495 165.146  0.00  0.00    +0.000 C 
ATOM     15  C   UNL     1      26.963  -7.358 165.896  0.00  0.00    +0.000 C 
ATOM     16  C   UNL     1      27.435  -7.952 167.063  0.00  0.00    +0.000 C 
ATOM     17  C   UNL     1      26.598  -8.802 167.780  0.00  0.00    +0.000 C 
ATOM     18  C   UNL     1      25.303  -9.063 167.347  0.00  0.00    +0.000 C 
ATOM     19  C   UNL     1      24.837  -8.464 166.179  0.00  0.00    +0.000 C 
ATOM     20  C   UNL     1      25.666  -7.612 165.451  0.00  0.00    +0.000 C 
ENDROOT
BRANCH  10  21
ATOM     21  O   UNL     1      30.866 -11.897 164.294  0.00  0.00    +0.000 OA
ATOM     22  H   UNL     1      31.505 -12.518 163.903  0.00  0.00    +0.000 HD
ENDBRANCH  10  21
BRANCH  17  23
ATOM     23  O   UNL     1      27.029  -9.401 168.927  0.00  0.00    +0.000 OA
ATOM     24  H   UNL     1      27.903  -9.036 169.157  0.00  0.00    +0.000 HD
ENDBRANCH  17  23
TORSDOF 2
ENDMDL
MODEL 7
REMARK VINA RESULT:      -6.1     23.566     26.180
REMARK  Name = Enterolactone.pdbqt.pdb
REMARK  2 active torsions:
REMARK  status: ('A' for Active; 'I' for Inactive)
REMARK    1  A    between atoms: C_10  and  O_14
REMARK    2  A    between atoms: C_19  and  O_23
REMARK                            x       y       z     vdW  Elec       q    Type
REMARK                         _______ _______ _______ _____ _____    ______ ____
ROOT
ATOM      1  O   UNL     1      12.578 -19.596 172.579  0.00  0.00    +0.000 OA
ATOM      2  O   UNL     1      10.963 -17.915 172.558  0.00  0.00    +0.000 OA
ATOM      3  C   UNL     1      13.803 -18.931 174.496  0.00  0.00    +0.000 C 
ATOM      4  C   UNL     1      12.709 -18.016 174.279  0.00  0.00    +0.000 C 
ATOM      5  C   UNL     1      13.576 -19.797 173.426  0.00  0.00    +0.000 C 
ATOM      6  C   UNL     1      11.943 -18.451 173.043  0.00  0.00    +0.000 C 
ATOM      7  C   UNL     1      14.480 -19.144 175.712  0.00  0.00    +0.000 C 
ATOM      8  C   UNL     1      15.160 -19.341 176.949  0.00  0.00    +0.000 C 
ATOM      9  C   UNL     1      14.472 -19.181 178.150  0.00  0.00    +0.000 C 
ATOM     10  C   UNL     1      15.150 -19.365 179.351  0.00  0.00    +0.000 C 
ATOM     11  C   UNL     1      16.498 -19.705 179.366  0.00  0.00    +0.000 C 
ATOM     12  C   UNL     1      17.180 -19.864 178.162  0.00  0.00    +0.000 C 
ATOM     13  C   UNL     1      16.511 -19.681 176.953  0.00  0.00    +0.000 C 
ATOM     14  C   UNL     1      12.351 -16.940 175.122  0.00  0.00    +0.000 C 
ATOM     15  C   UNL     1      11.994 -15.860 175.980  0.00  0.00    +0.000 C 
ATOM     16  C   UNL     1      12.989 -15.095 176.580  0.00  0.00    +0.000 C 
ATOM     17  C   UNL     1      12.627 -14.050 177.425  0.00  0.00    +0.000 C 
ATOM     18  C   UNL     1      11.289 -13.764 177.676  0.00  0.00    +0.000 C 
ATOM     19  C   UNL     1      10.298 -14.533 177.071  0.00  0.00    +0.000 C 
ATOM     20  C   UNL     1      10.649 -15.583 176.223  0.00  0.00    +0.000 C 
ENDROOT
BRANCH  10  21
ATOM     21  O   UNL     1      14.505 -19.216 180.545  0.00  0.00    +0.000 OA
ATOM     22  H   UNL     1      14.701 -19.990 181.101  0.00  0.00    +0.000 HD
ENDBRANCH  10  21
BRANCH  17  23
ATOM     23  O   UNL     1      13.577 -13.281 178.031  0.00  0.00    +0.000 OA
ATOM     24  H   UNL     1      13.353 -13.199 178.975  0.00  0.00    +0.000 HD
ENDBRANCH  17  23
TORSDOF 2
ENDMDL
MODEL 8
REMARK VINA RESULT:      -6.0     21.938     25.888
REMARK  Name = Enterolactone.pdbqt.pdb
REMARK  2 active torsions:
REMARK  status: ('A' for Active; 'I' for Inactive)
REMARK    1  A    between atoms: C_10  and  O_14
REMARK    2  A    between atoms: C_19  and  O_23
REMARK                            x       y       z     vdW  Elec       q    Type
REMARK                         _______ _______ _______ _____ _____    ______ ____
ROOT
ATOM      1  O   UNL     1      26.229  16.451 169.027  0.00  0.00    +0.000 OA
ATOM      2  O   UNL     1      25.117  15.723 170.942  0.00  0.00    +0.000 OA
ATOM      3  C   UNL     1      27.107  14.380 168.279  0.00  0.00    +0.000 C 
ATOM      4  C   UNL     1      26.346  14.176 169.488  0.00  0.00    +0.000 C 
ATOM      5  C   UNL     1      26.927  15.757 168.142  0.00  0.00    +0.000 C 
ATOM      6  C   UNL     1      25.800  15.512 169.957  0.00  0.00    +0.000 C 
ATOM      7  C   UNL     1      27.416  13.401 167.316  0.00  0.00    +0.000 C 
ATOM      8  C   UNL     1      27.726  12.395 166.355  0.00  0.00    +0.000 C 
ATOM      9  C   UNL     1      26.842  11.339 166.148  0.00  0.00    +0.000 C 
ATOM     10  C   UNL     1      27.162  10.357 165.215  0.00  0.00    +0.000 C 
ATOM     11  C   UNL     1      28.348  10.419 164.491  0.00  0.00    +0.000 C 
ATOM     12  C   UNL     1      29.228  11.477 164.702  0.00  0.00    +0.000 C 
ATOM     13  C   UNL     1      28.917  12.466 165.635  0.00  0.00    +0.000 C 
ATOM     14  C   UNL     1      26.076  12.928 170.095  0.00  0.00    +0.000 C 
ATOM     15  C   UNL     1      25.805  11.665 170.697  0.00  0.00    +0.000 C 
ATOM     16  C   UNL     1      26.792  10.684 170.723  0.00  0.00    +0.000 C 
ATOM     17  C   UNL     1      26.510   9.451 171.304  0.00  0.00    +0.000 C 
ATOM     18  C   UNL     1      25.261   9.190 171.856  0.00  0.00    +0.000 C 
ATOM     19  C   UNL     1      24.278  10.177 171.827  0.00  0.00    +0.000 C 
ATOM     20  C   UNL     1      24.548  11.415 171.247  0.00  0.00    +0.000 C 
ENDROOT
BRANCH  10  21
ATOM     21  O   UNL     1      26.318   9.309 164.988  0.00  0.00    +0.000 OA
ATOM     22  H   UNL     1      25.433   9.661 164.789  0.00  0.00    +0.000 HD
ENDBRANCH  10  21
BRANCH  17  23
ATOM     23  O   UNL     1      27.454   8.467 171.345  0.00  0.00    +0.000 OA
ATOM     24  H   UNL     1      27.202   7.826 172.034  0.00  0.00    +0.000 HD
ENDBRANCH  17  23
TORSDOF 2
ENDMDL
MODEL 9
REMARK VINA RESULT:      -5.9      5.098      8.269
REMARK  Name = Enterolactone.pdbqt.pdb
REMARK  2 active torsions:
REMARK  status: ('A' for Active; 'I' for Inactive)
REMARK    1  A    between atoms: C_10  and  O_14
REMARK    2  A    between atoms: C_19  and  O_23
REMARK                            x       y       z     vdW  Elec       q    Type
REMARK                         _______ _______ _______ _____ _____    ______ ____
ROOT
ATOM      1  O   UNL     1      28.285   3.143 194.842  0.00  0.00    +0.000 OA
ATOM      2  O   UNL     1      30.532   3.295 194.238  0.00  0.00    +0.000 OA
ATOM      3  C   UNL     1      27.299   3.243 192.689  0.00  0.00    +0.000 C 
ATOM      4  C   UNL     1      28.735   3.312 192.568  0.00  0.00    +0.000 C 
ATOM      5  C   UNL     1      27.205   3.134 194.077  0.00  0.00    +0.000 C 
ATOM      6  C   UNL     1      29.349   3.257 193.955  0.00  0.00    +0.000 C 
ATOM      7  C   UNL     1      26.398   2.850 191.682  0.00  0.00    +0.000 C 
ATOM      8  C   UNL     1      25.499   2.457 190.647  0.00  0.00    +0.000 C 
ATOM      9  C   UNL     1      25.908   1.532 189.690  0.00  0.00    +0.000 C 
ATOM     10  C   UNL     1      25.025   1.165 188.679  0.00  0.00    +0.000 C 
ATOM     11  C   UNL     1      23.746   1.709 188.614  0.00  0.00    +0.000 C 
ATOM     12  C   UNL     1      23.344   2.634 189.574  0.00  0.00    +0.000 C 
ATOM     13  C   UNL     1      24.220   3.009 190.591  0.00  0.00    +0.000 C 
ATOM     14  C   UNL     1      29.462   3.341 191.357  0.00  0.00    +0.000 C 
ATOM     15  C   UNL     1      30.188   3.364 190.131  0.00  0.00    +0.000 C 
ATOM     16  C   UNL     1      29.700   4.094 189.051  0.00  0.00    +0.000 C 
ATOM     17  C   UNL     1      30.413   4.099 187.855  0.00  0.00    +0.000 C 
ATOM     18  C   UNL     1      31.600   3.387 187.728  0.00  0.00    +0.000 C 
ATOM     19  C   UNL     1      32.083   2.658 188.813  0.00  0.00    +0.000 C 
ATOM     20  C   UNL     1      31.378   2.646 190.015  0.00  0.00    +0.000 C 
ENDROOT
BRANCH  10  21
ATOM     21  O   UNL     1      25.393   0.261 187.725  0.00  0.00    +0.000 OA
ATOM     22  H   UNL     1      25.017   0.539 186.872  0.00  0.00    +0.000 HD
ENDBRANCH  10  21
BRANCH  17  23
ATOM     23  O   UNL     1      29.962   4.803 186.777  0.00  0.00    +0.000 OA
ATOM     24  H   UNL     1      30.100   4.266 185.977  0.00  0.00    +0.000 HD
ENDBRANCH  17  23
TORSDOF 2
ENDMDL
