MODEL 1
REMARK VINA RESULT:      -8.5      0.000      0.000
REMARK  Name = Estradiol.pdbqt.pdb
REMARK  2 active torsions:
REMARK  status: ('A' for Active; 'I' for Inactive)
REMARK    1  A    between atoms: C_5  and  O_19
REMARK    2  A    between atoms: C_18  and  O_21
REMARK                            x       y       z     vdW  Elec       q    Type
REMARK                         _______ _______ _______ _____ _____    ______ ____
ROOT
ATOM      1  C   UNL     1      21.040   3.537 187.400  0.00  0.00    +0.000 C 
ATOM      2  C   UNL     1      19.954   3.435 188.579  0.00  0.00    +0.000 C 
ATOM      3  C   UNL     1      20.057   2.414 189.633  0.00  0.00    +0.000 A 
ATOM      4  C   UNL     1      21.251   1.526 189.908  0.00  0.00    +0.000 A 
ATOM      5  C   UNL     1      21.298   5.055 187.307  0.00  0.00    +0.000 C 
ATOM      6  C   UNL     1      22.198   2.763 187.850  0.00  0.00    +0.000 C 
ATOM      7  C   UNL     1      19.577   4.776 188.914  0.00  0.00    +0.000 C 
ATOM      8  C   UNL     1      22.309   1.794 189.003  0.00  0.00    +0.000 C 
ATOM      9  C   UNL     1      20.419   5.773 188.161  0.00  0.00    +0.000 C 
ATOM     10  C   UNL     1      19.014   2.184 190.567  0.00  0.00    +0.000 A 
ATOM     11  C   UNL     1      20.402   3.009 186.088  0.00  0.00    +0.000 C 
ATOM     12  C   UNL     1      21.308   0.498 191.001  0.00  0.00    +0.000 A 
ATOM     13  C   UNL     1      19.079   1.159 191.672  0.00  0.00    +0.000 A 
ATOM     14  C   UNL     1      20.206   0.314 191.891  0.00  0.00    +0.000 A 
ATOM     15  C   UNL     1      22.435  -0.306 191.169  0.00  0.00    +0.000 A 
ATOM     16  C   UNL     1      20.235  -0.637 192.902  0.00  0.00    +0.000 A 
ATOM     17  C   UNL     1      22.470  -1.264 192.183  0.00  0.00    +0.000 A 
ATOM     18  C   UNL     1      21.376  -1.420 193.035  0.00  0.00    +0.000 A 
ENDROOT
BRANCH   5  19
ATOM     19  O   UNL     1      22.488   5.585 186.857  0.00  0.00    +0.000 OA
ATOM     20  H   UNL     1      23.253   5.065 187.163  0.00  0.00    +0.000 HD
ENDBRANCH   5  19
BRANCH  18  21
ATOM     21  O   UNL     1      21.401  -2.359 194.026  0.00  0.00    +0.000 OA
ATOM     22  H   UNL     1      20.646  -2.198 194.620  0.00  0.00    +0.000 HD
ENDBRANCH  18  21
TORSDOF 2
ENDMDL
MODEL 2
REMARK VINA RESULT:      -8.4      2.068      2.310
REMARK  Name = Estradiol.pdbqt.pdb
REMARK  2 active torsions:
REMARK  status: ('A' for Active; 'I' for Inactive)
REMARK    1  A    between atoms: C_5  and  O_19
REMARK    2  A    between atoms: C_18  and  O_21
REMARK                            x       y       z     vdW  Elec       q    Type
REMARK                         _______ _______ _______ _____ _____    ______ ____
ROOT
ATOM      1  C   UNL     1      22.042   3.774 188.844  0.00  0.00    +0.000 C 
ATOM      2  C   UNL     1      20.501   3.376 189.060  0.00  0.00    +0.000 C 
ATOM      3  C   UNL     1      20.048   2.694 190.283  0.00  0.00    +0.000 A 
ATOM      4  C   UNL     1      20.849   2.502 191.552  0.00  0.00    +0.000 A 
ATOM      5  C   UNL     1      21.947   5.207 188.281  0.00  0.00    +0.000 C 
ATOM      6  C   UNL     1      22.669   3.693 190.164  0.00  0.00    +0.000 C 
ATOM      7  C   UNL     1      19.715   4.432 188.495  0.00  0.00    +0.000 C 
ATOM      8  C   UNL     1      22.140   3.077 191.436  0.00  0.00    +0.000 C 
ATOM      9  C   UNL     1      20.594   5.571 188.045  0.00  0.00    +0.000 C 
ATOM     10  C   UNL     1      18.739   2.164 190.411  0.00  0.00    +0.000 A 
ATOM     11  C   UNL     1      22.662   2.815 187.794  0.00  0.00    +0.000 C 
ATOM     12  C   UNL     1      20.339   1.799 192.777  0.00  0.00    +0.000 A 
ATOM     13  C   UNL     1      18.225   1.469 191.648  0.00  0.00    +0.000 A 
ATOM     14  C   UNL     1      19.011   1.276 192.821  0.00  0.00    +0.000 A 
ATOM     15  C   UNL     1      21.152   1.634 193.898  0.00  0.00    +0.000 A 
ATOM     16  C   UNL     1      18.523   0.615 193.940  0.00  0.00    +0.000 A 
ATOM     17  C   UNL     1      20.668   0.970 195.025  0.00  0.00    +0.000 A 
ATOM     18  C   UNL     1      19.365   0.469 195.036  0.00  0.00    +0.000 A 
ENDROOT
BRANCH   5  19
ATOM     19  O   UNL     1      22.946   6.143 188.443  0.00  0.00    +0.000 OA
ATOM     20  H   UNL     1      22.584   7.030 188.622  0.00  0.00    +0.000 HD
ENDBRANCH   5  19
BRANCH  18  21
ATOM     21  O   UNL     1      18.886  -0.187 196.134  0.00  0.00    +0.000 OA
ATOM     22  H   UNL     1      18.142   0.326 196.497  0.00  0.00    +0.000 HD
ENDBRANCH  18  21
TORSDOF 2
ENDMDL
MODEL 3
REMARK VINA RESULT:      -8.4      2.140      6.497
REMARK  Name = Estradiol.pdbqt.pdb
REMARK  2 active torsions:
REMARK  status: ('A' for Active; 'I' for Inactive)
REMARK    1  A    between atoms: C_5  and  O_19
REMARK    2  A    between atoms: C_18  and  O_21
REMARK                            x       y       z     vdW  Elec       q    Type
REMARK                         _______ _______ _______ _____ _____    ______ ____
ROOT
ATOM      1  C   UNL     1      19.446   2.220 191.082  0.00  0.00    +0.000 C 
ATOM      2  C   UNL     1      18.922   2.161 189.566  0.00  0.00    +0.000 C 
ATOM      3  C   UNL     1      19.690   2.759 188.463  0.00  0.00    +0.000 A 
ATOM      4  C   UNL     1      21.117   3.260 188.532  0.00  0.00    +0.000 A 
ATOM      5  C   UNL     1      19.177   0.788 191.590  0.00  0.00    +0.000 C 
ATOM      6  C   UNL     1      20.866   2.567 191.005  0.00  0.00    +0.000 C 
ATOM      7  C   UNL     1      18.291   0.887 189.392  0.00  0.00    +0.000 C 
ATOM      8  C   UNL     1      21.660   3.083 189.829  0.00  0.00    +0.000 C 
ATOM      9  C   UNL     1      18.472   0.029 190.619  0.00  0.00    +0.000 C 
ATOM     10  C   UNL     1      19.158   2.888 187.154  0.00  0.00    +0.000 A 
ATOM     11  C   UNL     1      18.590   3.248 191.867  0.00  0.00    +0.000 C 
ATOM     12  C   UNL     1      21.860   3.860 187.373  0.00  0.00    +0.000 A 
ATOM     13  C   UNL     1      19.912   3.480 185.989  0.00  0.00    +0.000 A 
ATOM     14  C   UNL     1      21.247   3.971 186.088  0.00  0.00    +0.000 A 
ATOM     15  C   UNL     1      23.164   4.330 187.526  0.00  0.00    +0.000 A 
ATOM     16  C   UNL     1      21.913   4.532 185.007  0.00  0.00    +0.000 A 
ATOM     17  C   UNL     1      23.840   4.894 186.444  0.00  0.00    +0.000 A 
ATOM     18  C   UNL     1      23.210   4.990 185.201  0.00  0.00    +0.000 A 
ENDROOT
BRANCH   5  19
ATOM     19  O   UNL     1      19.915   0.200 192.595  0.00  0.00    +0.000 OA
ATOM     20  H   UNL     1      20.099  -0.738 192.405  0.00  0.00    +0.000 HD
ENDBRANCH   5  19
BRANCH  18  21
ATOM     21  O   UNL     1      23.863   5.546 184.138  0.00  0.00    +0.000 OA
ATOM     22  H   UNL     1      23.234   6.107 183.651  0.00  0.00    +0.000 HD
ENDBRANCH  18  21
TORSDOF 2
ENDMDL
MODEL 4
REMARK VINA RESULT:      -8.3      1.646      6.360
REMARK  Name = Estradiol.pdbqt.pdb
REMARK  2 active torsions:
REMARK  status: ('A' for Active; 'I' for Inactive)
REMARK    1  A    between atoms: C_5  and  O_19
REMARK    2  A    between atoms: C_18  and  O_21
REMARK                            x       y       z     vdW  Elec       q    Type
REMARK                         _______ _______ _______ _____ _____    ______ ____
ROOT
ATOM      1  C   UNL     1      21.311   0.478 192.408  0.00  0.00    +0.000 C 
ATOM      2  C   UNL     1      19.969   0.711 191.557  0.00  0.00    +0.000 C 
ATOM      3  C   UNL     1      20.003   1.318 190.218  0.00  0.00    +0.000 A 
ATOM      4  C   UNL     1      21.237   1.566 189.376  0.00  0.00    +0.000 A 
ATOM      5  C   UNL     1      21.115  -0.946 192.968  0.00  0.00    +0.000 C 
ATOM      6  C   UNL     1      22.417   0.596 191.456  0.00  0.00    +0.000 C 
ATOM      7  C   UNL     1      19.113  -0.408 191.816  0.00  0.00    +0.000 C 
ATOM      8  C   UNL     1      22.409   1.129 190.044  0.00  0.00    +0.000 C 
ATOM      9  C   UNL     1      19.822  -1.442 192.654  0.00  0.00    +0.000 C 
ATOM     10  C   UNL     1      18.823   1.708 189.534  0.00  0.00    +0.000 A 
ATOM     11  C   UNL     1      21.359   1.517 193.559  0.00  0.00    +0.000 C 
ATOM     12  C   UNL     1      21.218   2.188 188.010  0.00  0.00    +0.000 A 
ATOM     13  C   UNL     1      18.807   2.321 188.156  0.00  0.00    +0.000 A 
ATOM     14  C   UNL     1      19.987   2.570 187.396  0.00  0.00    +0.000 A 
ATOM     15  C   UNL     1      22.403   2.413 187.310  0.00  0.00    +0.000 A 
ATOM     16  C   UNL     1      19.948   3.155 186.138  0.00  0.00    +0.000 A 
ATOM     17  C   UNL     1      22.372   3.001 186.046  0.00  0.00    +0.000 A 
ATOM     18  C   UNL     1      21.152   3.365 185.474  0.00  0.00    +0.000 A 
ENDROOT
BRANCH   5  19
ATOM     19  O   UNL     1      22.168  -1.777 193.285  0.00  0.00    +0.000 OA
ATOM     20  H   UNL     1      22.314  -1.824 194.247  0.00  0.00    +0.000 HD
ENDBRANCH   5  19
BRANCH  18  21
ATOM     21  O   UNL     1      21.113   3.945 184.239  0.00  0.00    +0.000 OA
ATOM     22  H   UNL     1      22.018   3.960 183.879  0.00  0.00    +0.000 HD
ENDBRANCH  18  21
TORSDOF 2
ENDMDL
MODEL 5
REMARK VINA RESULT:      -8.2      1.943      6.506
REMARK  Name = Estradiol.pdbqt.pdb
REMARK  2 active torsions:
REMARK  status: ('A' for Active; 'I' for Inactive)
REMARK    1  A    between atoms: C_5  and  O_19
REMARK    2  A    between atoms: C_18  and  O_21
REMARK                            x       y       z     vdW  Elec       q    Type
REMARK                         _______ _______ _______ _____ _____    ______ ____
ROOT
ATOM      1  C   UNL     1      19.928   0.049 192.475  0.00  0.00    +0.000 C 
ATOM      2  C   UNL     1      21.376   0.494 191.943  0.00  0.00    +0.000 C 
ATOM      3  C   UNL     1      21.561   1.051 190.594  0.00  0.00    +0.000 A 
ATOM      4  C   UNL     1      20.466   1.505 189.653  0.00  0.00    +0.000 A 
ATOM      5  C   UNL     1      19.904   0.618 193.910  0.00  0.00    +0.000 C 
ATOM      6  C   UNL     1      18.958   0.670 191.573  0.00  0.00    +0.000 C 
ATOM      7  C   UNL     1      22.071   1.067 193.057  0.00  0.00    +0.000 C 
ATOM      8  C   UNL     1      19.186   1.331 190.235  0.00  0.00    +0.000 C 
ATOM      9  C   UNL     1      21.164   1.175 194.256  0.00  0.00    +0.000 C 
ATOM     10  C   UNL     1      22.848   1.269 190.037  0.00  0.00    +0.000 A 
ATOM     11  C   UNL     1      19.861  -1.500 192.501  0.00  0.00    +0.000 C 
ATOM     12  C   UNL     1      20.709   2.070 188.283  0.00  0.00    +0.000 A 
ATOM     13  C   UNL     1      23.087   1.850 188.665  0.00  0.00    +0.000 A 
ATOM     14  C   UNL     1      22.036   2.243 187.786  0.00  0.00    +0.000 A 
ATOM     15  C   UNL     1      19.642   2.436 187.462  0.00  0.00    +0.000 A 
ATOM     16  C   UNL     1      22.281   2.755 186.519  0.00  0.00    +0.000 A 
ATOM     17  C   UNL     1      19.881   2.952 186.188  0.00  0.00    +0.000 A 
ATOM     18  C   UNL     1      21.192   3.105 185.731  0.00  0.00    +0.000 A 
ENDROOT
BRANCH   5  19
ATOM     19  O   UNL     1      18.738   0.968 194.556  0.00  0.00    +0.000 OA
ATOM     20  H   UNL     1      18.916   1.409 195.407  0.00  0.00    +0.000 HD
ENDBRANCH   5  19
BRANCH  18  21
ATOM     21  O   UNL     1      21.434   3.605 184.483  0.00  0.00    +0.000 OA
ATOM     22  H   UNL     1      22.315   4.018 184.483  0.00  0.00    +0.000 HD
ENDBRANCH  18  21
TORSDOF 2
ENDMDL
MODEL 6
REMARK VINA RESULT:      -8.0      2.235      6.749
REMARK  Name = Estradiol.pdbqt.pdb
REMARK  2 active torsions:
REMARK  status: ('A' for Active; 'I' for Inactive)
REMARK    1  A    between atoms: C_5  and  O_19
REMARK    2  A    between atoms: C_18  and  O_21
REMARK                            x       y       z     vdW  Elec       q    Type
REMARK                         _______ _______ _______ _____ _____    ______ ____
ROOT
ATOM      1  C   UNL     1      21.476   1.401 191.086  0.00  0.00    +0.000 C 
ATOM      2  C   UNL     1      22.408   2.684 190.831  0.00  0.00    +0.000 C 
ATOM      3  C   UNL     1      22.559   3.271 189.491  0.00  0.00    +0.000 A 
ATOM      4  C   UNL     1      21.721   2.950 188.272  0.00  0.00    +0.000 A 
ATOM      5  C   UNL     1      20.723   1.781 192.378  0.00  0.00    +0.000 C 
ATOM      6  C   UNL     1      20.615   1.288 189.907  0.00  0.00    +0.000 C 
ATOM      7  C   UNL     1      22.268   3.534 191.975  0.00  0.00    +0.000 C 
ATOM      8  C   UNL     1      20.730   1.981 188.571  0.00  0.00    +0.000 C 
ATOM      9  C   UNL     1      21.213   3.003 192.911  0.00  0.00    +0.000 C 
ATOM     10  C   UNL     1      23.520   4.276 189.209  0.00  0.00    +0.000 A 
ATOM     11  C   UNL     1      22.382   0.165 191.324  0.00  0.00    +0.000 C 
ATOM     12  C   UNL     1      21.913   3.580 186.923  0.00  0.00    +0.000 A 
ATOM     13  C   UNL     1      23.701   4.917 187.855  0.00  0.00    +0.000 A 
ATOM     14  C   UNL     1      22.917   4.575 186.715  0.00  0.00    +0.000 A 
ATOM     15  C   UNL     1      21.119   3.206 185.838  0.00  0.00    +0.000 A 
ATOM     16  C   UNL     1      23.117   5.164 185.474  0.00  0.00    +0.000 A 
ATOM     17  C   UNL     1      21.315   3.794 184.588  0.00  0.00    +0.000 A 
ATOM     18  C   UNL     1      22.307   4.761 184.419  0.00  0.00    +0.000 A 
ENDROOT
BRANCH   5  19
ATOM     19  O   UNL     1      19.473   1.288 192.688  0.00  0.00    +0.000 OA
ATOM     20  H   UNL     1      19.455   0.884 193.574  0.00  0.00    +0.000 HD
ENDBRANCH   5  19
BRANCH  18  21
ATOM     21  O   UNL     1      22.508   5.337 183.197  0.00  0.00    +0.000 OA
ATOM     22  H   UNL     1      21.746   5.911 182.999  0.00  0.00    +0.000 HD
ENDBRANCH  18  21
TORSDOF 2
ENDMDL
MODEL 7
REMARK VINA RESULT:      -7.6      1.644      6.463
REMARK  Name = Estradiol.pdbqt.pdb
REMARK  2 active torsions:
REMARK  status: ('A' for Active; 'I' for Inactive)
REMARK    1  A    between atoms: C_5  and  O_19
REMARK    2  A    between atoms: C_18  and  O_21
REMARK                            x       y       z     vdW  Elec       q    Type
REMARK                         _______ _______ _______ _____ _____    ______ ____
ROOT
ATOM      1  C   UNL     1      20.858   0.034 194.289  0.00  0.00    +0.000 C 
ATOM      2  C   UNL     1      19.935   1.075 193.487  0.00  0.00    +0.000 C 
ATOM      3  C   UNL     1      20.277   1.514 192.125  0.00  0.00    +0.000 A 
ATOM      4  C   UNL     1      21.330   0.906 191.224  0.00  0.00    +0.000 A 
ATOM      5  C   UNL     1      19.823  -0.927 194.911  0.00  0.00    +0.000 C 
ATOM      6  C   UNL     1      21.724  -0.591 193.289  0.00  0.00    +0.000 C 
ATOM      7  C   UNL     1      18.576   0.771 193.823  0.00  0.00    +0.000 C 
ATOM      8  C   UNL     1      21.982  -0.181 191.859  0.00  0.00    +0.000 C 
ATOM      9  C   UNL     1      18.499  -0.474 194.669  0.00  0.00    +0.000 C 
ATOM     10  C   UNL     1      19.587   2.571 191.476  0.00  0.00    +0.000 A 
ATOM     11  C   UNL     1      21.627   0.800 195.397  0.00  0.00    +0.000 C 
ATOM     12  C   UNL     1      21.640   1.391 189.837  0.00  0.00    +0.000 A 
ATOM     13  C   UNL     1      19.892   3.047 190.077  0.00  0.00    +0.000 A 
ATOM     14  C   UNL     1      20.911   2.475 189.260  0.00  0.00    +0.000 A 
ATOM     15  C   UNL     1      22.650   0.797 189.081  0.00  0.00    +0.000 A 
ATOM     16  C   UNL     1      21.187   2.944 187.983  0.00  0.00    +0.000 A 
ATOM     17  C   UNL     1      22.934   1.263 187.797  0.00  0.00    +0.000 A 
ATOM     18  C   UNL     1      22.204   2.327 187.263  0.00  0.00    +0.000 A 
ENDROOT
BRANCH   5  19
ATOM     19  O   UNL     1      20.110  -2.241 195.215  0.00  0.00    +0.000 OA
ATOM     20  H   UNL     1      19.645  -2.858 194.623  0.00  0.00    +0.000 HD
ENDBRANCH   5  19
BRANCH  18  21
ATOM     21  O   UNL     1      22.479   2.792 186.009  0.00  0.00    +0.000 OA
ATOM     22  H   UNL     1      23.050   2.144 185.560  0.00  0.00    +0.000 HD
ENDBRANCH  18  21
TORSDOF 2
ENDMDL
MODEL 8
REMARK VINA RESULT:      -7.3     19.892     24.106
REMARK  Name = Estradiol.pdbqt.pdb
REMARK  2 active torsions:
REMARK  status: ('A' for Active; 'I' for Inactive)
REMARK    1  A    between atoms: C_5  and  O_19
REMARK    2  A    between atoms: C_18  and  O_21
REMARK                            x       y       z     vdW  Elec       q    Type
REMARK                         _______ _______ _______ _____ _____    ______ ____
ROOT
ATOM      1  C   UNL     1      25.753  10.370 170.635  0.00  0.00    +0.000 C 
ATOM      2  C   UNL     1      24.392   9.634 170.206  0.00  0.00    +0.000 C 
ATOM      3  C   UNL     1      24.088   9.340 168.797  0.00  0.00    +0.000 A 
ATOM      4  C   UNL     1      25.049   9.439 167.632  0.00  0.00    +0.000 A 
ATOM      5  C   UNL     1      26.212   9.549 171.859  0.00  0.00    +0.000 C 
ATOM      6  C   UNL     1      26.648  10.267 169.481  0.00  0.00    +0.000 C 
ATOM      7  C   UNL     1      24.107   8.662 171.219  0.00  0.00    +0.000 C 
ATOM      8  C   UNL     1      26.333   9.861 168.061  0.00  0.00    +0.000 C 
ATOM      9  C   UNL     1      25.234   8.583 172.217  0.00  0.00    +0.000 C 
ATOM     10  C   UNL     1      22.816   8.870 168.381  0.00  0.00    +0.000 A 
ATOM     11  C   UNL     1      25.424  11.828 171.047  0.00  0.00    +0.000 C 
ATOM     12  C   UNL     1      24.690   9.124 166.209  0.00  0.00    +0.000 A 
ATOM     13  C   UNL     1      22.461   8.542 166.951  0.00  0.00    +0.000 A 
ATOM     14  C   UNL     1      23.379   8.671 165.868  0.00  0.00    +0.000 A 
ATOM     15  C   UNL     1      25.626   9.271 165.185  0.00  0.00    +0.000 A 
ATOM     16  C   UNL     1      23.023   8.384 164.557  0.00  0.00    +0.000 A 
ATOM     17  C   UNL     1      25.275   8.984 163.866  0.00  0.00    +0.000 A 
ATOM     18  C   UNL     1      23.984   8.546 163.565  0.00  0.00    +0.000 A 
ENDROOT
BRANCH   5  19
ATOM     19  O   UNL     1      27.534   9.435 172.230  0.00  0.00    +0.000 OA
ATOM     20  H   UNL     1      27.809  10.166 172.813  0.00  0.00    +0.000 HD
ENDBRANCH   5  19
BRANCH  18  21
ATOM     21  O   UNL     1      23.632   8.268 162.276  0.00  0.00    +0.000 OA
ATOM     22  H   UNL     1      23.664   9.095 161.763  0.00  0.00    +0.000 HD
ENDBRANCH  18  21
TORSDOF 2
ENDMDL
MODEL 9
REMARK VINA RESULT:      -7.1      2.022      6.916
REMARK  Name = Estradiol.pdbqt.pdb
REMARK  2 active torsions:
REMARK  status: ('A' for Active; 'I' for Inactive)
REMARK    1  A    between atoms: C_5  and  O_19
REMARK    2  A    between atoms: C_18  and  O_21
REMARK                            x       y       z     vdW  Elec       q    Type
REMARK                         _______ _______ _______ _____ _____    ______ ____
ROOT
ATOM      1  C   UNL     1      21.382   0.213 195.069  0.00  0.00    +0.000 C 
ATOM      2  C   UNL     1      20.063   0.275 194.155  0.00  0.00    +0.000 C 
ATOM      3  C   UNL     1      19.987   1.147 192.973  0.00  0.00    +0.000 A 
ATOM      4  C   UNL     1      21.142   1.877 192.321  0.00  0.00    +0.000 A 
ATOM      5  C   UNL     1      21.555  -1.301 195.314  0.00  0.00    +0.000 C 
ATOM      6  C   UNL     1      22.454   0.813 194.272  0.00  0.00    +0.000 C 
ATOM      7  C   UNL     1      19.531  -1.054 194.101  0.00  0.00    +0.000 C 
ATOM      8  C   UNL     1      22.360   1.620 193.000  0.00  0.00    +0.000 C 
ATOM      9  C   UNL     1      20.458  -2.030 194.782  0.00  0.00    +0.000 C 
ATOM     10  C   UNL     1      18.775   1.361 192.268  0.00  0.00    +0.000 A 
ATOM     11  C   UNL     1      21.100   0.953 196.402  0.00  0.00    +0.000 C 
ATOM     12  C   UNL     1      21.012   2.756 191.111  0.00  0.00    +0.000 A 
ATOM     13  C   UNL     1      18.651   2.235 191.044  0.00  0.00    +0.000 A 
ATOM     14  C   UNL     1      19.750   2.935 190.468  0.00  0.00    +0.000 A 
ATOM     15  C   UNL     1      22.121   3.422 190.589  0.00  0.00    +0.000 A 
ATOM     16  C   UNL     1      19.607   3.750 189.353  0.00  0.00    +0.000 A 
ATOM     17  C   UNL     1      21.985   4.243 189.469  0.00  0.00    +0.000 A 
ATOM     18  C   UNL     1      20.735   4.399 188.865  0.00  0.00    +0.000 A 
ENDROOT
BRANCH   5  19
ATOM     19  O   UNL     1      22.779  -1.884 195.560  0.00  0.00    +0.000 OA
ATOM     20  H   UNL     1      23.023  -1.826 196.501  0.00  0.00    +0.000 HD
ENDBRANCH   5  19
BRANCH  18  21
ATOM     21  O   UNL     1      20.593   5.205 187.772  0.00  0.00    +0.000 OA
ATOM     22  H   UNL     1      19.736   5.008 187.355  0.00  0.00    +0.000 HD
ENDBRANCH  18  21
TORSDOF 2
ENDMDL
