MODEL 1
REMARK VINA RESULT:      -9.2      0.000      0.000
REMARK  Name = 
REMARK  11 active torsions:
REMARK  status: ('A' for Active; 'I' for Inactive)
REMARK    1  A    between atoms: O_1  and  C_16
REMARK    2  A    between atoms: O_1  and  C_22
REMARK    3  A    between atoms: O_6  and  C_24
REMARK    4  A    between atoms: O_8  and  C_26
REMARK    5  A    between atoms: O_11  and  C_36
REMARK    6  A    between atoms: O_11  and  C_41
REMARK    7  A    between atoms: O_12  and  C_37
REMARK    8  A    between atoms: O_12  and  C_42
REMARK    9  A    between atoms: O_13  and  C_39
REMARK   10  A    between atoms: C_17  and  C_23
REMARK   11  A    between atoms: C_35  and  C_40
REMARK                            x       y       z     vdW  Elec       q    Type
REMARK                         _______ _______ _______ _____ _____    ______ ____
ROOT
ATOM      1  O   UNL     1      25.729   1.218 188.544  0.00  0.00    +0.000 OA
ATOM      2  O   UNL     1      24.753   0.481 186.604  0.00  0.00    +0.000 OA
ATOM      3  O   UNL     1      18.017   2.049 191.801  0.00  0.00    +0.000 OA
ATOM      4  O   UNL     1      17.398   1.735 189.491  0.00  0.00    +0.000 OA
ATOM      5  C   UNL     1      23.825   1.841 189.709  0.00  0.00    +0.000 C 
ATOM      6  C   UNL     1      23.409   0.913 188.584  0.00  0.00    +0.000 C 
ATOM      7  C   UNL     1      22.877   1.700 190.892  0.00  0.00    +0.000 C 
ATOM      8  C   UNL     1      22.103   1.385 187.945  0.00  0.00    +0.000 C 
ATOM      9  C   UNL     1      21.421   1.728 190.428  0.00  0.00    +0.000 A 
ATOM     10  C   UNL     1      21.051   1.542 189.056  0.00  0.00    +0.000 A 
ATOM     11  C   UNL     1      25.267   1.438 189.888  0.00  0.00    +0.000 C 
ATOM     12  C   UNL     1      24.660   0.863 187.759  0.00  0.00    +0.000 C 
ATOM     13  C   UNL     1      20.415   1.904 191.397  0.00  0.00    +0.000 A 
ATOM     14  C   UNL     1      19.689   1.538 188.689  0.00  0.00    +0.000 A 
ATOM     15  C   UNL     1      19.098   1.892 190.990  0.00  0.00    +0.000 A 
ATOM     16  C   UNL     1      18.745   1.713 189.676  0.00  0.00    +0.000 A 
ATOM     17  C   UNL     1      16.943   1.950 190.843  0.00  0.00    +0.000 C 
ENDROOT
BRANCH   8  18
ATOM     18  C   UNL     1      22.231   2.626 187.058  0.00  0.00    +0.000 A 
ATOM     19  C   UNL     1      23.082   3.702 187.369  0.00  0.00    +0.000 A 
ATOM     20  C   UNL     1      21.481   2.702 185.873  0.00  0.00    +0.000 A 
ATOM     21  C   UNL     1      21.597   3.800 185.020  0.00  0.00    +0.000 A 
ATOM     22  C   UNL     1      23.200   4.826 186.539  0.00  0.00    +0.000 A 
ATOM     23  C   UNL     1      22.450   4.862 185.362  0.00  0.00    +0.000 A 
BRANCH  21  24
ATOM     24  O   UNL     1      20.926   3.959 183.829  0.00  0.00    +0.000 OA
ATOM     25  C   UNL     1      21.651   3.628 182.647  0.00  0.00    +0.000 C 
ENDBRANCH  21  24
BRANCH  22  26
ATOM     26  O   UNL     1      24.081   5.755 187.021  0.00  0.00    +0.000 OA
ATOM     27  C   UNL     1      25.254   5.288 187.672  0.00  0.00    +0.000 C 
ENDBRANCH  22  26
BRANCH  23  28
ATOM     28  O   UNL     1      22.519   5.918 184.488  0.00  0.00    +0.000 OA
ATOM     29  H   UNL     1      23.355   5.787 184.000  0.00  0.00    +0.000 HD
ENDBRANCH  23  28
ENDBRANCH   8  18
BRANCH   7  30
ATOM     30  O   UNL     1      23.082   0.432 191.517  0.00  0.00    +0.000 OA
BRANCH  30  34
ATOM     31  O   UNL     1      24.297   1.435 193.245  0.00  0.00    +0.000 OA
ATOM     32  O   UNL     1      25.239   0.275 196.606  0.00  0.00    +0.000 OA
ATOM     33  O   UNL     1      25.820   2.557 196.397  0.00  0.00    +0.000 OA
ATOM     34  C   UNL     1      23.238   0.525 192.939  0.00  0.00    +0.000 C 
ATOM     35  C   UNL     1      23.529  -0.903 193.453  0.00  0.00    +0.000 C 
ATOM     36  C   UNL     1      24.986   0.173 195.200  0.00  0.00    +0.000 C 
ATOM     37  C   UNL     1      23.918  -0.889 194.938  0.00  0.00    +0.000 C 
ATOM     38  C   UNL     1      24.511   1.516 194.651  0.00  0.00    +0.000 C 
ATOM     39  C   UNL     1      25.576   2.553 194.992  0.00  0.00    +0.000 C 
ATOM     40  C   UNL     1      26.235   1.271 196.859  0.00  0.00    +0.000 C 
ATOM     41  C   UNL     1      26.440   1.355 198.360  0.00  0.00    +0.000 C 
BRANCH  35  42
ATOM     42  O   UNL     1      22.362  -1.720 193.258  0.00  0.00    +0.000 OA
ATOM     43  H   UNL     1      21.617  -1.101 193.137  0.00  0.00    +0.000 HD
ENDBRANCH  35  42
BRANCH  37  44
ATOM     44  O   UNL     1      24.445  -2.169 195.325  0.00  0.00    +0.000 OA
ATOM     45  H   UNL     1      24.894  -2.026 196.180  0.00  0.00    +0.000 HD
ENDBRANCH  37  44
ENDBRANCH  30  34
ENDBRANCH   7  30
TORSDOF 8
ENDMDL
MODEL 2
REMARK VINA RESULT:      -8.7      3.206      4.018
REMARK  Name = 
REMARK  11 active torsions:
REMARK  status: ('A' for Active; 'I' for Inactive)
REMARK    1  A    between atoms: O_1  and  C_16
REMARK    2  A    between atoms: O_1  and  C_22
REMARK    3  A    between atoms: O_6  and  C_24
REMARK    4  A    between atoms: O_8  and  C_26
REMARK    5  A    between atoms: O_11  and  C_36
REMARK    6  A    between atoms: O_11  and  C_41
REMARK    7  A    between atoms: O_12  and  C_37
REMARK    8  A    between atoms: O_12  and  C_42
REMARK    9  A    between atoms: O_13  and  C_39
REMARK   10  A    between atoms: C_17  and  C_23
REMARK   11  A    between atoms: C_35  and  C_40
REMARK                            x       y       z     vdW  Elec       q    Type
REMARK                         _______ _______ _______ _____ _____    ______ ____
ROOT
ATOM      1  O   UNL     1      25.674   0.733 188.292  0.00  0.00    +0.000 OA
ATOM      2  O   UNL     1      23.658   0.258 187.309  0.00  0.00    +0.000 OA
ATOM      3  O   UNL     1      21.715   0.930 195.712  0.00  0.00    +0.000 OA
ATOM      4  O   UNL     1      19.779   0.931 194.273  0.00  0.00    +0.000 OA
ATOM      5  C   UNL     1      24.950   1.145 190.454  0.00  0.00    +0.000 C 
ATOM      6  C   UNL     1      23.862   0.376 189.729  0.00  0.00    +0.000 C 
ATOM      7  C   UNL     1      24.929   0.817 191.942  0.00  0.00    +0.000 C 
ATOM      8  C   UNL     1      22.479   0.906 190.106  0.00  0.00    +0.000 C 
ATOM      9  C   UNL     1      23.506   0.879 192.492  0.00  0.00    +0.000 A 
ATOM     10  C   UNL     1      22.353   0.881 191.639  0.00  0.00    +0.000 A 
ATOM     11  C   UNL     1      26.160   0.752 189.645  0.00  0.00    +0.000 C 
ATOM     12  C   UNL     1      24.326   0.471 188.307  0.00  0.00    +0.000 C 
ATOM     13  C   UNL     1      23.330   0.895 193.889  0.00  0.00    +0.000 A 
ATOM     14  C   UNL     1      21.061   0.899 192.203  0.00  0.00    +0.000 A 
ATOM     15  C   UNL     1      22.047   0.912 194.393  0.00  0.00    +0.000 A 
ATOM     16  C   UNL     1      20.946   0.913 193.575  0.00  0.00    +0.000 A 
ATOM     17  C   UNL     1      20.274   0.944 195.628  0.00  0.00    +0.000 C 
ENDROOT
BRANCH   8  18
ATOM     18  C   UNL     1      22.118   2.262 189.496  0.00  0.00    +0.000 A 
ATOM     19  C   UNL     1      23.027   3.333 189.427  0.00  0.00    +0.000 A 
ATOM     20  C   UNL     1      20.832   2.455 188.965  0.00  0.00    +0.000 A 
ATOM     21  C   UNL     1      20.477   3.664 188.367  0.00  0.00    +0.000 A 
ATOM     22  C   UNL     1      22.687   4.566 188.850  0.00  0.00    +0.000 A 
ATOM     23  C   UNL     1      21.405   4.719 188.321  0.00  0.00    +0.000 A 
BRANCH  21  24
ATOM     24  O   UNL     1      19.256   3.946 187.800  0.00  0.00    +0.000 OA
ATOM     25  C   UNL     1      18.363   2.846 187.646  0.00  0.00    +0.000 C 
ENDBRANCH  21  24
BRANCH  22  26
ATOM     26  O   UNL     1      23.713   5.471 188.883  0.00  0.00    +0.000 OA
ATOM     27  C   UNL     1      24.621   5.490 187.791  0.00  0.00    +0.000 C 
ENDBRANCH  22  26
BRANCH  23  28
ATOM     28  O   UNL     1      20.998   5.887 187.726  0.00  0.00    +0.000 OA
ATOM     29  H   UNL     1      20.426   5.606 186.985  0.00  0.00    +0.000 HD
ENDBRANCH  23  28
ENDBRANCH   8  18
BRANCH   7  30
ATOM     30  O   UNL     1      25.386  -0.522 192.140  0.00  0.00    +0.000 OA
BRANCH  30  34
ATOM     31  O   UNL     1      27.718  -0.573 192.304  0.00  0.00    +0.000 OA
ATOM     32  O   UNL     1      29.998  -2.213 194.679  0.00  0.00    +0.000 OA
ATOM     33  O   UNL     1      31.257  -0.785 193.278  0.00  0.00    +0.000 OA
ATOM     34  C   UNL     1      26.496  -0.609 193.043  0.00  0.00    +0.000 C 
ATOM     35  C   UNL     1      26.329  -1.928 193.832  0.00  0.00    +0.000 C 
ATOM     36  C   UNL     1      28.842  -2.073 193.845  0.00  0.00    +0.000 C 
ATOM     37  C   UNL     1      27.573  -2.224 194.683  0.00  0.00    +0.000 C 
ATOM     38  C   UNL     1      28.843  -0.705 193.168  0.00  0.00    +0.000 C 
ATOM     39  C   UNL     1      30.153  -0.573 192.399  0.00  0.00    +0.000 C 
ATOM     40  C   UNL     1      31.190  -2.067 193.901  0.00  0.00    +0.000 C 
ATOM     41  C   UNL     1      32.377  -2.196 194.839  0.00  0.00    +0.000 C 
BRANCH  35  42
ATOM     42  O   UNL     1      25.169  -1.830 194.675  0.00  0.00    +0.000 OA
ATOM     43  H   UNL     1      24.397  -1.910 194.081  0.00  0.00    +0.000 HD
ENDBRANCH  35  42
BRANCH  37  44
ATOM     44  O   UNL     1      27.519  -3.569 195.188  0.00  0.00    +0.000 OA
ATOM     45  H   UNL     1      27.359  -4.140 194.412  0.00  0.00    +0.000 HD
ENDBRANCH  37  44
ENDBRANCH  30  34
ENDBRANCH   7  30
TORSDOF 8
ENDMDL
MODEL 3
REMARK VINA RESULT:      -8.6      4.100      7.288
REMARK  Name = 
REMARK  11 active torsions:
REMARK  status: ('A' for Active; 'I' for Inactive)
REMARK    1  A    between atoms: O_1  and  C_16
REMARK    2  A    between atoms: O_1  and  C_22
REMARK    3  A    between atoms: O_6  and  C_24
REMARK    4  A    between atoms: O_8  and  C_26
REMARK    5  A    between atoms: O_11  and  C_36
REMARK    6  A    between atoms: O_11  and  C_41
REMARK    7  A    between atoms: O_12  and  C_37
REMARK    8  A    between atoms: O_12  and  C_42
REMARK    9  A    between atoms: O_13  and  C_39
REMARK   10  A    between atoms: C_17  and  C_23
REMARK   11  A    between atoms: C_35  and  C_40
REMARK                            x       y       z     vdW  Elec       q    Type
REMARK                         _______ _______ _______ _____ _____    ______ ____
ROOT
ATOM      1  O   UNL     1      24.405   4.458 187.242  0.00  0.00    +0.000 OA
ATOM      2  O   UNL     1      23.109   2.680 186.598  0.00  0.00    +0.000 OA
ATOM      3  O   UNL     1      27.672  -0.433 193.256  0.00  0.00    +0.000 OA
ATOM      4  O   UNL     1      25.824  -1.843 192.613  0.00  0.00    +0.000 OA
ATOM      5  C   UNL     1      25.344   3.564 189.162  0.00  0.00    +0.000 C 
ATOM      6  C   UNL     1      24.803   2.422 188.324  0.00  0.00    +0.000 C 
ATOM      7  C   UNL     1      26.550   3.104 189.971  0.00  0.00    +0.000 C 
ATOM      8  C   UNL     1      24.151   1.359 189.208  0.00  0.00    +0.000 C 
ATOM      9  C   UNL     1      26.267   1.768 190.657  0.00  0.00    +0.000 A 
ATOM     10  C   UNL     1      25.169   0.929 190.278  0.00  0.00    +0.000 A 
ATOM     11  C   UNL     1      25.543   4.620 188.105  0.00  0.00    +0.000 C 
ATOM     12  C   UNL     1      23.972   3.158 187.317  0.00  0.00    +0.000 C 
ATOM     13  C   UNL     1      27.146   1.339 191.670  0.00  0.00    +0.000 A 
ATOM     14  C   UNL     1      24.978  -0.312 190.918  0.00  0.00    +0.000 A 
ATOM     15  C   UNL     1      26.918   0.117 192.267  0.00  0.00    +0.000 A 
ATOM     16  C   UNL     1      25.867  -0.685 191.902  0.00  0.00    +0.000 A 
ATOM     17  C   UNL     1      26.971  -1.676 193.472  0.00  0.00    +0.000 C 
ENDROOT
BRANCH   8  18
ATOM     18  C   UNL     1      22.793   1.753 189.793  0.00  0.00    +0.000 A 
ATOM     19  C   UNL     1      22.639   2.236 191.105  0.00  0.00    +0.000 A 
ATOM     20  C   UNL     1      21.643   1.645 188.992  0.00  0.00    +0.000 A 
ATOM     21  C   UNL     1      20.393   2.028 189.479  0.00  0.00    +0.000 A 
ATOM     22  C   UNL     1      21.390   2.607 191.623  0.00  0.00    +0.000 A 
ATOM     23  C   UNL     1      20.271   2.499 190.797  0.00  0.00    +0.000 A 
BRANCH  21  24
ATOM     24  O   UNL     1      19.214   1.983 188.771  0.00  0.00    +0.000 OA
ATOM     25  C   UNL     1      19.155   2.781 187.591  0.00  0.00    +0.000 C 
ENDBRANCH  21  24
BRANCH  22  26
ATOM     26  O   UNL     1      21.459   3.051 192.916  0.00  0.00    +0.000 OA
ATOM     27  C   UNL     1      21.171   2.126 193.955  0.00  0.00    +0.000 C 
ENDBRANCH  22  26
BRANCH  23  28
ATOM     28  O   UNL     1      19.015   2.856 191.221  0.00  0.00    +0.000 OA
ATOM     29  H   UNL     1      19.158   3.313 192.073  0.00  0.00    +0.000 HD
ENDBRANCH  23  28
ENDBRANCH   8  18
BRANCH   7  30
ATOM     30  O   UNL     1      27.656   2.886 189.093  0.00  0.00    +0.000 OA
BRANCH  30  34
ATOM     31  O   UNL     1      29.313   4.506 189.400  0.00  0.00    +0.000 OA
ATOM     32  O   UNL     1      32.957   4.267 189.845  0.00  0.00    +0.000 OA
ATOM     33  O   UNL     1      32.290   6.504 190.213  0.00  0.00    +0.000 OA
ATOM     34  C   UNL     1      28.921   3.165 189.704  0.00  0.00    +0.000 C 
ATOM     35  C   UNL     1      29.924   2.125 189.154  0.00  0.00    +0.000 C 
ATOM     36  C   UNL     1      31.670   3.932 189.314  0.00  0.00    +0.000 C 
ATOM     37  C   UNL     1      31.360   2.459 189.584  0.00  0.00    +0.000 C 
ATOM     38  C   UNL     1      30.593   4.802 189.954  0.00  0.00    +0.000 C 
ATOM     39  C   UNL     1      30.976   6.259 189.714  0.00  0.00    +0.000 C 
ATOM     40  C   UNL     1      33.251   5.645 189.600  0.00  0.00    +0.000 C 
ATOM     41  C   UNL     1      34.609   5.948 190.207  0.00  0.00    +0.000 C 
BRANCH  35  42
ATOM     42  O   UNL     1      29.559   0.820 189.633  0.00  0.00    +0.000 OA
ATOM     43  H   UNL     1      29.226   0.950 190.542  0.00  0.00    +0.000 HD
ENDBRANCH  35  42
BRANCH  37  44
ATOM     44  O   UNL     1      32.297   1.655 188.849  0.00  0.00    +0.000 OA
ATOM     45  H   UNL     1      33.005   2.263 188.563  0.00  0.00    +0.000 HD
ENDBRANCH  37  44
ENDBRANCH  30  34
ENDBRANCH   7  30
TORSDOF 8
ENDMDL
MODEL 4
REMARK VINA RESULT:      -8.6      3.869      7.060
REMARK  Name = 
REMARK  11 active torsions:
REMARK  status: ('A' for Active; 'I' for Inactive)
REMARK    1  A    between atoms: O_1  and  C_16
REMARK    2  A    between atoms: O_1  and  C_22
REMARK    3  A    between atoms: O_6  and  C_24
REMARK    4  A    between atoms: O_8  and  C_26
REMARK    5  A    between atoms: O_11  and  C_36
REMARK    6  A    between atoms: O_11  and  C_41
REMARK    7  A    between atoms: O_12  and  C_37
REMARK    8  A    between atoms: O_12  and  C_42
REMARK    9  A    between atoms: O_13  and  C_39
REMARK   10  A    between atoms: C_17  and  C_23
REMARK   11  A    between atoms: C_35  and  C_40
REMARK                            x       y       z     vdW  Elec       q    Type
REMARK                         _______ _______ _______ _____ _____    ______ ____
ROOT
ATOM      1  O   UNL     1      24.098   4.670 187.092  0.00  0.00    +0.000 OA
ATOM      2  O   UNL     1      22.816   2.898 186.404  0.00  0.00    +0.000 OA
ATOM      3  O   UNL     1      27.325  -0.312 193.052  0.00  0.00    +0.000 OA
ATOM      4  O   UNL     1      25.489  -1.718 192.367  0.00  0.00    +0.000 OA
ATOM      5  C   UNL     1      25.021   3.746 189.006  0.00  0.00    +0.000 C 
ATOM      6  C   UNL     1      24.494   2.616 188.142  0.00  0.00    +0.000 C 
ATOM      7  C   UNL     1      26.222   3.277 189.818  0.00  0.00    +0.000 C 
ATOM      8  C   UNL     1      23.837   1.536 189.001  0.00  0.00    +0.000 C 
ATOM      9  C   UNL     1      25.937   1.929 190.478  0.00  0.00    +0.000 A 
ATOM     10  C   UNL     1      24.846   1.092 190.073  0.00  0.00    +0.000 A 
ATOM     11  C   UNL     1      25.227   4.821 187.969  0.00  0.00    +0.000 C 
ATOM     12  C   UNL     1      23.669   3.366 187.140  0.00  0.00    +0.000 C 
ATOM     13  C   UNL     1      26.807   1.485 191.493  0.00  0.00    +0.000 A 
ATOM     14  C   UNL     1      24.654  -0.161 190.691  0.00  0.00    +0.000 A 
ATOM     15  C   UNL     1      26.579   0.253 192.066  0.00  0.00    +0.000 A 
ATOM     16  C   UNL     1      25.534  -0.547 191.676  0.00  0.00    +0.000 A 
ATOM     17  C   UNL     1      26.627  -1.561 193.240  0.00  0.00    +0.000 C 
ENDROOT
BRANCH   8  18
ATOM     18  C   UNL     1      22.471   1.915 189.580  0.00  0.00    +0.000 A 
ATOM     19  C   UNL     1      21.276   1.813 188.846  0.00  0.00    +0.000 A 
ATOM     20  C   UNL     1      22.393   2.373 190.906  0.00  0.00    +0.000 A 
ATOM     21  C   UNL     1      21.162   2.692 191.481  0.00  0.00    +0.000 A 
ATOM     22  C   UNL     1      20.031   2.149 189.395  0.00  0.00    +0.000 A 
ATOM     23  C   UNL     1      19.987   2.588 190.719  0.00  0.00    +0.000 A 
BRANCH  21  24
ATOM     24  O   UNL     1      20.975   3.126 192.773  0.00  0.00    +0.000 OA
ATOM     25  C   UNL     1      21.110   2.142 193.796  0.00  0.00    +0.000 C 
ENDBRANCH  21  24
BRANCH  22  26
ATOM     26  O   UNL     1      18.996   1.978 188.515  0.00  0.00    +0.000 OA
ATOM     27  C   UNL     1      18.654   3.065 187.669  0.00  0.00    +0.000 C 
ENDBRANCH  22  26
BRANCH  23  28
ATOM     28  O   UNL     1      18.807   2.922 191.336  0.00  0.00    +0.000 OA
ATOM     29  H   UNL     1      18.136   2.341 190.927  0.00  0.00    +0.000 HD
ENDBRANCH  23  28
ENDBRANCH   8  18
BRANCH   7  30
ATOM     30  O   UNL     1      27.336   3.078 188.948  0.00  0.00    +0.000 OA
BRANCH  30  34
ATOM     31  O   UNL     1      28.924   3.889 190.461  0.00  0.00    +0.000 OA
ATOM     32  O   UNL     1      32.533   3.280 190.825  0.00  0.00    +0.000 OA
ATOM     33  O   UNL     1      31.782   4.537 192.681  0.00  0.00    +0.000 OA
ATOM     34  C   UNL     1      28.549   2.774 189.648  0.00  0.00    +0.000 C 
ATOM     35  C   UNL     1      29.616   2.447 188.578  0.00  0.00    +0.000 C 
ATOM     36  C   UNL     1      31.296   3.489 190.136  0.00  0.00    +0.000 C 
ATOM     37  C   UNL     1      31.008   2.308 189.209  0.00  0.00    +0.000 C 
ATOM     38  C   UNL     1      30.153   3.638 191.137  0.00  0.00    +0.000 C 
ATOM     39  C   UNL     1      30.513   4.783 192.077  0.00  0.00    +0.000 C 
ATOM     40  C   UNL     1      32.806   4.380 191.699  0.00  0.00    +0.000 C 
ATOM     41  C   UNL     1      34.109   4.091 192.420  0.00  0.00    +0.000 C 
BRANCH  35  42
ATOM     42  O   UNL     1      29.254   1.226 187.911  0.00  0.00    +0.000 OA
ATOM     43  H   UNL     1      28.304   1.090 188.095  0.00  0.00    +0.000 HD
ENDBRANCH  35  42
BRANCH  37  44
ATOM     44  O   UNL     1      32.016   2.278 188.185  0.00  0.00    +0.000 OA
ATOM     45  H   UNL     1      32.837   1.986 188.625  0.00  0.00    +0.000 HD
ENDBRANCH  37  44
ENDBRANCH  30  34
ENDBRANCH   7  30
TORSDOF 8
ENDMDL
MODEL 5
REMARK VINA RESULT:      -8.6      3.041      4.071
REMARK  Name = 
REMARK  11 active torsions:
REMARK  status: ('A' for Active; 'I' for Inactive)
REMARK    1  A    between atoms: O_1  and  C_16
REMARK    2  A    between atoms: O_1  and  C_22
REMARK    3  A    between atoms: O_6  and  C_24
REMARK    4  A    between atoms: O_8  and  C_26
REMARK    5  A    between atoms: O_11  and  C_36
REMARK    6  A    between atoms: O_11  and  C_41
REMARK    7  A    between atoms: O_12  and  C_37
REMARK    8  A    between atoms: O_12  and  C_42
REMARK    9  A    between atoms: O_13  and  C_39
REMARK   10  A    between atoms: C_17  and  C_23
REMARK   11  A    between atoms: C_35  and  C_40
REMARK                            x       y       z     vdW  Elec       q    Type
REMARK                         _______ _______ _______ _____ _____    ______ ____
ROOT
ATOM      1  O   UNL     1      25.835   0.853 188.185  0.00  0.00    +0.000 OA
ATOM      2  O   UNL     1      23.960   0.287 186.993  0.00  0.00    +0.000 OA
ATOM      3  O   UNL     1      21.152   0.622 195.168  0.00  0.00    +0.000 OA
ATOM      4  O   UNL     1      19.372   0.550 193.542  0.00  0.00    +0.000 OA
ATOM      5  C   UNL     1      24.876   1.164 190.271  0.00  0.00    +0.000 C 
ATOM      6  C   UNL     1      23.914   0.353 189.424  0.00  0.00    +0.000 C 
ATOM      7  C   UNL     1      24.727   0.796 191.742  0.00  0.00    +0.000 C 
ATOM      8  C   UNL     1      22.471   0.791 189.670  0.00  0.00    +0.000 C 
ATOM      9  C   UNL     1      23.255   0.761 192.147  0.00  0.00    +0.000 A 
ATOM     10  C   UNL     1      22.195   0.719 191.182  0.00  0.00    +0.000 A 
ATOM     11  C   UNL     1      26.182   0.864 189.580  0.00  0.00    +0.000 C 
ATOM     12  C   UNL     1      24.512   0.512 188.058  0.00  0.00    +0.000 C 
ATOM     13  C   UNL     1      22.940   0.730 193.519  0.00  0.00    +0.000 A 
ATOM     14  C   UNL     1      20.855   0.647 191.612  0.00  0.00    +0.000 A 
ATOM     15  C   UNL     1      21.615   0.659 193.890  0.00  0.00    +0.000 A 
ATOM     16  C   UNL     1      20.602   0.617 192.965  0.00  0.00    +0.000 A 
ATOM     17  C   UNL     1      19.729   0.555 194.940  0.00  0.00    +0.000 C 
ENDROOT
BRANCH   8  18
ATOM     18  C   UNL     1      22.092   2.140 189.054  0.00  0.00    +0.000 A 
ATOM     19  C   UNL     1      20.861   2.368 188.414  0.00  0.00    +0.000 A 
ATOM     20  C   UNL     1      23.000   3.210 189.135  0.00  0.00    +0.000 A 
ATOM     21  C   UNL     1      22.676   4.464 188.618  0.00  0.00    +0.000 A 
ATOM     22  C   UNL     1      20.521   3.614 187.868  0.00  0.00    +0.000 A 
ATOM     23  C   UNL     1      21.440   4.658 187.977  0.00  0.00    +0.000 A 
BRANCH  21  24
ATOM     24  O   UNL     1      23.481   5.579 188.666  0.00  0.00    +0.000 OA
ATOM     25  C   UNL     1      24.660   5.541 187.866  0.00  0.00    +0.000 C 
ENDBRANCH  21  24
BRANCH  22  26
ATOM     26  O   UNL     1      19.279   3.624 187.293  0.00  0.00    +0.000 OA
ATOM     27  C   UNL     1      18.293   2.749 187.822  0.00  0.00    +0.000 C 
ENDBRANCH  22  26
BRANCH  23  28
ATOM     28  O   UNL     1      21.180   5.912 187.483  0.00  0.00    +0.000 OA
ATOM     29  H   UNL     1      20.647   6.350 188.175  0.00  0.00    +0.000 HD
ENDBRANCH  23  28
ENDBRANCH   8  18
BRANCH   7  30
ATOM     30  O   UNL     1      25.242  -0.518 191.958  0.00  0.00    +0.000 OA
BRANCH  30  34
ATOM     31  O   UNL     1      27.563  -0.530 192.244  0.00  0.00    +0.000 OA
ATOM     32  O   UNL     1      29.734  -2.045 194.797  0.00  0.00    +0.000 OA
ATOM     33  O   UNL     1      31.048  -0.654 193.409  0.00  0.00    +0.000 OA
ATOM     34  C   UNL     1      26.304  -0.555 192.920  0.00  0.00    +0.000 C 
ATOM     35  C   UNL     1      26.112  -1.844 193.750  0.00  0.00    +0.000 C 
ATOM     36  C   UNL     1      28.622  -1.954 193.900  0.00  0.00    +0.000 C 
ATOM     37  C   UNL     1      27.312  -2.091 194.676  0.00  0.00    +0.000 C 
ATOM     38  C   UNL     1      28.642  -0.613 193.171  0.00  0.00    +0.000 C 
ATOM     39  C   UNL     1      29.989  -0.493 192.466  0.00  0.00    +0.000 C 
ATOM     40  C   UNL     1      30.964  -1.912 194.078  0.00  0.00    +0.000 C 
ATOM     41  C   UNL     1      32.101  -1.989 195.080  0.00  0.00    +0.000 C 
BRANCH  35  42
ATOM     42  O   UNL     1      24.908  -1.730 194.527  0.00  0.00    +0.000 OA
ATOM     43  H   UNL     1      25.046  -0.973 195.128  0.00  0.00    +0.000 HD
ENDBRANCH  35  42
BRANCH  37  44
ATOM     44  O   UNL     1      27.248  -3.415 195.229  0.00  0.00    +0.000 OA
ATOM     45  H   UNL     1      26.305  -3.580 195.421  0.00  0.00    +0.000 HD
ENDBRANCH  37  44
ENDBRANCH  30  34
ENDBRANCH   7  30
TORSDOF 8
ENDMDL
MODEL 6
REMARK VINA RESULT:      -8.4      3.350      5.103
REMARK  Name = 
REMARK  11 active torsions:
REMARK  status: ('A' for Active; 'I' for Inactive)
REMARK    1  A    between atoms: O_1  and  C_16
REMARK    2  A    between atoms: O_1  and  C_22
REMARK    3  A    between atoms: O_6  and  C_24
REMARK    4  A    between atoms: O_8  and  C_26
REMARK    5  A    between atoms: O_11  and  C_36
REMARK    6  A    between atoms: O_11  and  C_41
REMARK    7  A    between atoms: O_12  and  C_37
REMARK    8  A    between atoms: O_12  and  C_42
REMARK    9  A    between atoms: O_13  and  C_39
REMARK   10  A    between atoms: C_17  and  C_23
REMARK   11  A    between atoms: C_35  and  C_40
REMARK                            x       y       z     vdW  Elec       q    Type
REMARK                         _______ _______ _______ _____ _____    ______ ____
ROOT
ATOM      1  O   UNL     1      25.265  -0.540 193.865  0.00  0.00    +0.000 OA
ATOM      2  O   UNL     1      25.919  -1.662 191.975  0.00  0.00    +0.000 OA
ATOM      3  O   UNL     1      19.089   2.946 189.342  0.00  0.00    +0.000 OA
ATOM      4  O   UNL     1      20.376   2.012 187.528  0.00  0.00    +0.000 OA
ATOM      5  C   UNL     1      23.635   0.826 192.945  0.00  0.00    +0.000 C 
ATOM      6  C   UNL     1      23.894  -0.316 191.981  0.00  0.00    +0.000 C 
ATOM      7  C   UNL     1      22.189   1.294 192.837  0.00  0.00    +0.000 C 
ATOM      8  C   UNL     1      23.875   0.178 190.536  0.00  0.00    +0.000 C 
ATOM      9  C   UNL     1      21.784   1.471 191.374  0.00  0.00    +0.000 A 
ATOM     10  C   UNL     1      22.548   0.918 190.295  0.00  0.00    +0.000 A 
ATOM     11  C   UNL     1      24.099   0.212 194.242  0.00  0.00    +0.000 C 
ATOM     12  C   UNL     1      25.153  -0.903 192.545  0.00  0.00    +0.000 C 
ATOM     13  C   UNL     1      20.596   2.171 191.090  0.00  0.00    +0.000 A 
ATOM     14  C   UNL     1      22.106   1.078 188.966  0.00  0.00    +0.000 A 
ATOM     15  C   UNL     1      20.204   2.301 189.775  0.00  0.00    +0.000 A 
ATOM     16  C   UNL     1      20.937   1.770 188.744  0.00  0.00    +0.000 A 
ATOM     17  C   UNL     1      19.205   2.760 187.915  0.00  0.00    +0.000 C 
ENDROOT
BRANCH   8  18
ATOM     18  C   UNL     1      25.102   0.992 190.116  0.00  0.00    +0.000 A 
ATOM     19  C   UNL     1      26.412   0.483 190.174  0.00  0.00    +0.000 A 
ATOM     20  C   UNL     1      24.924   2.301 189.638  0.00  0.00    +0.000 A 
ATOM     21  C   UNL     1      26.014   3.062 189.212  0.00  0.00    +0.000 A 
ATOM     22  C   UNL     1      27.524   1.236 189.771  0.00  0.00    +0.000 A 
ATOM     23  C   UNL     1      27.311   2.528 189.289  0.00  0.00    +0.000 A 
BRANCH  21  24
ATOM     24  O   UNL     1      25.946   4.340 188.709  0.00  0.00    +0.000 OA
ATOM     25  C   UNL     1      24.806   4.644 187.908  0.00  0.00    +0.000 C 
ENDBRANCH  21  24
BRANCH  22  26
ATOM     26  O   UNL     1      28.704   0.556 189.905  0.00  0.00    +0.000 OA
ATOM     27  C   UNL     1      29.076   0.115 191.203  0.00  0.00    +0.000 C 
ENDBRANCH  22  26
BRANCH  23  28
ATOM     28  O   UNL     1      28.344   3.324 188.862  0.00  0.00    +0.000 OA
ATOM     29  H   UNL     1      27.913   4.070 188.401  0.00  0.00    +0.000 HD
ENDBRANCH  23  28
ENDBRANCH   8  18
BRANCH   7  30
ATOM     30  O   UNL     1      21.324   0.298 193.382  0.00  0.00    +0.000 OA
BRANCH  30  34
ATOM     31  O   UNL     1      21.343   0.798 195.666  0.00  0.00    +0.000 OA
ATOM     32  O   UNL     1      18.738   0.638 198.257  0.00  0.00    +0.000 OA
ATOM     33  O   UNL     1      20.647   1.696 199.163  0.00  0.00    +0.000 OA
ATOM     34  C   UNL     1      20.542   0.776 194.484  0.00  0.00    +0.000 C 
ATOM     35  C   UNL     1      19.329  -0.175 194.618  0.00  0.00    +0.000 C 
ATOM     36  C   UNL     1      19.471   0.224 197.099  0.00  0.00    +0.000 C 
ATOM     37  C   UNL     1      18.532   0.122 195.897  0.00  0.00    +0.000 C 
ATOM     38  C   UNL     1      20.581   1.224 196.793  0.00  0.00    +0.000 C 
ATOM     39  C   UNL     1      21.452   1.341 198.039  0.00  0.00    +0.000 C 
ATOM     40  C   UNL     1      19.611   0.741 199.386  0.00  0.00    +0.000 C 
ATOM     41  C   UNL     1      18.787   1.208 200.572  0.00  0.00    +0.000 C 
BRANCH  35  42
ATOM     42  O   UNL     1      18.484  -0.025 193.465  0.00  0.00    +0.000 OA
ATOM     43  H   UNL     1      17.672   0.417 193.783  0.00  0.00    +0.000 HD
ENDBRANCH  35  42
BRANCH  37  44
ATOM     44  O   UNL     1      17.586  -0.930 196.146  0.00  0.00    +0.000 OA
ATOM     45  H   UNL     1      18.105  -1.679 196.498  0.00  0.00    +0.000 HD
ENDBRANCH  37  44
ENDBRANCH  30  34
ENDBRANCH   7  30
TORSDOF 8
ENDMDL
MODEL 7
REMARK VINA RESULT:      -8.0      4.086      6.655
REMARK  Name = 
REMARK  11 active torsions:
REMARK  status: ('A' for Active; 'I' for Inactive)
REMARK    1  A    between atoms: O_1  and  C_16
REMARK    2  A    between atoms: O_1  and  C_22
REMARK    3  A    between atoms: O_6  and  C_24
REMARK    4  A    between atoms: O_8  and  C_26
REMARK    5  A    between atoms: O_11  and  C_36
REMARK    6  A    between atoms: O_11  and  C_41
REMARK    7  A    between atoms: O_12  and  C_37
REMARK    8  A    between atoms: O_12  and  C_42
REMARK    9  A    between atoms: O_13  and  C_39
REMARK   10  A    between atoms: C_17  and  C_23
REMARK   11  A    between atoms: C_35  and  C_40
REMARK                            x       y       z     vdW  Elec       q    Type
REMARK                         _______ _______ _______ _____ _____    ______ ____
ROOT
ATOM      1  O   UNL     1      24.820  -0.744 195.925  0.00  0.00    +0.000 OA
ATOM      2  O   UNL     1      25.679  -1.797 194.078  0.00  0.00    +0.000 OA
ATOM      3  O   UNL     1      18.739   2.356 191.008  0.00  0.00    +0.000 OA
ATOM      4  O   UNL     1      20.209   1.532 189.282  0.00  0.00    +0.000 OA
ATOM      5  C   UNL     1      23.165   0.516 194.904  0.00  0.00    +0.000 C 
ATOM      6  C   UNL     1      23.569  -0.595 193.953  0.00  0.00    +0.000 C 
ATOM      7  C   UNL     1      21.701   0.884 194.698  0.00  0.00    +0.000 C 
ATOM      8  C   UNL     1      23.615  -0.087 192.512  0.00  0.00    +0.000 C 
ATOM      9  C   UNL     1      21.386   1.048 193.212  0.00  0.00    +0.000 A 
ATOM     10  C   UNL     1      22.259   0.561 192.185  0.00  0.00    +0.000 A 
ATOM     11  C   UNL     1      23.581  -0.079 196.225  0.00  0.00    +0.000 C 
ATOM     12  C   UNL     1      24.824  -1.100 194.599  0.00  0.00    +0.000 C 
ATOM     13  C   UNL     1      20.174   1.668 192.852  0.00  0.00    +0.000 A 
ATOM     14  C   UNL     1      21.898   0.705 190.830  0.00  0.00    +0.000 A 
ATOM     15  C   UNL     1      19.865   1.785 191.513  0.00  0.00    +0.000 A 
ATOM     16  C   UNL     1      20.701   1.317 190.532  0.00  0.00    +0.000 A 
ATOM     17  C   UNL     1      18.965   2.194 189.592  0.00  0.00    +0.000 C 
ENDROOT
BRANCH   8  18
ATOM     18  C   UNL     1      24.807   0.814 192.184  0.00  0.00    +0.000 A 
ATOM     19  C   UNL     1      25.652   0.590 191.082  0.00  0.00    +0.000 A 
ATOM     20  C   UNL     1      25.072   1.925 193.002  0.00  0.00    +0.000 A 
ATOM     21  C   UNL     1      26.128   2.791 192.714  0.00  0.00    +0.000 A 
ATOM     22  C   UNL     1      26.732   1.434 190.785  0.00  0.00    +0.000 A 
ATOM     23  C   UNL     1      26.959   2.535 191.610  0.00  0.00    +0.000 A 
BRANCH  21  24
ATOM     24  O   UNL     1      26.457   3.915 193.436  0.00  0.00    +0.000 OA
ATOM     25  C   UNL     1      26.777   3.712 194.809  0.00  0.00    +0.000 C 
ENDBRANCH  21  24
BRANCH  22  26
ATOM     26  O   UNL     1      27.426   1.040 189.673  0.00  0.00    +0.000 OA
ATOM     27  C   UNL     1      28.617   0.291 189.860  0.00  0.00    +0.000 C 
ENDBRANCH  22  26
BRANCH  23  28
ATOM     28  O   UNL     1      27.985   3.418 191.380  0.00  0.00    +0.000 OA
ATOM     29  H   UNL     1      28.789   2.956 191.689  0.00  0.00    +0.000 HD
ENDBRANCH  23  28
ENDBRANCH   8  18
BRANCH   7  30
ATOM     30  O   UNL     1      20.872  -0.176 195.177  0.00  0.00    +0.000 OA
BRANCH  30  34
ATOM     31  O   UNL     1      20.394   0.389 197.395  0.00  0.00    +0.000 OA
ATOM     32  O   UNL     1      17.336   0.105 199.418  0.00  0.00    +0.000 OA
ATOM     33  O   UNL     1      18.945   1.331 200.640  0.00  0.00    +0.000 OA
ATOM     34  C   UNL     1      19.852   0.272 196.078  0.00  0.00    +0.000 C 
ATOM     35  C   UNL     1      18.706  -0.764 196.009  0.00  0.00    +0.000 C 
ATOM     36  C   UNL     1      18.315  -0.285 198.448  0.00  0.00    +0.000 C 
ATOM     37  C   UNL     1      17.649  -0.493 197.088  0.00  0.00    +0.000 C 
ATOM     38  C   UNL     1      19.393   0.788 198.327  0.00  0.00    +0.000 C 
ATOM     39  C   UNL     1      19.983   1.006 199.716  0.00  0.00    +0.000 C 
ATOM     40  C   UNL     1      17.953   0.306 200.693  0.00  0.00    +0.000 C 
ATOM     41  C   UNL     1      16.877   0.743 201.669  0.00  0.00    +0.000 C 
BRANCH  35  42
ATOM     42  O   UNL     1      18.103  -0.712 194.705  0.00  0.00    +0.000 OA
ATOM     43  H   UNL     1      17.377  -0.062 194.770  0.00  0.00    +0.000 HD
ENDBRANCH  35  42
BRANCH  37  44
ATOM     44  O   UNL     1      16.746  -1.607 197.189  0.00  0.00    +0.000 OA
ATOM     45  H   UNL     1      17.091  -2.286 196.579  0.00  0.00    +0.000 HD
ENDBRANCH  37  44
ENDBRANCH  30  34
ENDBRANCH   7  30
TORSDOF 8
ENDMDL
MODEL 8
REMARK VINA RESULT:      -7.8     32.165     35.308
REMARK  Name = 
REMARK  11 active torsions:
REMARK  status: ('A' for Active; 'I' for Inactive)
REMARK    1  A    between atoms: O_1  and  C_16
REMARK    2  A    between atoms: O_1  and  C_22
REMARK    3  A    between atoms: O_6  and  C_24
REMARK    4  A    between atoms: O_8  and  C_26
REMARK    5  A    between atoms: O_11  and  C_36
REMARK    6  A    between atoms: O_11  and  C_41
REMARK    7  A    between atoms: O_12  and  C_37
REMARK    8  A    between atoms: O_12  and  C_42
REMARK    9  A    between atoms: O_13  and  C_39
REMARK   10  A    between atoms: C_17  and  C_23
REMARK   11  A    between atoms: C_35  and  C_40
REMARK                            x       y       z     vdW  Elec       q    Type
REMARK                         _______ _______ _______ _____ _____    ______ ____
ROOT
ATOM      1  O   UNL     1      41.062 -24.984 174.761  0.00  0.00    +0.000 OA
ATOM      2  O   UNL     1      42.536 -24.020 173.293  0.00  0.00    +0.000 OA
ATOM      3  O   UNL     1      34.951 -23.561 169.158  0.00  0.00    +0.000 OA
ATOM      4  O   UNL     1      36.675 -22.201 168.160  0.00  0.00    +0.000 OA
ATOM      5  C   UNL     1      39.079 -24.544 173.647  0.00  0.00    +0.000 C 
ATOM      6  C   UNL     1      40.219 -24.400 172.658  0.00  0.00    +0.000 C 
ATOM      7  C   UNL     1      37.814 -25.008 172.935  0.00  0.00    +0.000 C 
ATOM      8  C   UNL     1      39.982 -23.216 171.722  0.00  0.00    +0.000 C 
ATOM      9  C   UNL     1      37.576 -24.195 171.664  0.00  0.00    +0.000 A 
ATOM     10  C   UNL     1      38.599 -23.384 171.070  0.00  0.00    +0.000 A 
ATOM     11  C   UNL     1      39.707 -25.455 174.671  0.00  0.00    +0.000 C 
ATOM     12  C   UNL     1      41.408 -24.394 173.571  0.00  0.00    +0.000 C 
ATOM     13  C   UNL     1      36.316 -24.282 171.042  0.00  0.00    +0.000 A 
ATOM     14  C   UNL     1      38.336 -22.685 169.874  0.00  0.00    +0.000 A 
ATOM     15  C   UNL     1      36.107 -23.580 169.874  0.00  0.00    +0.000 A 
ATOM     16  C   UNL     1      37.088 -22.806 169.306  0.00  0.00    +0.000 A 
ATOM     17  C   UNL     1      35.318 -22.683 168.073  0.00  0.00    +0.000 C 
ENDROOT
BRANCH   8  18
ATOM     18  C   UNL     1      40.181 -21.839 172.361  0.00  0.00    +0.000 A 
ATOM     19  C   UNL     1      39.416 -21.386 173.450  0.00  0.00    +0.000 A 
ATOM     20  C   UNL     1      41.177 -20.987 171.855  0.00  0.00    +0.000 A 
ATOM     21  C   UNL     1      41.413 -19.739 172.434  0.00  0.00    +0.000 A 
ATOM     22  C   UNL     1      39.621 -20.128 174.035  0.00  0.00    +0.000 A 
ATOM     23  C   UNL     1      40.627 -19.311 173.517  0.00  0.00    +0.000 A 
BRANCH  21  24
ATOM     24  O   UNL     1      42.375 -18.842 172.030  0.00  0.00    +0.000 OA
ATOM     25  C   UNL     1      42.365 -18.484 170.651  0.00  0.00    +0.000 C 
ENDBRANCH  21  24
BRANCH  22  26
ATOM     26  O   UNL     1      38.774 -19.882 175.082  0.00  0.00    +0.000 OA
ATOM     27  C   UNL     1      38.490 -20.949 175.974  0.00  0.00    +0.000 C 
ENDBRANCH  22  26
BRANCH  23  28
ATOM     28  O   UNL     1      40.901 -18.073 174.041  0.00  0.00    +0.000 OA
ATOM     29  H   UNL     1      41.212 -18.247 174.950  0.00  0.00    +0.000 HD
ENDBRANCH  23  28
ENDBRANCH   8  18
BRANCH   7  30
ATOM     30  O   UNL     1      37.971 -26.368 172.526  0.00  0.00    +0.000 OA
BRANCH  30  34
ATOM     31  O   UNL     1      36.137 -26.515 173.969  0.00  0.00    +0.000 OA
ATOM     32  O   UNL     1      34.720 -29.309 175.896  0.00  0.00    +0.000 OA
ATOM     33  O   UNL     1      33.255 -27.461 176.047  0.00  0.00    +0.000 OA
ATOM     34  C   UNL     1      36.934 -27.225 173.020  0.00  0.00    +0.000 C 
ATOM     35  C   UNL     1      37.630 -28.455 173.647  0.00  0.00    +0.000 C 
ATOM     36  C   UNL     1      35.745 -28.496 175.315  0.00  0.00    +0.000 C 
ATOM     37  C   UNL     1      36.622 -29.343 174.392  0.00  0.00    +0.000 C 
ATOM     38  C   UNL     1      35.123 -27.354 174.516  0.00  0.00    +0.000 C 
ATOM     39  C   UNL     1      34.210 -26.578 175.459  0.00  0.00    +0.000 C 
ATOM     40  C   UNL     1      33.892 -28.522 176.757  0.00  0.00    +0.000 C 
ATOM     41  C   UNL     1      32.811 -29.427 177.320  0.00  0.00    +0.000 C 
BRANCH  35  42
ATOM     42  O   UNL     1      38.277 -29.210 172.609  0.00  0.00    +0.000 OA
ATOM     43  H   UNL     1      38.167 -28.691 171.789  0.00  0.00    +0.000 HD
ENDBRANCH  35  42
BRANCH  37  44
ATOM     44  O   UNL     1      37.314 -30.317 175.189  0.00  0.00    +0.000 OA
ATOM     45  H   UNL     1      36.683 -30.593 175.882  0.00  0.00    +0.000 HD
ENDBRANCH  37  44
ENDBRANCH  30  34
ENDBRANCH   7  30
TORSDOF 8
ENDMDL
MODEL 9
REMARK VINA RESULT:      -7.5     32.035     35.248
REMARK  Name = 
REMARK  11 active torsions:
REMARK  status: ('A' for Active; 'I' for Inactive)
REMARK    1  A    between atoms: O_1  and  C_16
REMARK    2  A    between atoms: O_1  and  C_22
REMARK    3  A    between atoms: O_6  and  C_24
REMARK    4  A    between atoms: O_8  and  C_26
REMARK    5  A    between atoms: O_11  and  C_36
REMARK    6  A    between atoms: O_11  and  C_41
REMARK    7  A    between atoms: O_12  and  C_37
REMARK    8  A    between atoms: O_12  and  C_42
REMARK    9  A    between atoms: O_13  and  C_39
REMARK   10  A    between atoms: C_17  and  C_23
REMARK   11  A    between atoms: C_35  and  C_40
REMARK                            x       y       z     vdW  Elec       q    Type
REMARK                         _______ _______ _______ _____ _____    ______ ____
ROOT
ATOM      1  O   UNL     1      40.642 -24.697 174.679  0.00  0.00    +0.000 OA
ATOM      2  O   UNL     1      42.335 -23.923 173.342  0.00  0.00    +0.000 OA
ATOM      3  O   UNL     1      35.249 -22.794 168.511  0.00  0.00    +0.000 OA
ATOM      4  O   UNL     1      37.188 -21.640 167.659  0.00  0.00    +0.000 OA
ATOM      5  C   UNL     1      38.825 -24.084 173.378  0.00  0.00    +0.000 C 
ATOM      6  C   UNL     1      40.060 -24.081 172.498  0.00  0.00    +0.000 C 
ATOM      7  C   UNL     1      37.590 -24.434 172.559  0.00  0.00    +0.000 C 
ATOM      8  C   UNL     1      40.033 -22.901 171.528  0.00  0.00    +0.000 C 
ATOM      9  C   UNL     1      37.554 -23.631 171.259  0.00  0.00    +0.000 A 
ATOM     10  C   UNL     1      38.705 -22.943 170.752  0.00  0.00    +0.000 A 
ATOM     11  C   UNL     1      39.259 -25.030 174.470  0.00  0.00    +0.000 C 
ATOM     12  C   UNL     1      41.155 -24.174 173.518  0.00  0.00    +0.000 C 
ATOM     13  C   UNL     1      36.354 -23.604 170.523  0.00  0.00    +0.000 A 
ATOM     14  C   UNL     1      38.627 -22.250 169.527  0.00  0.00    +0.000 A 
ATOM     15  C   UNL     1      36.326 -22.913 169.331  0.00  0.00    +0.000 A 
ATOM     16  C   UNL     1      37.429 -22.257 168.847  0.00  0.00    +0.000 A 
ATOM     17  C   UNL     1      35.802 -21.983 167.453  0.00  0.00    +0.000 C 
ENDROOT
BRANCH   8  18
ATOM     18  C   UNL     1      40.314 -21.537 172.163  0.00  0.00    +0.000 A 
ATOM     19  C   UNL     1      40.991 -20.506 171.488  0.00  0.00    +0.000 A 
ATOM     20  C   UNL     1      39.871 -21.286 173.473  0.00  0.00    +0.000 A 
ATOM     21  C   UNL     1      40.076 -20.043 174.072  0.00  0.00    +0.000 A 
ATOM     22  C   UNL     1      41.228 -19.256 172.077  0.00  0.00    +0.000 A 
ATOM     23  C   UNL     1      40.763 -19.036 173.374  0.00  0.00    +0.000 A 
BRANCH  21  24
ATOM     24  O   UNL     1      39.663 -19.690 175.336  0.00  0.00    +0.000 OA
ATOM     25  C   UNL     1      38.467 -20.307 175.805  0.00  0.00    +0.000 C 
ENDBRANCH  21  24
BRANCH  22  26
ATOM     26  O   UNL     1      41.899 -18.395 171.251  0.00  0.00    +0.000 OA
ATOM     27  C   UNL     1      42.747 -18.951 170.257  0.00  0.00    +0.000 C 
ENDBRANCH  22  26
BRANCH  23  28
ATOM     28  O   UNL     1      40.940 -17.836 174.017  0.00  0.00    +0.000 OA
ATOM     29  H   UNL     1      40.300 -17.229 173.599  0.00  0.00    +0.000 HD
ENDBRANCH  23  28
ENDBRANCH   8  18
BRANCH   7  30
ATOM     30  O   UNL     1      37.642 -25.812 172.186  0.00  0.00    +0.000 OA
BRANCH  30  34
ATOM     31  O   UNL     1      36.103 -26.145 173.914  0.00  0.00    +0.000 OA
ATOM     32  O   UNL     1      34.221 -29.107 175.017  0.00  0.00    +0.000 OA
ATOM     33  O   UNL     1      33.437 -27.221 176.206  0.00  0.00    +0.000 OA
ATOM     34  C   UNL     1      36.484 -26.549 172.598  0.00  0.00    +0.000 C 
ATOM     35  C   UNL     1      36.859 -28.048 172.532  0.00  0.00    +0.000 C 
ATOM     36  C   UNL     1      35.341 -28.370 174.514  0.00  0.00    +0.000 C 
ATOM     37  C   UNL     1      35.759 -28.922 173.150  0.00  0.00    +0.000 C 
ATOM     38  C   UNL     1      34.981 -26.894 174.375  0.00  0.00    +0.000 C 
ATOM     39  C   UNL     1      34.511 -26.405 175.741  0.00  0.00    +0.000 C 
ATOM     40  C   UNL     1      33.822 -28.593 176.291  0.00  0.00    +0.000 C 
ATOM     41  C   UNL     1      32.619 -29.391 176.760  0.00  0.00    +0.000 C 
BRANCH  35  42
ATOM     42  O   UNL     1      37.071 -28.420 171.160  0.00  0.00    +0.000 OA
ATOM     43  H   UNL     1      36.806 -27.646 170.627  0.00  0.00    +0.000 HD
ENDBRANCH  35  42
BRANCH  37  44
ATOM     44  O   UNL     1      36.236 -30.265 173.330  0.00  0.00    +0.000 OA
ATOM     45  H   UNL     1      35.453 -30.842 173.238  0.00  0.00    +0.000 HD
ENDBRANCH  37  44
ENDBRANCH  30  34
ENDBRANCH   7  30
TORSDOF 8
ENDMDL
