MODEL 1
REMARK VINA RESULT:      -8.0      0.000      0.000
REMARK  Name = Foretinib.pdbqt.pdb
REMARK  11 active torsions:
REMARK  status: ('A' for Active; 'I' for Inactive)
REMARK    1  A    between atoms: C_2  and  N_31
REMARK    2  A    between atoms: C_7  and  O_8
REMARK    3  A    between atoms: O_8  and  C_9
REMARK    4  A    between atoms: C_17  and  O_19
REMARK    5  A    between atoms: C_18  and  O_29
REMARK    6  A    between atoms: O_19  and  C_20
REMARK    7  A    between atoms: C_21  and  C_22
REMARK    8  A    between atoms: C_22  and  N_23
REMARK    9  A    between atoms: C_32  and  C_35
REMARK   10  A    between atoms: C_35  and  C_38
REMARK   11  A    between atoms: N_40  and  C_42
REMARK                            x       y       z     vdW  Elec       q    Type
REMARK                         _______ _______ _______ _____ _____    ______ ____
ROOT
ATOM      1  F   UNL     1      27.775   3.661 191.495  0.00  0.00    +0.000 F 
ATOM      2  C   UNL     1      25.022   2.764 189.307  0.00  0.00    +0.000 A 
ATOM      3  C   UNL     1      25.760   3.405 190.303  0.00  0.00    +0.000 A 
ATOM      4  C   UNL     1      25.628   1.775 188.530  0.00  0.00    +0.000 A 
ATOM      5  C   UNL     1      27.091   3.058 190.511  0.00  0.00    +0.000 A 
ATOM      6  C   UNL     1      26.962   1.427 188.739  0.00  0.00    +0.000 A 
ATOM      7  C   UNL     1      27.702   2.088 189.716  0.00  0.00    +0.000 A 
ENDROOT
BRANCH   2   8
ATOM      8  N   UNL     1      23.673   3.064 189.045  0.00  0.00    +0.000 N 
ATOM      9  C   UNL     1      23.203   4.251 188.505  0.00  0.00    +0.000 C 
ATOM     10  O   UNL     1      23.880   5.224 188.200  0.00  0.00    +0.000 OA
ATOM     11  H   UNL     1      22.988   2.363 189.313  0.00  0.00    +0.000 HD
BRANCH   9  12
ATOM     12  C   UNL     1      21.712   4.318 188.352  0.00  0.00    +0.000 C 
ATOM     13  C   UNL     1      21.181   4.753 187.064  0.00  0.00    +0.000 C 
ATOM     14  C   UNL     1      21.106   5.641 188.253  0.00  0.00    +0.000 C 
BRANCH  12  15
ATOM     15  C   UNL     1      20.957   3.246 189.079  0.00  0.00    +0.000 C 
ATOM     16  O   UNL     1      20.678   2.212 188.483  0.00  0.00    +0.000 OA
ATOM     17  N   UNL     1      20.689   3.524 190.409  0.00  0.00    +0.000 N 
ATOM     18  H   UNL     1      21.030   4.402 190.789  0.00  0.00    +0.000 HD
BRANCH  17  19
ATOM     19  C   UNL     1      20.010   2.674 191.300  0.00  0.00    +0.000 A 
ATOM     20  C   UNL     1      20.724   2.171 192.389  0.00  0.00    +0.000 A 
ATOM     21  C   UNL     1      20.107   1.323 193.307  0.00  0.00    +0.000 A 
ATOM     22  C   UNL     1      18.770   0.985 193.127  0.00  0.00    +0.000 A 
ATOM     23  F   UNL     1      18.173   0.172 194.009  0.00  0.00    +0.000 F 
ATOM     24  C   UNL     1      18.043   1.478 192.050  0.00  0.00    +0.000 A 
ATOM     25  C   UNL     1      18.668   2.323 191.137  0.00  0.00    +0.000 A 
ENDBRANCH  17  19
ENDBRANCH  12  15
ENDBRANCH   9  12
ENDBRANCH   2   8
BRANCH   7  26
ATOM     26  O   UNL     1      28.991   1.660 189.922  0.00  0.00    +0.000 OA
BRANCH  26  27
ATOM     27  C   UNL     1      29.998   2.361 189.288  0.00  0.00    +0.000 A 
ATOM     28  C   UNL     1      30.923   3.055 190.083  0.00  0.00    +0.000 A 
ATOM     29  C   UNL     1      31.978   3.719 189.434  0.00  0.00    +0.000 A 
ATOM     30  C   UNL     1      30.822   3.109 191.483  0.00  0.00    +0.000 A 
ATOM     31  N   UNL     1      32.127   3.698 188.100  0.00  0.00    +0.000 NA
ATOM     32  C   UNL     1      32.890   4.413 190.215  0.00  0.00    +0.000 A 
ATOM     33  C   UNL     1      31.223   3.007 187.370  0.00  0.00    +0.000 A 
ATOM     34  C   UNL     1      30.154   2.319 187.907  0.00  0.00    +0.000 A 
ATOM     35  C   UNL     1      32.797   4.469 191.611  0.00  0.00    +0.000 A 
ATOM     36  C   UNL     1      31.748   3.810 192.256  0.00  0.00    +0.000 A 
BRANCH  36  37
ATOM     37  O   UNL     1      31.697   3.903 193.626  0.00  0.00    +0.000 OA
ATOM     38  C   UNL     1      31.954   2.715 194.324  0.00  0.00    +0.000 C 
ENDBRANCH  36  37
BRANCH  35  39
ATOM     39  O   UNL     1      33.690   5.156 192.399  0.00  0.00    +0.000 OA
BRANCH  39  40
ATOM     40  C   UNL     1      34.674   5.762 191.739  0.00  0.00    +0.000 C 
ATOM     41  C   UNL     1      35.805   6.448 190.964  0.00  0.00    +0.000 C 
BRANCH  41  42
ATOM     42  C   UNL     1      36.932   7.133 190.184  0.00  0.00    +0.000 C 
BRANCH  42  43
ATOM     43  N   UNL     1      38.002   7.784 189.442  0.00  0.00    +0.000 N 
ATOM     44  C   UNL     1      37.793   9.257 189.588  0.00  0.00    +0.000 C 
ATOM     45  C   UNL     1      38.646  10.294 190.390  0.00  0.00    +0.000 C 
ATOM     46  O   UNL     1      39.754  10.220 191.159  0.00  0.00    +0.000 OA
ATOM     47  C   UNL     1      39.940   8.891 191.033  0.00  0.00    +0.000 C 
ATOM     48  C   UNL     1      39.224   7.716 190.299  0.00  0.00    +0.000 C 
ENDBRANCH  42  43
ENDBRANCH  41  42
ENDBRANCH  39  40
ENDBRANCH  35  39
ENDBRANCH  26  27
ENDBRANCH   7  26
TORSDOF 11
ENDMDL
MODEL 2
REMARK VINA RESULT:      -7.9      4.600      6.093
REMARK  Name = Foretinib.pdbqt.pdb
REMARK  11 active torsions:
REMARK  status: ('A' for Active; 'I' for Inactive)
REMARK    1  A    between atoms: C_2  and  N_31
REMARK    2  A    between atoms: C_7  and  O_8
REMARK    3  A    between atoms: O_8  and  C_9
REMARK    4  A    between atoms: C_17  and  O_19
REMARK    5  A    between atoms: C_18  and  O_29
REMARK    6  A    between atoms: O_19  and  C_20
REMARK    7  A    between atoms: C_21  and  C_22
REMARK    8  A    between atoms: C_22  and  N_23
REMARK    9  A    between atoms: C_32  and  C_35
REMARK   10  A    between atoms: C_35  and  C_38
REMARK   11  A    between atoms: N_40  and  C_42
REMARK                            x       y       z     vdW  Elec       q    Type
REMARK                         _______ _______ _______ _____ _____    ______ ____
ROOT
ATOM      1  F   UNL     1      27.930   3.627 190.820  0.00  0.00    +0.000 F 
ATOM      2  C   UNL     1      24.859   2.622 189.171  0.00  0.00    +0.000 A 
ATOM      3  C   UNL     1      25.753   3.331 189.974  0.00  0.00    +0.000 A 
ATOM      4  C   UNL     1      25.318   1.537 188.420  0.00  0.00    +0.000 A 
ATOM      5  C   UNL     1      27.092   2.956 190.017  0.00  0.00    +0.000 A 
ATOM      6  C   UNL     1      26.659   1.161 188.465  0.00  0.00    +0.000 A 
ATOM      7  C   UNL     1      27.554   1.888 189.247  0.00  0.00    +0.000 A 
ENDROOT
BRANCH   2   8
ATOM      8  N   UNL     1      23.492   2.946 189.081  0.00  0.00    +0.000 N 
ATOM      9  C   UNL     1      22.956   3.958 188.303  0.00  0.00    +0.000 C 
ATOM     10  O   UNL     1      23.582   4.739 187.599  0.00  0.00    +0.000 OA
ATOM     11  H   UNL     1      22.858   2.414 189.670  0.00  0.00    +0.000 HD
BRANCH   9  12
ATOM     12  C   UNL     1      21.466   4.104 188.412  0.00  0.00    +0.000 C 
ATOM     13  C   UNL     1      20.748   4.622 187.252  0.00  0.00    +0.000 C 
ATOM     14  C   UNL     1      20.925   5.458 188.468  0.00  0.00    +0.000 C 
BRANCH  12  15
ATOM     15  C   UNL     1      20.788   3.037 189.218  0.00  0.00    +0.000 C 
ATOM     16  O   UNL     1      20.513   1.973 188.676  0.00  0.00    +0.000 OA
ATOM     17  N   UNL     1      20.582   3.358 190.549  0.00  0.00    +0.000 N 
ATOM     18  H   UNL     1      20.913   4.260 190.878  0.00  0.00    +0.000 HD
BRANCH  17  19
ATOM     19  C   UNL     1      19.981   2.521 191.507  0.00  0.00    +0.000 A 
ATOM     20  C   UNL     1      18.651   2.148 191.300  0.00  0.00    +0.000 A 
ATOM     21  C   UNL     1      18.000   1.321 192.212  0.00  0.00    +0.000 A 
ATOM     22  C   UNL     1      18.689   0.869 193.332  0.00  0.00    +0.000 A 
ATOM     23  F   UNL     1      18.066   0.071 194.210  0.00  0.00    +0.000 F 
ATOM     24  C   UNL     1      20.014   1.227 193.553  0.00  0.00    +0.000 A 
ATOM     25  C   UNL     1      20.656   2.055 192.636  0.00  0.00    +0.000 A 
ENDBRANCH  17  19
ENDBRANCH  12  15
ENDBRANCH   9  12
ENDBRANCH   2   8
BRANCH   7  26
ATOM     26  O   UNL     1      28.849   1.434 189.303  0.00  0.00    +0.000 OA
BRANCH  26  27
ATOM     27  C   UNL     1      29.223   0.732 190.432  0.00  0.00    +0.000 A 
ATOM     28  C   UNL     1      30.582   0.721 190.784  0.00  0.00    +0.000 A 
ATOM     29  C   UNL     1      30.948   0.053 191.965  0.00  0.00    +0.000 A 
ATOM     30  C   UNL     1      31.568   1.341 190.000  0.00  0.00    +0.000 A 
ATOM     31  N   UNL     1      30.048  -0.553 192.756  0.00  0.00    +0.000 NA
ATOM     32  C   UNL     1      32.290   0.032 192.313  0.00  0.00    +0.000 A 
ATOM     33  C   UNL     1      28.747  -0.508 192.389  0.00  0.00    +0.000 A 
ATOM     34  C   UNL     1      28.281   0.123 191.254  0.00  0.00    +0.000 A 
ATOM     35  C   UNL     1      33.279   0.650 191.537  0.00  0.00    +0.000 A 
ATOM     36  C   UNL     1      32.915   1.312 190.364  0.00  0.00    +0.000 A 
BRANCH  36  37
ATOM     37  O   UNL     1      33.923   1.896 189.633  0.00  0.00    +0.000 OA
ATOM     38  C   UNL     1      33.517   2.866 188.707  0.00  0.00    +0.000 C 
ENDBRANCH  36  37
BRANCH  35  39
ATOM     39  O   UNL     1      34.614   0.635 191.866  0.00  0.00    +0.000 OA
BRANCH  39  40
ATOM     40  C   UNL     1      35.152  -0.577 191.978  0.00  0.00    +0.000 C 
ATOM     41  C   UNL     1      35.784  -1.968 192.096  0.00  0.00    +0.000 C 
BRANCH  41  42
ATOM     42  C   UNL     1      36.423  -3.357 192.214  0.00  0.00    +0.000 C 
BRANCH  42  43
ATOM     43  N   UNL     1      37.030  -4.675 192.327  0.00  0.00    +0.000 N 
ATOM     44  C   UNL     1      38.252  -4.662 191.467  0.00  0.00    +0.000 C 
ATOM     45  C   UNL     1      39.755  -4.686 191.898  0.00  0.00    +0.000 C 
ATOM     46  O   UNL     1      40.403  -4.716 193.083  0.00  0.00    +0.000 OA
ATOM     47  C   UNL     1      39.301  -4.722 193.861  0.00  0.00    +0.000 C 
ATOM     48  C   UNL     1      37.759  -4.703 193.631  0.00  0.00    +0.000 C 
ENDBRANCH  42  43
ENDBRANCH  41  42
ENDBRANCH  39  40
ENDBRANCH  35  39
ENDBRANCH  26  27
ENDBRANCH   7  26
TORSDOF 11
ENDMDL
MODEL 3
REMARK VINA RESULT:      -7.9      2.039      2.760
REMARK  Name = Foretinib.pdbqt.pdb
REMARK  11 active torsions:
REMARK  status: ('A' for Active; 'I' for Inactive)
REMARK    1  A    between atoms: C_2  and  N_31
REMARK    2  A    between atoms: C_7  and  O_8
REMARK    3  A    between atoms: O_8  and  C_9
REMARK    4  A    between atoms: C_17  and  O_19
REMARK    5  A    between atoms: C_18  and  O_29
REMARK    6  A    between atoms: O_19  and  C_20
REMARK    7  A    between atoms: C_21  and  C_22
REMARK    8  A    between atoms: C_22  and  N_23
REMARK    9  A    between atoms: C_32  and  C_35
REMARK   10  A    between atoms: C_35  and  C_38
REMARK   11  A    between atoms: N_40  and  C_42
REMARK                            x       y       z     vdW  Elec       q    Type
REMARK                         _______ _______ _______ _____ _____    ______ ____
ROOT
ATOM      1  F   UNL     1      26.864  -0.316 189.934  0.00  0.00    +0.000 F 
ATOM      2  C   UNL     1      24.529   2.299 189.000  0.00  0.00    +0.000 A 
ATOM      3  C   UNL     1      25.031   1.055 189.381  0.00  0.00    +0.000 A 
ATOM      4  C   UNL     1      25.405   3.375 188.839  0.00  0.00    +0.000 A 
ATOM      5  C   UNL     1      26.395   0.896 189.601  0.00  0.00    +0.000 A 
ATOM      6  C   UNL     1      26.772   3.215 189.058  0.00  0.00    +0.000 A 
ATOM      7  C   UNL     1      27.265   1.977 189.465  0.00  0.00    +0.000 A 
ENDROOT
BRANCH   2   8
ATOM      8  N   UNL     1      23.162   2.530 188.759  0.00  0.00    +0.000 N 
ATOM      9  C   UNL     1      22.586   2.723 187.514  0.00  0.00    +0.000 C 
ATOM     10  O   UNL     1      23.175   2.749 186.441  0.00  0.00    +0.000 OA
ATOM     11  H   UNL     1      22.560   2.598 189.575  0.00  0.00    +0.000 HD
BRANCH   9  12
ATOM     12  C   UNL     1      21.107   2.973 187.544  0.00  0.00    +0.000 C 
ATOM     13  C   UNL     1      20.304   2.432 186.452  0.00  0.00    +0.000 C 
ATOM     14  C   UNL     1      20.560   3.892 186.552  0.00  0.00    +0.000 C 
BRANCH  12  15
ATOM     15  C   UNL     1      20.496   2.964 188.914  0.00  0.00    +0.000 C 
ATOM     16  O   UNL     1      20.180   4.032 189.426  0.00  0.00    +0.000 OA
ATOM     17  N   UNL     1      20.301   1.705 189.454  0.00  0.00    +0.000 N 
ATOM     18  H   UNL     1      20.560   0.900 188.892  0.00  0.00    +0.000 HD
BRANCH  17  19
ATOM     19  C   UNL     1      19.734   1.436 190.714  0.00  0.00    +0.000 A 
ATOM     20  C   UNL     1      20.592   1.034 191.739  0.00  0.00    +0.000 A 
ATOM     21  C   UNL     1      20.092   0.753 193.009  0.00  0.00    +0.000 A 
ATOM     22  C   UNL     1      18.728   0.879 193.245  0.00  0.00    +0.000 A 
ATOM     23  F   UNL     1      18.244   0.612 194.465  0.00  0.00    +0.000 F 
ATOM     24  C   UNL     1      17.859   1.281 192.237  0.00  0.00    +0.000 A 
ATOM     25  C   UNL     1      18.367   1.558 190.971  0.00  0.00    +0.000 A 
ENDBRANCH  17  19
ENDBRANCH  12  15
ENDBRANCH   9  12
ENDBRANCH   2   8
BRANCH   7  26
ATOM     26  O   UNL     1      28.627   1.861 189.604  0.00  0.00    +0.000 OA
BRANCH  26  27
ATOM     27  C   UNL     1      29.180   2.300 190.791  0.00  0.00    +0.000 A 
ATOM     28  C   UNL     1      29.968   3.461 190.764  0.00  0.00    +0.000 A 
ATOM     29  C   UNL     1      30.481   3.934 191.984  0.00  0.00    +0.000 A 
ATOM     30  C   UNL     1      30.260   4.146 189.574  0.00  0.00    +0.000 A 
ATOM     31  N   UNL     1      30.231   3.323 193.153  0.00  0.00    +0.000 NA
ATOM     32  C   UNL     1      31.267   5.076 191.962  0.00  0.00    +0.000 A 
ATOM     33  C   UNL     1      29.456   2.215 193.138  0.00  0.00    +0.000 A 
ATOM     34  C   UNL     1      28.901   1.670 191.999  0.00  0.00    +0.000 A 
ATOM     35  C   UNL     1      31.560   5.766 190.778  0.00  0.00    +0.000 A 
ATOM     36  C   UNL     1      31.052   5.295 189.567  0.00  0.00    +0.000 A 
BRANCH  36  37
ATOM     37  O   UNL     1      31.374   6.003 188.433  0.00  0.00    +0.000 OA
ATOM     38  C   UNL     1      30.835   5.510 187.237  0.00  0.00    +0.000 C 
ENDBRANCH  36  37
BRANCH  35  39
ATOM     39  O   UNL     1      32.341   6.897 190.739  0.00  0.00    +0.000 OA
BRANCH  39  40
ATOM     40  C   UNL     1      33.654   6.675 190.758  0.00  0.00    +0.000 C 
ATOM     41  C   UNL     1      35.162   6.403 190.778  0.00  0.00    +0.000 C 
BRANCH  41  42
ATOM     42  C   UNL     1      36.669   6.126 190.794  0.00  0.00    +0.000 C 
BRANCH  42  43
ATOM     43  N   UNL     1      38.101   5.862 190.808  0.00  0.00    +0.000 N 
ATOM     44  C   UNL     1      38.778   7.143 190.440  0.00  0.00    +0.000 C 
ATOM     45  C   UNL     1      39.637   8.091 191.339  0.00  0.00    +0.000 C 
ATOM     46  O   UNL     1      40.020   8.083 192.634  0.00  0.00    +0.000 OA
ATOM     47  C   UNL     1      39.404   6.930 192.969  0.00  0.00    +0.000 C 
ATOM     48  C   UNL     1      38.526   5.868 192.239  0.00  0.00    +0.000 C 
ENDBRANCH  42  43
ENDBRANCH  41  42
ENDBRANCH  39  40
ENDBRANCH  35  39
ENDBRANCH  26  27
ENDBRANCH   7  26
TORSDOF 11
ENDMDL
MODEL 4
REMARK VINA RESULT:      -7.8      5.427      6.946
REMARK  Name = Foretinib.pdbqt.pdb
REMARK  11 active torsions:
REMARK  status: ('A' for Active; 'I' for Inactive)
REMARK    1  A    between atoms: C_2  and  N_31
REMARK    2  A    between atoms: C_7  and  O_8
REMARK    3  A    between atoms: O_8  and  C_9
REMARK    4  A    between atoms: C_17  and  O_19
REMARK    5  A    between atoms: C_18  and  O_29
REMARK    6  A    between atoms: O_19  and  C_20
REMARK    7  A    between atoms: C_21  and  C_22
REMARK    8  A    between atoms: C_22  and  N_23
REMARK    9  A    between atoms: C_32  and  C_35
REMARK   10  A    between atoms: C_35  and  C_38
REMARK   11  A    between atoms: N_40  and  C_42
REMARK                            x       y       z     vdW  Elec       q    Type
REMARK                         _______ _______ _______ _____ _____    ______ ____
ROOT
ATOM      1  F   UNL     1      27.861   1.751 193.797  0.00  0.00    +0.000 F 
ATOM      2  C   UNL     1      24.616   0.634 192.619  0.00  0.00    +0.000 A 
ATOM      3  C   UNL     1      25.601   1.411 193.229  0.00  0.00    +0.000 A 
ATOM      4  C   UNL     1      24.977  -0.546 191.964  0.00  0.00    +0.000 A 
ATOM      5  C   UNL     1      26.932   1.009 193.176  0.00  0.00    +0.000 A 
ATOM      6  C   UNL     1      26.310  -0.949 191.913  0.00  0.00    +0.000 A 
ATOM      7  C   UNL     1      27.294  -0.156 192.500  0.00  0.00    +0.000 A 
ENDROOT
BRANCH   2   8
ATOM      8  N   UNL     1      23.252   0.981 192.635  0.00  0.00    +0.000 N 
ATOM      9  C   UNL     1      22.278   0.373 193.410  0.00  0.00    +0.000 C 
ATOM     10  O   UNL     1      22.444  -0.569 194.175  0.00  0.00    +0.000 OA
ATOM     11  H   UNL     1      22.960   1.711 191.993  0.00  0.00    +0.000 HD
BRANCH   9  12
ATOM     12  C   UNL     1      20.895   0.923 193.215  0.00  0.00    +0.000 C 
ATOM     13  C   UNL     1      20.148   1.317 194.405  0.00  0.00    +0.000 C 
ATOM     14  C   UNL     1      19.775   0.094 193.647  0.00  0.00    +0.000 C 
BRANCH  12  15
ATOM     15  C   UNL     1      20.721   1.763 191.986  0.00  0.00    +0.000 C 
ATOM     16  O   UNL     1      21.074   2.936 192.017  0.00  0.00    +0.000 OA
ATOM     17  N   UNL     1      20.210   1.089 190.890  0.00  0.00    +0.000 N 
ATOM     18  H   UNL     1      20.012   0.098 190.991  0.00  0.00    +0.000 HD
BRANCH  17  19
ATOM     19  C   UNL     1      19.970   1.653 189.624  0.00  0.00    +0.000 A 
ATOM     20  C   UNL     1      21.022   1.660 188.705  0.00  0.00    +0.000 A 
ATOM     21  C   UNL     1      20.846   2.205 187.435  0.00  0.00    +0.000 A 
ATOM     22  C   UNL     1      19.611   2.741 187.090  0.00  0.00    +0.000 A 
ATOM     23  F   UNL     1      19.439   3.264 185.869  0.00  0.00    +0.000 F 
ATOM     24  C   UNL     1      18.552   2.741 187.990  0.00  0.00    +0.000 A 
ATOM     25  C   UNL     1      18.736   2.196 189.258  0.00  0.00    +0.000 A 
ENDBRANCH  17  19
ENDBRANCH  12  15
ENDBRANCH   9  12
ENDBRANCH   2   8
BRANCH   7  26
ATOM     26  O   UNL     1      28.581  -0.634 192.475  0.00  0.00    +0.000 OA
BRANCH  26  27
ATOM     27  C   UNL     1      29.458  -0.041 191.588  0.00  0.00    +0.000 A 
ATOM     28  C   UNL     1      30.819  -0.005 191.927  0.00  0.00    +0.000 A 
ATOM     29  C   UNL     1      31.713   0.549 190.995  0.00  0.00    +0.000 A 
ATOM     30  C   UNL     1      31.303  -0.491 193.152  0.00  0.00    +0.000 A 
ATOM     31  N   UNL     1      31.308   1.024 189.807  0.00  0.00    +0.000 NA
ATOM     32  C   UNL     1      33.058   0.594 191.329  0.00  0.00    +0.000 A 
ATOM     33  C   UNL     1      29.990   0.959 189.512  0.00  0.00    +0.000 A 
ATOM     34  C   UNL     1      29.031   0.432 190.352  0.00  0.00    +0.000 A 
ATOM     35  C   UNL     1      33.548   0.109 192.548  0.00  0.00    +0.000 A 
ATOM     36  C   UNL     1      32.660  -0.440 193.474  0.00  0.00    +0.000 A 
BRANCH  36  37
ATOM     37  O   UNL     1      33.189  -0.895 194.659  0.00  0.00    +0.000 OA
ATOM     38  C   UNL     1      32.946  -0.090 195.780  0.00  0.00    +0.000 C 
ENDBRANCH  36  37
BRANCH  35  39
ATOM     39  O   UNL     1      34.878   0.151 192.896  0.00  0.00    +0.000 OA
BRANCH  39  40
ATOM     40  C   UNL     1      35.559  -0.966 192.652  0.00  0.00    +0.000 C 
ATOM     41  C   UNL     1      36.353  -2.249 192.384  0.00  0.00    +0.000 C 
BRANCH  41  42
ATOM     42  C   UNL     1      37.148  -3.534 192.123  0.00  0.00    +0.000 C 
BRANCH  42  43
ATOM     43  N   UNL     1      37.902  -4.754 191.874  0.00  0.00    +0.000 N 
ATOM     44  C   UNL     1      38.964  -4.409 190.880  0.00  0.00    +0.000 C 
ATOM     45  C   UNL     1      40.510  -4.310 191.092  0.00  0.00    +0.000 C 
ATOM     46  O   UNL     1      41.337  -4.479 192.146  0.00  0.00    +0.000 OA
ATOM     47  C   UNL     1      40.380  -4.785 193.045  0.00  0.00    +0.000 C 
ATOM     48  C   UNL     1      38.828  -4.932 193.033  0.00  0.00    +0.000 C 
ENDBRANCH  42  43
ENDBRANCH  41  42
ENDBRANCH  39  40
ENDBRANCH  35  39
ENDBRANCH  26  27
ENDBRANCH   7  26
TORSDOF 11
ENDMDL
MODEL 5
REMARK VINA RESULT:      -7.6      2.791      3.762
REMARK  Name = Foretinib.pdbqt.pdb
REMARK  11 active torsions:
REMARK  status: ('A' for Active; 'I' for Inactive)
REMARK    1  A    between atoms: C_2  and  N_31
REMARK    2  A    between atoms: C_7  and  O_8
REMARK    3  A    between atoms: O_8  and  C_9
REMARK    4  A    between atoms: C_17  and  O_19
REMARK    5  A    between atoms: C_18  and  O_29
REMARK    6  A    between atoms: O_19  and  C_20
REMARK    7  A    between atoms: C_21  and  C_22
REMARK    8  A    between atoms: C_22  and  N_23
REMARK    9  A    between atoms: C_32  and  C_35
REMARK   10  A    between atoms: C_35  and  C_38
REMARK   11  A    between atoms: N_40  and  C_42
REMARK                            x       y       z     vdW  Elec       q    Type
REMARK                         _______ _______ _______ _____ _____    ______ ____
ROOT
ATOM      1  F   UNL     1      30.381   2.114 189.652  0.00  0.00    +0.000 F 
ATOM      2  C   UNL     1      26.807   2.044 189.031  0.00  0.00    +0.000 A 
ATOM      3  C   UNL     1      28.138   2.461 189.024  0.00  0.00    +0.000 A 
ATOM      4  C   UNL     1      26.464   0.846 189.662  0.00  0.00    +0.000 A 
ATOM      5  C   UNL     1      29.112   1.681 189.639  0.00  0.00    +0.000 A 
ATOM      6  C   UNL     1      27.439   0.066 190.279  0.00  0.00    +0.000 A 
ATOM      7  C   UNL     1      28.771   0.472 190.247  0.00  0.00    +0.000 A 
ENDROOT
BRANCH   2   8
ATOM      8  N   UNL     1      25.773   2.784 188.429  0.00  0.00    +0.000 N 
ATOM      9  C   UNL     1      25.025   3.771 189.050  0.00  0.00    +0.000 C 
ATOM     10  O   UNL     1      25.128   4.132 190.215  0.00  0.00    +0.000 OA
ATOM     11  H   UNL     1      25.534   2.541 187.472  0.00  0.00    +0.000 HD
BRANCH   9  12
ATOM     12  C   UNL     1      23.965   4.387 188.184  0.00  0.00    +0.000 C 
ATOM     13  C   UNL     1      24.400   5.213 187.062  0.00  0.00    +0.000 C 
ATOM     14  C   UNL     1      23.786   5.832 188.265  0.00  0.00    +0.000 C 
BRANCH  12  15
ATOM     15  C   UNL     1      22.750   3.534 187.977  0.00  0.00    +0.000 C 
ATOM     16  O   UNL     1      22.772   2.676 187.102  0.00  0.00    +0.000 OA
ATOM     17  N   UNL     1      21.712   3.778 188.860  0.00  0.00    +0.000 N 
ATOM     18  H   UNL     1      21.853   4.485 189.575  0.00  0.00    +0.000 HD
BRANCH  17  19
ATOM     19  C   UNL     1      20.479   3.102 188.877  0.00  0.00    +0.000 A 
ATOM     20  C   UNL     1      19.543   3.431 187.894  0.00  0.00    +0.000 A 
ATOM     21  C   UNL     1      18.303   2.797 187.859  0.00  0.00    +0.000 A 
ATOM     22  C   UNL     1      18.007   1.829 188.812  0.00  0.00    +0.000 A 
ATOM     23  F   UNL     1      16.817   1.215 188.779  0.00  0.00    +0.000 F 
ATOM     24  C   UNL     1      18.927   1.486 189.796  0.00  0.00    +0.000 A 
ATOM     25  C   UNL     1      20.163   2.126 189.825  0.00  0.00    +0.000 A 
ENDBRANCH  17  19
ENDBRANCH  12  15
ENDBRANCH   9  12
ENDBRANCH   2   8
BRANCH   7  26
ATOM     26  O   UNL     1      29.679  -0.303 190.927  0.00  0.00    +0.000 OA
BRANCH  26  27
ATOM     27  C   UNL     1      30.061   0.127 192.182  0.00  0.00    +0.000 A 
ATOM     28  C   UNL     1      31.413   0.444 192.390  0.00  0.00    +0.000 A 
ATOM     29  C   UNL     1      31.784   0.935 193.653  0.00  0.00    +0.000 A 
ATOM     30  C   UNL     1      32.387   0.280 191.393  0.00  0.00    +0.000 A 
ATOM     31  N   UNL     1      30.895   1.117 194.643  0.00  0.00    +0.000 NA
ATOM     32  C   UNL     1      33.119   1.243 193.867  0.00  0.00    +0.000 A 
ATOM     33  C   UNL     1      29.601   0.813 194.399  0.00  0.00    +0.000 A 
ATOM     34  C   UNL     1      29.130   0.329 193.195  0.00  0.00    +0.000 A 
ATOM     35  C   UNL     1      34.096   1.083 192.876  0.00  0.00    +0.000 A 
ATOM     36  C   UNL     1      33.727   0.595 191.621  0.00  0.00    +0.000 A 
BRANCH  36  37
ATOM     37  O   UNL     1      34.724   0.449 190.686  0.00  0.00    +0.000 OA
ATOM     38  C   UNL     1      34.547   1.167 189.495  0.00  0.00    +0.000 C 
ENDBRANCH  36  37
BRANCH  35  39
ATOM     39  O   UNL     1      35.425   1.379 193.072  0.00  0.00    +0.000 OA
BRANCH  39  40
ATOM     40  C   UNL     1      35.733   2.670 192.983  0.00  0.00    +0.000 C 
ATOM     41  C   UNL     1      36.103   4.153 192.871  0.00  0.00    +0.000 C 
BRANCH  41  42
ATOM     42  C   UNL     1      36.475   5.636 192.753  0.00  0.00    +0.000 C 
BRANCH  42  43
ATOM     43  N   UNL     1      36.829   7.043 192.641  0.00  0.00    +0.000 N 
ATOM     44  C   UNL     1      38.284   7.096 192.303  0.00  0.00    +0.000 C 
ATOM     45  C   UNL     1      38.964   7.523 190.962  0.00  0.00    +0.000 C 
ATOM     46  O   UNL     1      38.514   7.945 189.761  0.00  0.00    +0.000 OA
ATOM     47  C   UNL     1      37.200   7.892 190.062  0.00  0.00    +0.000 C 
ATOM     48  C   UNL     1      36.344   7.505 191.306  0.00  0.00    +0.000 C 
ENDBRANCH  42  43
ENDBRANCH  41  42
ENDBRANCH  39  40
ENDBRANCH  35  39
ENDBRANCH  26  27
ENDBRANCH   7  26
TORSDOF 11
ENDMDL
MODEL 6
REMARK VINA RESULT:      -7.6      4.477      7.621
REMARK  Name = Foretinib.pdbqt.pdb
REMARK  11 active torsions:
REMARK  status: ('A' for Active; 'I' for Inactive)
REMARK    1  A    between atoms: C_2  and  N_31
REMARK    2  A    between atoms: C_7  and  O_8
REMARK    3  A    between atoms: O_8  and  C_9
REMARK    4  A    between atoms: C_17  and  O_19
REMARK    5  A    between atoms: C_18  and  O_29
REMARK    6  A    between atoms: O_19  and  C_20
REMARK    7  A    between atoms: C_21  and  C_22
REMARK    8  A    between atoms: C_22  and  N_23
REMARK    9  A    between atoms: C_32  and  C_35
REMARK   10  A    between atoms: C_35  and  C_38
REMARK   11  A    between atoms: N_40  and  C_42
REMARK                            x       y       z     vdW  Elec       q    Type
REMARK                         _______ _______ _______ _____ _____    ______ ____
ROOT
ATOM      1  F   UNL     1      21.808  -0.291 197.171  0.00  0.00    +0.000 F 
ATOM      2  C   UNL     1      21.451   1.369 193.964  0.00  0.00    +0.000 A 
ATOM      3  C   UNL     1      21.128   0.707 195.149  0.00  0.00    +0.000 A 
ATOM      4  C   UNL     1      22.784   1.688 193.694  0.00  0.00    +0.000 A 
ATOM      5  C   UNL     1      22.132   0.375 196.053  0.00  0.00    +0.000 A 
ATOM      6  C   UNL     1      23.789   1.354 194.600  0.00  0.00    +0.000 A 
ATOM      7  C   UNL     1      23.460   0.717 195.794  0.00  0.00    +0.000 A 
ENDROOT
BRANCH   2   8
ATOM      8  N   UNL     1      20.486   1.732 193.006  0.00  0.00    +0.000 N 
ATOM      9  C   UNL     1      20.228   1.053 191.827  0.00  0.00    +0.000 C 
ATOM     10  O   UNL     1      20.812   0.055 191.424  0.00  0.00    +0.000 OA
ATOM     11  H   UNL     1      19.967   2.588 193.183  0.00  0.00    +0.000 HD
BRANCH   9  12
ATOM     12  C   UNL     1      19.161   1.672 190.972  0.00  0.00    +0.000 C 
ATOM     13  C   UNL     1      17.908   2.048 191.617  0.00  0.00    +0.000 C 
ATOM     14  C   UNL     1      17.968   0.876 190.706  0.00  0.00    +0.000 C 
BRANCH  12  15
ATOM     15  C   UNL     1      19.670   2.570 189.885  0.00  0.00    +0.000 C 
ATOM     16  O   UNL     1      19.686   3.781 190.078  0.00  0.00    +0.000 OA
ATOM     17  N   UNL     1      20.133   1.913 188.758  0.00  0.00    +0.000 N 
ATOM     18  H   UNL     1      20.112   0.898 188.757  0.00  0.00    +0.000 HD
BRANCH  17  19
ATOM     19  C   UNL     1      20.670   2.533 187.614  0.00  0.00    +0.000 A 
ATOM     20  C   UNL     1      19.779   2.948 186.623  0.00  0.00    +0.000 A 
ATOM     21  C   UNL     1      20.249   3.568 185.467  0.00  0.00    +0.000 A 
ATOM     22  C   UNL     1      21.616   3.770 185.311  0.00  0.00    +0.000 A 
ATOM     23  F   UNL     1      22.070   4.367 184.202  0.00  0.00    +0.000 F 
ATOM     24  C   UNL     1      22.517   3.365 186.289  0.00  0.00    +0.000 A 
ATOM     25  C   UNL     1      22.039   2.745 187.440  0.00  0.00    +0.000 A 
ENDBRANCH  17  19
ENDBRANCH  12  15
ENDBRANCH   9  12
ENDBRANCH   2   8
BRANCH   7  26
ATOM     26  O   UNL     1      24.497   0.354 196.617  0.00  0.00    +0.000 OA
BRANCH  26  27
ATOM     27  C   UNL     1      25.249  -0.741 196.241  0.00  0.00    +0.000 A 
ATOM     28  C   UNL     1      26.578  -0.526 195.842  0.00  0.00    +0.000 A 
ATOM     29  C   UNL     1      27.354  -1.651 195.515  0.00  0.00    +0.000 A 
ATOM     30  C   UNL     1      27.140   0.757 195.757  0.00  0.00    +0.000 A 
ATOM     31  N   UNL     1      26.871  -2.901 195.583  0.00  0.00    +0.000 NA
ATOM     32  C   UNL     1      28.665  -1.443 195.113  0.00  0.00    +0.000 A 
ATOM     33  C   UNL     1      25.591  -3.067 195.984  0.00  0.00    +0.000 A 
ATOM     34  C   UNL     1      24.745  -2.034 196.332  0.00  0.00    +0.000 A 
ATOM     35  C   UNL     1      29.233  -0.166 195.027  0.00  0.00    +0.000 A 
ATOM     36  C   UNL     1      28.462   0.951 195.352  0.00  0.00    +0.000 A 
BRANCH  36  37
ATOM     37  O   UNL     1      29.063   2.183 195.244  0.00  0.00    +0.000 OA
ATOM     38  C   UNL     1      28.466   3.072 194.340  0.00  0.00    +0.000 C 
ENDBRANCH  36  37
BRANCH  35  39
ATOM     39  O   UNL     1      30.530   0.057 194.627  0.00  0.00    +0.000 OA
BRANCH  39  40
ATOM     40  C   UNL     1      30.667   0.473 193.370  0.00  0.00    +0.000 C 
ATOM     41  C   UNL     1      30.841   0.945 191.922  0.00  0.00    +0.000 C 
BRANCH  41  42
ATOM     42  C   UNL     1      31.017   1.411 190.473  0.00  0.00    +0.000 C 
BRANCH  42  43
ATOM     43  N   UNL     1      31.186   1.855 189.097  0.00  0.00    +0.000 N 
ATOM     44  C   UNL     1      30.025   2.743 188.785  0.00  0.00    +0.000 C 
ATOM     45  C   UNL     1      30.006   4.290 188.561  0.00  0.00    +0.000 C 
ATOM     46  O   UNL     1      30.942   5.264 188.577  0.00  0.00    +0.000 OA
ATOM     47  C   UNL     1      31.990   4.465 188.864  0.00  0.00    +0.000 C 
ATOM     48  C   UNL     1      32.210   2.942 189.117  0.00  0.00    +0.000 C 
ENDBRANCH  42  43
ENDBRANCH  41  42
ENDBRANCH  39  40
ENDBRANCH  35  39
ENDBRANCH  26  27
ENDBRANCH   7  26
TORSDOF 11
ENDMDL
MODEL 7
REMARK VINA RESULT:      -7.6      3.097      4.783
REMARK  Name = Foretinib.pdbqt.pdb
REMARK  11 active torsions:
REMARK  status: ('A' for Active; 'I' for Inactive)
REMARK    1  A    between atoms: C_2  and  N_31
REMARK    2  A    between atoms: C_7  and  O_8
REMARK    3  A    between atoms: O_8  and  C_9
REMARK    4  A    between atoms: C_17  and  O_19
REMARK    5  A    between atoms: C_18  and  O_29
REMARK    6  A    between atoms: O_19  and  C_20
REMARK    7  A    between atoms: C_21  and  C_22
REMARK    8  A    between atoms: C_22  and  N_23
REMARK    9  A    between atoms: C_32  and  C_35
REMARK   10  A    between atoms: C_35  and  C_38
REMARK   11  A    between atoms: N_40  and  C_42
REMARK                            x       y       z     vdW  Elec       q    Type
REMARK                         _______ _______ _______ _____ _____    ______ ____
ROOT
ATOM      1  F   UNL     1      29.293   1.350 187.742  0.00  0.00    +0.000 F 
ATOM      2  C   UNL     1      26.812   1.885 190.335  0.00  0.00    +0.000 A 
ATOM      3  C   UNL     1      27.425   1.862 189.082  0.00  0.00    +0.000 A 
ATOM      4  C   UNL     1      27.493   1.380 191.445  0.00  0.00    +0.000 A 
ATOM      5  C   UNL     1      28.705   1.333 188.947  0.00  0.00    +0.000 A 
ATOM      6  C   UNL     1      28.776   0.852 191.309  0.00  0.00    +0.000 A 
ATOM      7  C   UNL     1      29.374   0.806 190.052  0.00  0.00    +0.000 A 
ENDROOT
BRANCH   2   8
ATOM      8  N   UNL     1      25.521   2.405 190.543  0.00  0.00    +0.000 N 
ATOM      9  C   UNL     1      24.335   1.719 190.340  0.00  0.00    +0.000 C 
ATOM     10  O   UNL     1      24.225   0.571 189.927  0.00  0.00    +0.000 OA
ATOM     11  H   UNL     1      25.462   3.379 190.827  0.00  0.00    +0.000 HD
BRANCH   9  12
ATOM     12  C   UNL     1      23.097   2.520 190.615  0.00  0.00    +0.000 C 
ATOM     13  C   UNL     1      22.987   3.176 191.914  0.00  0.00    +0.000 C 
ATOM     14  C   UNL     1      22.155   1.987 191.594  0.00  0.00    +0.000 C 
BRANCH  12  15
ATOM     15  C   UNL     1      22.546   3.251 189.428  0.00  0.00    +0.000 C 
ATOM     16  O   UNL     1      21.703   4.123 189.610  0.00  0.00    +0.000 OA
ATOM     17  N   UNL     1      23.102   2.889 188.213  0.00  0.00    +0.000 N 
ATOM     18  H   UNL     1      23.835   2.186 188.217  0.00  0.00    +0.000 HD
BRANCH  17  19
ATOM     19  C   UNL     1      22.762   3.439 186.964  0.00  0.00    +0.000 A 
ATOM     20  C   UNL     1      21.621   2.947 186.326  0.00  0.00    +0.000 A 
ATOM     21  C   UNL     1      21.233   3.451 185.087  0.00  0.00    +0.000 A 
ATOM     22  C   UNL     1      21.994   4.451 184.491  0.00  0.00    +0.000 A 
ATOM     23  F   UNL     1      21.621   4.939 183.300  0.00  0.00    +0.000 F 
ATOM     24  C   UNL     1      23.131   4.954 185.112  0.00  0.00    +0.000 A 
ATOM     25  C   UNL     1      23.512   4.444 186.350  0.00  0.00    +0.000 A 
ENDBRANCH  17  19
ENDBRANCH  12  15
ENDBRANCH   9  12
ENDBRANCH   2   8
BRANCH   7  26
ATOM     26  O   UNL     1      30.663   0.335 189.988  0.00  0.00    +0.000 OA
BRANCH  26  27
ATOM     27  C   UNL     1      31.585   0.901 190.847  0.00  0.00    +0.000 A 
ATOM     28  C   UNL     1      32.119   2.155 190.510  0.00  0.00    +0.000 A 
ATOM     29  C   UNL     1      33.013   2.751 191.416  0.00  0.00    +0.000 A 
ATOM     30  C   UNL     1      31.796   2.815 189.314  0.00  0.00    +0.000 A 
ATOM     31  N   UNL     1      33.354   2.169 192.576  0.00  0.00    +0.000 NA
ATOM     32  C   UNL     1      33.549   3.986 191.085  0.00  0.00    +0.000 A 
ATOM     33  C   UNL     1      32.808   0.968 192.870  0.00  0.00    +0.000 A 
ATOM     34  C   UNL     1      31.918   0.299 192.055  0.00  0.00    +0.000 A 
ATOM     35  C   UNL     1      33.230   4.651 189.894  0.00  0.00    +0.000 A 
ATOM     36  C   UNL     1      32.343   4.058 188.995  0.00  0.00    +0.000 A 
BRANCH  36  37
ATOM     37  O   UNL     1      32.068   4.747 187.837  0.00  0.00    +0.000 OA
ATOM     38  C   UNL     1      32.644   4.227 186.670  0.00  0.00    +0.000 C 
ENDBRANCH  36  37
BRANCH  35  39
ATOM     39  O   UNL     1      33.757   5.874 189.549  0.00  0.00    +0.000 OA
BRANCH  39  40
ATOM     40  C   UNL     1      34.936   6.154 190.099  0.00  0.00    +0.000 C 
ATOM     41  C   UNL     1      36.288   6.494 190.736  0.00  0.00    +0.000 C 
BRANCH  41  42
ATOM     42  C   UNL     1      37.636   6.836 191.378  0.00  0.00    +0.000 C 
BRANCH  42  43
ATOM     43  N   UNL     1      38.917   7.162 191.989  0.00  0.00    +0.000 N 
ATOM     44  C   UNL     1      39.518   5.871 192.445  0.00  0.00    +0.000 C 
ATOM     45  C   UNL     1      40.759   5.111 191.873  0.00  0.00    +0.000 C 
ATOM     46  O   UNL     1      41.627   5.335 190.863  0.00  0.00    +0.000 OA
ATOM     47  C   UNL     1      41.083   6.497 190.447  0.00  0.00    +0.000 C 
ATOM     48  C   UNL     1      39.881   7.394 190.872  0.00  0.00    +0.000 C 
ENDBRANCH  42  43
ENDBRANCH  41  42
ENDBRANCH  39  40
ENDBRANCH  35  39
ENDBRANCH  26  27
ENDBRANCH   7  26
TORSDOF 11
ENDMDL
MODEL 8
REMARK VINA RESULT:      -7.6     25.139     28.067
REMARK  Name = Foretinib.pdbqt.pdb
REMARK  11 active torsions:
REMARK  status: ('A' for Active; 'I' for Inactive)
REMARK    1  A    between atoms: C_2  and  N_31
REMARK    2  A    between atoms: C_7  and  O_8
REMARK    3  A    between atoms: O_8  and  C_9
REMARK    4  A    between atoms: C_17  and  O_19
REMARK    5  A    between atoms: C_18  and  O_29
REMARK    6  A    between atoms: O_19  and  C_20
REMARK    7  A    between atoms: C_21  and  C_22
REMARK    8  A    between atoms: C_22  and  N_23
REMARK    9  A    between atoms: C_32  and  C_35
REMARK   10  A    between atoms: C_35  and  C_38
REMARK   11  A    between atoms: N_40  and  C_42
REMARK                            x       y       z     vdW  Elec       q    Type
REMARK                         _______ _______ _______ _____ _____    ______ ____
ROOT
ATOM      1  F   UNL     1      49.213 -14.708 191.010  0.00  0.00    +0.000 F 
ATOM      2  C   UNL     1      47.622 -15.898 187.974  0.00  0.00    +0.000 A 
ATOM      3  C   UNL     1      47.896 -15.697 189.327  0.00  0.00    +0.000 A 
ATOM      4  C   UNL     1      48.407 -15.261 187.011  0.00  0.00    +0.000 A 
ATOM      5  C   UNL     1      48.943 -14.863 189.706  0.00  0.00    +0.000 A 
ATOM      6  C   UNL     1      49.457 -14.427 187.391  0.00  0.00    +0.000 A 
ATOM      7  C   UNL     1      49.710 -14.208 188.742  0.00  0.00    +0.000 A 
ENDROOT
BRANCH   2   8
ATOM      8  N   UNL     1      46.580 -16.729 187.522  0.00  0.00    +0.000 N 
ATOM      9  C   UNL     1      45.542 -17.213 188.301  0.00  0.00    +0.000 C 
ATOM     10  O   UNL     1      45.385 -17.016 189.500  0.00  0.00    +0.000 OA
ATOM     11  H   UNL     1      46.622 -17.026 186.551  0.00  0.00    +0.000 HD
BRANCH   9  12
ATOM     12  C   UNL     1      44.577 -18.100 187.572  0.00  0.00    +0.000 C 
ATOM     13  C   UNL     1      44.930 -19.507 187.418  0.00  0.00    +0.000 C 
ATOM     14  C   UNL     1      44.972 -18.584 186.254  0.00  0.00    +0.000 C 
BRANCH  12  15
ATOM     15  C   UNL     1      43.131 -17.777 187.802  0.00  0.00    +0.000 C 
ATOM     16  O   UNL     1      42.677 -16.737 187.339  0.00  0.00    +0.000 OA
ATOM     17  N   UNL     1      42.422 -18.745 188.494  0.00  0.00    +0.000 N 
ATOM     18  H   UNL     1      42.916 -19.588 188.771  0.00  0.00    +0.000 HD
BRANCH  17  19
ATOM     19  C   UNL     1      41.055 -18.679 188.820  0.00  0.00    +0.000 A 
ATOM     20  C   UNL     1      40.686 -17.900 189.918  0.00  0.00    +0.000 A 
ATOM     21  C   UNL     1      39.348 -17.795 190.291  0.00  0.00    +0.000 A 
ATOM     22  C   UNL     1      38.382 -18.474 189.557  0.00  0.00    +0.000 A 
ATOM     23  F   UNL     1      37.095 -18.374 189.912  0.00  0.00    +0.000 F 
ATOM     24  C   UNL     1      38.731 -19.253 188.459  0.00  0.00    +0.000 A 
ATOM     25  C   UNL     1      40.071 -19.353 188.094  0.00  0.00    +0.000 A 
ENDBRANCH  17  19
ENDBRANCH  12  15
ENDBRANCH   9  12
ENDBRANCH   2   8
BRANCH   7  26
ATOM     26  O   UNL     1      50.796 -13.428 189.058  0.00  0.00    +0.000 OA
BRANCH  26  27
ATOM     27  C   UNL     1      51.929 -13.580 188.282  0.00  0.00    +0.000 A 
ATOM     28  C   UNL     1      52.774 -12.471 188.123  0.00  0.00    +0.000 A 
ATOM     29  C   UNL     1      53.954 -12.648 187.379  0.00  0.00    +0.000 A 
ATOM     30  C   UNL     1      52.477 -11.212 188.668  0.00  0.00    +0.000 A 
ATOM     31  N   UNL     1      54.292 -13.829 186.839  0.00  0.00    +0.000 NA
ATOM     32  C   UNL     1      54.789 -11.554 187.212  0.00  0.00    +0.000 A 
ATOM     33  C   UNL     1      53.458 -14.876 187.027  0.00  0.00    +0.000 A 
ATOM     34  C   UNL     1      52.279 -14.812 187.741  0.00  0.00    +0.000 A 
ATOM     35  C   UNL     1      54.500 -10.295 187.755  0.00  0.00    +0.000 A 
ATOM     36  C   UNL     1      53.328 -10.120 188.492  0.00  0.00    +0.000 A 
BRANCH  36  37
ATOM     37  O   UNL     1      53.085  -8.864 188.997  0.00  0.00    +0.000 OA
ATOM     38  C   UNL     1      52.343  -8.822 190.186  0.00  0.00    +0.000 C 
ENDBRANCH  36  37
BRANCH  35  39
ATOM     39  O   UNL     1      55.315  -9.199 187.594  0.00  0.00    +0.000 OA
BRANCH  39  40
ATOM     40  C   UNL     1      55.294  -8.656 186.380  0.00  0.00    +0.000 C 
ATOM     41  C   UNL     1      55.283  -8.019 184.986  0.00  0.00    +0.000 C 
BRANCH  41  42
ATOM     42  C   UNL     1      55.278  -7.381 183.592  0.00  0.00    +0.000 C 
BRANCH  42  43
ATOM     43  N   UNL     1      55.273  -6.775 182.268  0.00  0.00    +0.000 N 
ATOM     44  C   UNL     1      56.698  -6.493 181.918  0.00  0.00    +0.000 C 
ATOM     45  C   UNL     1      57.600  -7.188 180.846  0.00  0.00    +0.000 C 
ATOM     46  O   UNL     1      57.421  -8.190 179.959  0.00  0.00    +0.000 OA
ATOM     47  C   UNL     1      56.136  -8.449 180.278  0.00  0.00    +0.000 C 
ATOM     48  C   UNL     1      55.089  -7.886 181.286  0.00  0.00    +0.000 C 
ENDBRANCH  42  43
ENDBRANCH  41  42
ENDBRANCH  39  40
ENDBRANCH  35  39
ENDBRANCH  26  27
ENDBRANCH   7  26
TORSDOF 11
ENDMDL
MODEL 9
REMARK VINA RESULT:      -7.3     27.435     32.215
REMARK  Name = Foretinib.pdbqt.pdb
REMARK  11 active torsions:
REMARK  status: ('A' for Active; 'I' for Inactive)
REMARK    1  A    between atoms: C_2  and  N_31
REMARK    2  A    between atoms: C_7  and  O_8
REMARK    3  A    between atoms: O_8  and  C_9
REMARK    4  A    between atoms: C_17  and  O_19
REMARK    5  A    between atoms: C_18  and  O_29
REMARK    6  A    between atoms: O_19  and  C_20
REMARK    7  A    between atoms: C_21  and  C_22
REMARK    8  A    between atoms: C_22  and  N_23
REMARK    9  A    between atoms: C_32  and  C_35
REMARK   10  A    between atoms: C_35  and  C_38
REMARK   11  A    between atoms: N_40  and  C_42
REMARK                            x       y       z     vdW  Elec       q    Type
REMARK                         _______ _______ _______ _____ _____    ______ ____
ROOT
ATOM      1  F   UNL     1      47.132 -16.472 191.282  0.00  0.00    +0.000 F 
ATOM      2  C   UNL     1      49.214 -15.189 188.602  0.00  0.00    +0.000 A 
ATOM      3  C   UNL     1      48.769 -15.521 189.882  0.00  0.00    +0.000 A 
ATOM      4  C   UNL     1      48.436 -15.528 187.493  0.00  0.00    +0.000 A 
ATOM      5  C   UNL     1      47.560 -16.191 190.043  0.00  0.00    +0.000 A 
ATOM      6  C   UNL     1      47.224 -16.197 187.655  0.00  0.00    +0.000 A 
ATOM      7  C   UNL     1      46.797 -16.551 188.932  0.00  0.00    +0.000 A 
ENDROOT
BRANCH   2   8
ATOM      8  N   UNL     1      50.425 -14.511 188.367  0.00  0.00    +0.000 N 
ATOM      9  C   UNL     1      51.641 -15.112 188.087  0.00  0.00    +0.000 C 
ATOM     10  O   UNL     1      51.856 -16.316 188.026  0.00  0.00    +0.000 OA
ATOM     11  H   UNL     1      50.405 -13.499 188.452  0.00  0.00    +0.000 HD
BRANCH   9  12
ATOM     12  C   UNL     1      52.781 -14.155 187.902  0.00  0.00    +0.000 C 
ATOM     13  C   UNL     1      53.489 -14.180 186.627  0.00  0.00    +0.000 C 
ATOM     14  C   UNL     1      54.128 -14.713 187.858  0.00  0.00    +0.000 C 
BRANCH  12  15
ATOM     15  C   UNL     1      52.590 -12.818 188.555  0.00  0.00    +0.000 C 
ATOM     16  O   UNL     1      52.351 -12.777 189.757  0.00  0.00    +0.000 OA
ATOM     17  N   UNL     1      52.760 -11.731 187.715  0.00  0.00    +0.000 N 
ATOM     18  H   UNL     1      53.013 -11.913 186.748  0.00  0.00    +0.000 HD
BRANCH  17  19
ATOM     19  C   UNL     1      52.648 -10.381 188.093  0.00  0.00    +0.000 A 
ATOM     20  C   UNL     1      51.374  -9.810 188.091  0.00  0.00    +0.000 A 
ATOM     21  C   UNL     1      51.197  -8.478 188.456  0.00  0.00    +0.000 A 
ATOM     22  C   UNL     1      52.304  -7.721 188.824  0.00  0.00    +0.000 A 
ATOM     23  F   UNL     1      52.137  -6.440 189.177  0.00  0.00    +0.000 F 
ATOM     24  C   UNL     1      53.579  -8.273 188.834  0.00  0.00    +0.000 A 
ATOM     25  C   UNL     1      53.747  -9.606 188.467  0.00  0.00    +0.000 A 
ENDBRANCH  17  19
ENDBRANCH  12  15
ENDBRANCH   9  12
ENDBRANCH   2   8
BRANCH   7  26
ATOM     26  O   UNL     1      45.566 -17.152 189.037  0.00  0.00    +0.000 OA
BRANCH  26  27
ATOM     27  C   UNL     1      45.158 -17.943 187.982  0.00  0.00    +0.000 A 
ATOM     28  C   UNL     1      45.464 -19.312 188.025  0.00  0.00    +0.000 A 
ATOM     29  C   UNL     1      44.997 -20.122 186.975  0.00  0.00    +0.000 A 
ATOM     30  C   UNL     1      46.217 -19.884 189.063  0.00  0.00    +0.000 A 
ATOM     31  N   UNL     1      44.269 -19.632 185.959  0.00  0.00    +0.000 NA
ATOM     32  C   UNL     1      45.303 -21.474 187.009  0.00  0.00    +0.000 A 
ATOM     33  C   UNL     1      43.984 -18.310 185.961  0.00  0.00    +0.000 A 
ATOM     34  C   UNL     1      44.390 -17.430 186.943  0.00  0.00    +0.000 A 
ATOM     35  C   UNL     1      46.052 -22.051 188.043  0.00  0.00    +0.000 A 
ATOM     36  C   UNL     1      46.516 -21.247 189.084  0.00  0.00    +0.000 A 
BRANCH  36  37
ATOM     37  O   UNL     1      47.253 -21.859 190.071  0.00  0.00    +0.000 OA
ATOM     38  C   UNL     1      47.471 -21.097 191.226  0.00  0.00    +0.000 C 
ENDBRANCH  36  37
BRANCH  35  39
ATOM     39  O   UNL     1      46.368 -23.389 188.089  0.00  0.00    +0.000 OA
BRANCH  39  40
ATOM     40  C   UNL     1      46.881 -23.884 186.965  0.00  0.00    +0.000 C 
ATOM     41  C   UNL     1      47.482 -24.467 185.681  0.00  0.00    +0.000 C 
BRANCH  41  42
ATOM     42  C   UNL     1      48.081 -25.055 184.399  0.00  0.00    +0.000 C 
BRANCH  42  43
ATOM     43  N   UNL     1      48.651 -25.613 183.181  0.00  0.00    +0.000 N 
ATOM     44  C   UNL     1      48.814 -24.478 182.222  0.00  0.00    +0.000 C 
ATOM     45  C   UNL     1      50.130 -23.804 181.715  0.00  0.00    +0.000 C 
ATOM     46  O   UNL     1      51.447 -23.993 181.952  0.00  0.00    +0.000 OA
ATOM     47  C   UNL     1      51.301 -25.014 182.821  0.00  0.00    +0.000 C 
ATOM     48  C   UNL     1      50.110 -25.808 183.438  0.00  0.00    +0.000 C 
ENDBRANCH  42  43
ENDBRANCH  41  42
ENDBRANCH  39  40
ENDBRANCH  35  39
ENDBRANCH  26  27
ENDBRANCH   7  26
TORSDOF 11
ENDMDL
