MODEL 1
REMARK VINA RESULT:      -5.7      0.000      0.000
REMARK  Name = 
REMARK  7 active torsions:
REMARK  status: ('A' for Active; 'I' for Inactive)
REMARK    1  A    between atoms: S_1  and  O_3
REMARK    2  A    between atoms: S_1  and  O_6
REMARK    3  A    between atoms: O_3  and  C_9
REMARK    4  A    between atoms: O_4  and  C_10
REMARK    5  A    between atoms: O_5  and  C_11
REMARK    6  A    between atoms: C_12  and  C_14
REMARK    7  A    between atoms: C_13  and  C_15
REMARK                            x       y       z     vdW  Elec       q    Type
REMARK                         _______ _______ _______ _____ _____    ______ ____
ROOT
ATOM      1  O   UNL     1      21.074   3.702 184.365  0.00  0.00    +0.000 OA
ATOM      2  C   UNL     1      22.216   3.905 186.525  0.00  0.00    +0.000 C 
ATOM      3  C   UNL     1      23.186   4.918 185.900  0.00  0.00    +0.000 C 
ATOM      4  C   UNL     1      23.309   4.702 184.385  0.00  0.00    +0.000 C 
ATOM      5  C   UNL     1      20.878   3.948 185.764  0.00  0.00    +0.000 C 
ATOM      6  C   UNL     1      21.917   4.679 183.738  0.00  0.00    +0.000 C 
ATOM      7  C   UNL     1      19.898   2.897 186.273  0.00  0.00    +0.000 C 
ATOM      8  C   UNL     1      21.996   4.334 182.256  0.00  0.00    +0.000 C 
ENDROOT
BRANCH   3   9
ATOM      9  O   UNL     1      24.506   4.852 186.461  0.00  0.00    +0.000 OA
ATOM     10  H   UNL     1      25.164   5.003 185.750  0.00  0.00    +0.000 HD
ENDBRANCH   3   9
BRANCH   4  11
ATOM     11  O   UNL     1      24.112   5.751 183.836  0.00  0.00    +0.000 OA
ATOM     12  H   UNL     1      24.798   5.923 184.514  0.00  0.00    +0.000 HD
ENDBRANCH   4  11
BRANCH   2  13
ATOM     13  O   UNL     1      22.776   2.593 186.439  0.00  0.00    +0.000 OA
BRANCH  13  14
ATOM     14  S   UNL     1      23.234   1.856 187.808  0.00  0.00    +0.000 S 
ATOM     15  O   UNL     1      24.202   2.696 188.472  0.00  0.00    +0.000 OA
ATOM     16  O   UNL     1      22.060   1.341 188.478  0.00  0.00    +0.000 OA
BRANCH  14  17
ATOM     17  O   UNL     1      24.068   0.603 187.242  0.00  0.00    +0.000 OA
ATOM     18  H   UNL     1      23.778  -0.186 187.746  0.00  0.00    +0.000 HD
ENDBRANCH  14  17
ENDBRANCH  13  14
ENDBRANCH   2  13
TORSDOF 5
ENDMDL
MODEL 2
REMARK VINA RESULT:      -5.5      2.221      2.530
REMARK  Name = 
REMARK  7 active torsions:
REMARK  status: ('A' for Active; 'I' for Inactive)
REMARK    1  A    between atoms: S_1  and  O_3
REMARK    2  A    between atoms: S_1  and  O_6
REMARK    3  A    between atoms: O_3  and  C_9
REMARK    4  A    between atoms: O_4  and  C_10
REMARK    5  A    between atoms: O_5  and  C_11
REMARK    6  A    between atoms: C_12  and  C_14
REMARK    7  A    between atoms: C_13  and  C_15
REMARK                            x       y       z     vdW  Elec       q    Type
REMARK                         _______ _______ _______ _____ _____    ______ ____
ROOT
ATOM      1  O   UNL     1      21.037   4.710 186.591  0.00  0.00    +0.000 OA
ATOM      2  C   UNL     1      22.452   5.213 188.529  0.00  0.00    +0.000 C 
ATOM      3  C   UNL     1      23.580   5.635 187.577  0.00  0.00    +0.000 C 
ATOM      4  C   UNL     1      23.446   4.934 186.217  0.00  0.00    +0.000 C 
ATOM      5  C   UNL     1      21.095   5.424 187.833  0.00  0.00    +0.000 C 
ATOM      6  C   UNL     1      22.034   5.139 185.652  0.00  0.00    +0.000 C 
ATOM      7  C   UNL     1      19.932   4.935 188.689  0.00  0.00    +0.000 C 
ATOM      8  C   UNL     1      21.825   4.345 184.368  0.00  0.00    +0.000 C 
ENDROOT
BRANCH   3   9
ATOM      9  O   UNL     1      24.888   5.346 188.092  0.00  0.00    +0.000 OA
ATOM     10  H   UNL     1      25.139   4.434 187.835  0.00  0.00    +0.000 HD
ENDBRANCH   3   9
BRANCH   4  11
ATOM     11  O   UNL     1      24.435   5.463 185.329  0.00  0.00    +0.000 OA
ATOM     12  H   UNL     1      24.810   4.680 184.875  0.00  0.00    +0.000 HD
ENDBRANCH   4  11
BRANCH   2  13
ATOM     13  O   UNL     1      22.607   3.834 188.870  0.00  0.00    +0.000 OA
BRANCH  13  14
ATOM     14  S   UNL     1      23.037   3.455 190.385  0.00  0.00    +0.000 S 
ATOM     15  O   UNL     1      24.226   4.203 190.719  0.00  0.00    +0.000 OA
ATOM     16  O   UNL     1      21.856   3.455 191.222  0.00  0.00    +0.000 OA
BRANCH  14  17
ATOM     17  O   UNL     1      23.522   1.930 190.217  0.00  0.00    +0.000 OA
ATOM     18  H   UNL     1      23.169   1.431 190.983  0.00  0.00    +0.000 HD
ENDBRANCH  14  17
ENDBRANCH  13  14
ENDBRANCH   2  13
TORSDOF 5
ENDMDL
MODEL 3
REMARK VINA RESULT:      -5.4     27.822     29.186
REMARK  Name = 
REMARK  7 active torsions:
REMARK  status: ('A' for Active; 'I' for Inactive)
REMARK    1  A    between atoms: S_1  and  O_3
REMARK    2  A    between atoms: S_1  and  O_6
REMARK    3  A    between atoms: O_3  and  C_9
REMARK    4  A    between atoms: O_4  and  C_10
REMARK    5  A    between atoms: O_5  and  C_11
REMARK    6  A    between atoms: C_12  and  C_14
REMARK    7  A    between atoms: C_13  and  C_15
REMARK                            x       y       z     vdW  Elec       q    Type
REMARK                         _______ _______ _______ _____ _____    ______ ____
ROOT
ATOM      1  O   UNL     1      42.280  -7.960 166.447  0.00  0.00    +0.000 OA
ATOM      2  C   UNL     1      40.740  -6.911 164.853  0.00  0.00    +0.000 C 
ATOM      3  C   UNL     1      41.352  -5.543 165.186  0.00  0.00    +0.000 C 
ATOM      4  C   UNL     1      41.958  -5.538 166.597  0.00  0.00    +0.000 C 
ATOM      5  C   UNL     1      41.790  -8.010 165.101  0.00  0.00    +0.000 C 
ATOM      6  C   UNL     1      42.925  -6.718 166.762  0.00  0.00    +0.000 C 
ATOM      7  C   UNL     1      41.218  -9.406 164.880  0.00  0.00    +0.000 C 
ATOM      8  C   UNL     1      43.443  -6.821 168.192  0.00  0.00    +0.000 C 
ENDROOT
BRANCH   3   9
ATOM      9  O   UNL     1      40.401  -4.470 165.114  0.00  0.00    +0.000 OA
ATOM     10  H   UNL     1      39.750  -4.665 164.409  0.00  0.00    +0.000 HD
ENDBRANCH   3   9
BRANCH   4  11
ATOM     11  O   UNL     1      42.631  -4.291 166.802  0.00  0.00    +0.000 OA
ATOM     12  H   UNL     1      41.917  -3.651 166.999  0.00  0.00    +0.000 HD
ENDBRANCH   4  11
BRANCH   2  13
ATOM     13  O   UNL     1      39.601  -7.140 165.686  0.00  0.00    +0.000 OA
BRANCH  13  14
ATOM     14  S   UNL     1      38.125  -7.037 165.025  0.00  0.00    +0.000 S 
ATOM     15  O   UNL     1      38.177  -6.073 163.951  0.00  0.00    +0.000 OA
ATOM     16  O   UNL     1      37.597  -8.372 164.848  0.00  0.00    +0.000 OA
BRANCH  14  17
ATOM     17  O   UNL     1      37.288  -6.326 166.200  0.00  0.00    +0.000 OA
ATOM     18  H   UNL     1      37.238  -6.964 166.943  0.00  0.00    +0.000 HD
ENDBRANCH  14  17
ENDBRANCH  13  14
ENDBRANCH   2  13
TORSDOF 5
ENDMDL
MODEL 4
REMARK VINA RESULT:      -5.3      3.127      5.363
REMARK  Name = 
REMARK  7 active torsions:
REMARK  status: ('A' for Active; 'I' for Inactive)
REMARK    1  A    between atoms: S_1  and  O_3
REMARK    2  A    between atoms: S_1  and  O_6
REMARK    3  A    between atoms: O_3  and  C_9
REMARK    4  A    between atoms: O_4  and  C_10
REMARK    5  A    between atoms: O_5  and  C_11
REMARK    6  A    between atoms: C_12  and  C_14
REMARK    7  A    between atoms: C_13  and  C_15
REMARK                            x       y       z     vdW  Elec       q    Type
REMARK                         _______ _______ _______ _____ _____    ______ ____
ROOT
ATOM      1  O   UNL     1      20.060   2.293 190.404  0.00  0.00    +0.000 OA
ATOM      2  C   UNL     1      20.828   3.521 188.425  0.00  0.00    +0.000 C 
ATOM      3  C   UNL     1      19.407   3.447 187.848  0.00  0.00    +0.000 C 
ATOM      4  C   UNL     1      18.646   2.237 188.407  0.00  0.00    +0.000 C 
ATOM      5  C   UNL     1      20.753   3.467 189.962  0.00  0.00    +0.000 C 
ATOM      6  C   UNL     1      18.703   2.237 189.940  0.00  0.00    +0.000 C 
ATOM      7  C   UNL     1      22.138   3.441 190.600  0.00  0.00    +0.000 C 
ATOM      8  C   UNL     1      18.072   0.977 190.523  0.00  0.00    +0.000 C 
ENDROOT
BRANCH   3   9
ATOM      9  O   UNL     1      19.386   3.354 186.415  0.00  0.00    +0.000 OA
ATOM     10  H   UNL     1      19.472   2.414 186.154  0.00  0.00    +0.000 HD
ENDBRANCH   3   9
BRANCH   4  11
ATOM     11  O   UNL     1      17.292   2.293 187.945  0.00  0.00    +0.000 OA
ATOM     12  H   UNL     1      17.098   1.389 187.624  0.00  0.00    +0.000 HD
ENDBRANCH   4  11
BRANCH   2  13
ATOM     13  O   UNL     1      21.596   2.416 187.944  0.00  0.00    +0.000 OA
BRANCH  13  14
ATOM     14  S   UNL     1      22.842   2.714 186.952  0.00  0.00    +0.000 S 
ATOM     15  O   UNL     1      23.399   4.000 187.298  0.00  0.00    +0.000 OA
ATOM     16  O   UNL     1      23.651   1.519 186.843  0.00  0.00    +0.000 OA
BRANCH  14  17
ATOM     17  O   UNL     1      22.096   2.934 185.544  0.00  0.00    +0.000 OA
ATOM     18  H   UNL     1      21.601   2.110 185.350  0.00  0.00    +0.000 HD
ENDBRANCH  14  17
ENDBRANCH  13  14
ENDBRANCH   2  13
TORSDOF 5
ENDMDL
MODEL 5
REMARK VINA RESULT:      -5.0      2.498      3.866
REMARK  Name = 
REMARK  7 active torsions:
REMARK  status: ('A' for Active; 'I' for Inactive)
REMARK    1  A    between atoms: S_1  and  O_3
REMARK    2  A    between atoms: S_1  and  O_6
REMARK    3  A    between atoms: O_3  and  C_9
REMARK    4  A    between atoms: O_4  and  C_10
REMARK    5  A    between atoms: O_5  and  C_11
REMARK    6  A    between atoms: C_12  and  C_14
REMARK    7  A    between atoms: C_13  and  C_15
REMARK                            x       y       z     vdW  Elec       q    Type
REMARK                         _______ _______ _______ _____ _____    ______ ____
ROOT
ATOM      1  O   UNL     1      19.867   2.909 189.265  0.00  0.00    +0.000 OA
ATOM      2  C   UNL     1      22.220   2.940 188.575  0.00  0.00    +0.000 C 
ATOM      3  C   UNL     1      21.783   3.333 187.157  0.00  0.00    +0.000 C 
ATOM      4  C   UNL     1      20.355   2.852 186.866  0.00  0.00    +0.000 C 
ATOM      5  C   UNL     1      21.164   3.429 189.584  0.00  0.00    +0.000 C 
ATOM      6  C   UNL     1      19.401   3.323 187.973  0.00  0.00    +0.000 C 
ATOM      7  C   UNL     1      21.489   2.989 191.007  0.00  0.00    +0.000 C 
ATOM      8  C   UNL     1      18.001   2.751 187.785  0.00  0.00    +0.000 C 
ENDROOT
BRANCH   3   9
ATOM      9  O   UNL     1      22.641   2.800 186.137  0.00  0.00    +0.000 OA
ATOM     10  H   UNL     1      22.430   3.231 185.283  0.00  0.00    +0.000 HD
ENDBRANCH   3   9
BRANCH   4  11
ATOM     11  O   UNL     1      19.950   3.360 185.591  0.00  0.00    +0.000 OA
ATOM     12  H   UNL     1      20.773   3.390 185.060  0.00  0.00    +0.000 HD
ENDBRANCH   4  11
BRANCH   2  13
ATOM     13  O   UNL     1      22.344   1.519 188.660  0.00  0.00    +0.000 OA
BRANCH  13  14
ATOM     14  S   UNL     1      23.824   0.879 188.818  0.00  0.00    +0.000 S 
ATOM     15  O   UNL     1      24.749   1.683 188.055  0.00  0.00    +0.000 OA
ATOM     16  O   UNL     1      24.045   0.547 190.209  0.00  0.00    +0.000 OA
BRANCH  14  17
ATOM     17  O   UNL     1      23.674  -0.498 188.001  0.00  0.00    +0.000 OA
ATOM     18  H   UNL     1      23.809  -1.228 188.641  0.00  0.00    +0.000 HD
ENDBRANCH  14  17
ENDBRANCH  13  14
ENDBRANCH   2  13
TORSDOF 5
ENDMDL
MODEL 6
REMARK VINA RESULT:      -5.0     28.625     29.972
REMARK  Name = 
REMARK  7 active torsions:
REMARK  status: ('A' for Active; 'I' for Inactive)
REMARK    1  A    between atoms: S_1  and  O_3
REMARK    2  A    between atoms: S_1  and  O_6
REMARK    3  A    between atoms: O_3  and  C_9
REMARK    4  A    between atoms: O_4  and  C_10
REMARK    5  A    between atoms: O_5  and  C_11
REMARK    6  A    between atoms: C_12  and  C_14
REMARK    7  A    between atoms: C_13  and  C_15
REMARK                            x       y       z     vdW  Elec       q    Type
REMARK                         _______ _______ _______ _____ _____    ______ ____
ROOT
ATOM      1  O   UNL     1      43.569 -20.195 188.638  0.00  0.00    +0.000 OA
ATOM      2  C   UNL     1      42.019 -18.360 188.143  0.00  0.00    +0.000 C 
ATOM      3  C   UNL     1      42.684 -18.190 186.769  0.00  0.00    +0.000 C 
ATOM      4  C   UNL     1      44.136 -18.688 186.793  0.00  0.00    +0.000 C 
ATOM      5  C   UNL     1      42.186 -19.818 188.609  0.00  0.00    +0.000 C 
ATOM      6  C   UNL     1      44.196 -20.117 187.350  0.00  0.00    +0.000 C 
ATOM      7  C   UNL     1      41.630 -20.035 190.012  0.00  0.00    +0.000 C 
ATOM      8  C   UNL     1      45.636 -20.593 187.512  0.00  0.00    +0.000 C 
ENDROOT
BRANCH   3   9
ATOM      9  O   UNL     1      42.695 -16.828 186.315  0.00  0.00    +0.000 OA
ATOM     10  H   UNL     1      42.614 -16.815 185.339  0.00  0.00    +0.000 HD
ENDBRANCH   3   9
BRANCH   4  11
ATOM     11  O   UNL     1      44.661 -18.634 185.463  0.00  0.00    +0.000 OA
ATOM     12  H   UNL     1      44.285 -17.815 185.078  0.00  0.00    +0.000 HD
ENDBRANCH   4  11
BRANCH   2  13
ATOM     13  O   UNL     1      42.638 -17.481 189.084  0.00  0.00    +0.000 OA
BRANCH  13  14
ATOM     14  S   UNL     1      41.764 -16.261 189.694  0.00  0.00    +0.000 S 
ATOM     15  O   UNL     1      41.968 -16.227 191.123  0.00  0.00    +0.000 OA
ATOM     16  O   UNL     1      41.938 -15.095 188.855  0.00  0.00    +0.000 OA
BRANCH  14  17
ATOM     17  O   UNL     1      40.262 -16.797 189.486  0.00  0.00    +0.000 OA
ATOM     18  H   UNL     1      39.881 -16.300 188.732  0.00  0.00    +0.000 HD
ENDBRANCH  14  17
ENDBRANCH  13  14
ENDBRANCH   2  13
TORSDOF 5
ENDMDL
MODEL 7
REMARK VINA RESULT:      -5.0     28.956     30.251
REMARK  Name = 
REMARK  7 active torsions:
REMARK  status: ('A' for Active; 'I' for Inactive)
REMARK    1  A    between atoms: S_1  and  O_3
REMARK    2  A    between atoms: S_1  and  O_6
REMARK    3  A    between atoms: O_3  and  C_9
REMARK    4  A    between atoms: O_4  and  C_10
REMARK    5  A    between atoms: O_5  and  C_11
REMARK    6  A    between atoms: C_12  and  C_14
REMARK    7  A    between atoms: C_13  and  C_15
REMARK                            x       y       z     vdW  Elec       q    Type
REMARK                         _______ _______ _______ _____ _____    ______ ____
ROOT
ATOM      1  O   UNL     1      39.922  -6.634 164.149  0.00  0.00    +0.000 OA
ATOM      2  C   UNL     1      42.274  -6.997 164.738  0.00  0.00    +0.000 C 
ATOM      3  C   UNL     1      42.043  -8.513 164.663  0.00  0.00    +0.000 C 
ATOM      4  C   UNL     1      40.572  -8.861 164.932  0.00  0.00    +0.000 C 
ATOM      5  C   UNL     1      41.271  -6.285 163.812  0.00  0.00    +0.000 C 
ATOM      6  C   UNL     1      39.657  -8.038 164.015  0.00  0.00    +0.000 C 
ATOM      7  C   UNL     1      41.382  -4.768 163.909  0.00  0.00    +0.000 C 
ATOM      8  C   UNL     1      38.186  -8.260 164.347  0.00  0.00    +0.000 C 
ENDROOT
BRANCH   3   9
ATOM      9  O   UNL     1      42.845  -9.250 165.598  0.00  0.00    +0.000 OA
ATOM     10  H   UNL     1      42.788 -10.205 165.386  0.00  0.00    +0.000 HD
ENDBRANCH   3   9
BRANCH   4  11
ATOM     11  O   UNL     1      40.386 -10.263 164.716  0.00  0.00    +0.000 OA
ATOM     12  H   UNL     1      41.087 -10.694 165.248  0.00  0.00    +0.000 HD
ENDBRANCH   4  11
BRANCH   2  13
ATOM     13  O   UNL     1      42.086  -6.551 166.083  0.00  0.00    +0.000 OA
BRANCH  13  14
ATOM     14  S   UNL     1      43.386  -6.101 166.938  0.00  0.00    +0.000 S 
ATOM     15  O   UNL     1      43.071  -4.872 167.628  0.00  0.00    +0.000 OA
ATOM     16  O   UNL     1      43.925  -7.259 167.617  0.00  0.00    +0.000 OA
BRANCH  14  17
ATOM     17  O   UNL     1      44.418  -5.688 165.775  0.00  0.00    +0.000 OA
ATOM     18  H   UNL     1      45.174  -5.240 166.207  0.00  0.00    +0.000 HD
ENDBRANCH  14  17
ENDBRANCH  13  14
ENDBRANCH   2  13
TORSDOF 5
ENDMDL
MODEL 8
REMARK VINA RESULT:      -5.0      2.378      3.901
REMARK  Name = 
REMARK  7 active torsions:
REMARK  status: ('A' for Active; 'I' for Inactive)
REMARK    1  A    between atoms: S_1  and  O_3
REMARK    2  A    between atoms: S_1  and  O_6
REMARK    3  A    between atoms: O_3  and  C_9
REMARK    4  A    between atoms: O_4  and  C_10
REMARK    5  A    between atoms: O_5  and  C_11
REMARK    6  A    between atoms: C_12  and  C_14
REMARK    7  A    between atoms: C_13  and  C_15
REMARK                            x       y       z     vdW  Elec       q    Type
REMARK                         _______ _______ _______ _____ _____    ______ ____
ROOT
ATOM      1  O   UNL     1      24.035   3.381 187.790  0.00  0.00    +0.000 OA
ATOM      2  C   UNL     1      21.812   2.483 187.276  0.00  0.00    +0.000 C 
ATOM      3  C   UNL     1      21.654   3.545 186.178  0.00  0.00    +0.000 C 
ATOM      4  C   UNL     1      22.515   4.781 186.478  0.00  0.00    +0.000 C 
ATOM      5  C   UNL     1      23.309   2.185 187.481  0.00  0.00    +0.000 C 
ATOM      6  C   UNL     1      23.967   4.363 186.746  0.00  0.00    +0.000 C 
ATOM      7  C   UNL     1      23.544   1.205 188.625  0.00  0.00    +0.000 C 
ATOM      8  C   UNL     1      24.819   5.551 187.178  0.00  0.00    +0.000 C 
ENDROOT
BRANCH   3   9
ATOM      9  O   UNL     1      20.298   3.985 186.013  0.00  0.00    +0.000 OA
ATOM     10  H   UNL     1      20.284   4.962 185.941  0.00  0.00    +0.000 HD
ENDBRANCH   3   9
BRANCH   4  11
ATOM     11  O   UNL     1      22.436   5.675 185.363  0.00  0.00    +0.000 OA
ATOM     12  H   UNL     1      22.978   5.253 184.664  0.00  0.00    +0.000 HD
ENDBRANCH   4  11
BRANCH   2  13
ATOM     13  O   UNL     1      21.249   2.970 188.495  0.00  0.00    +0.000 OA
BRANCH  13  14
ATOM     14  S   UNL     1      19.890   2.282 189.049  0.00  0.00    +0.000 S 
ATOM     15  O   UNL     1      18.923   2.264 187.978  0.00  0.00    +0.000 OA
ATOM     16  O   UNL     1      20.239   1.098 189.804  0.00  0.00    +0.000 OA
BRANCH  14  17
ATOM     17  O   UNL     1      19.361   3.391 190.088  0.00  0.00    +0.000 OA
ATOM     18  H   UNL     1      18.829   4.034 189.575  0.00  0.00    +0.000 HD
ENDBRANCH  14  17
ENDBRANCH  13  14
ENDBRANCH   2  13
TORSDOF 5
ENDMDL
MODEL 9
REMARK VINA RESULT:      -4.9     29.148     30.519
REMARK  Name = 
REMARK  7 active torsions:
REMARK  status: ('A' for Active; 'I' for Inactive)
REMARK    1  A    between atoms: S_1  and  O_3
REMARK    2  A    between atoms: S_1  and  O_6
REMARK    3  A    between atoms: O_3  and  C_9
REMARK    4  A    between atoms: O_4  and  C_10
REMARK    5  A    between atoms: O_5  and  C_11
REMARK    6  A    between atoms: C_12  and  C_14
REMARK    7  A    between atoms: C_13  and  C_15
REMARK                            x       y       z     vdW  Elec       q    Type
REMARK                         _______ _______ _______ _____ _____    ______ ____
ROOT
ATOM      1  O   UNL     1      43.883 -19.533 186.761  0.00  0.00    +0.000 OA
ATOM      2  C   UNL     1      43.842 -17.324 187.825  0.00  0.00    +0.000 C 
ATOM      3  C   UNL     1      45.213 -17.617 188.450  0.00  0.00    +0.000 C 
ATOM      4  C   UNL     1      45.437 -19.127 188.610  0.00  0.00    +0.000 C 
ATOM      5  C   UNL     1      43.696 -18.132 186.522  0.00  0.00    +0.000 C 
ATOM      6  C   UNL     1      45.186 -19.844 187.275  0.00  0.00    +0.000 C 
ATOM      7  C   UNL     1      42.316 -17.962 185.897  0.00  0.00    +0.000 C 
ATOM      8  C   UNL     1      45.269 -21.358 187.430  0.00  0.00    +0.000 C 
ENDROOT
BRANCH   3   9
ATOM      9  O   UNL     1      45.384 -17.010 189.740  0.00  0.00    +0.000 OA
ATOM     10  H   UNL     1      44.655 -16.374 189.894  0.00  0.00    +0.000 HD
ENDBRANCH   3   9
BRANCH   4  11
ATOM     11  O   UNL     1      46.775 -19.347 189.066  0.00  0.00    +0.000 OA
ATOM     12  H   UNL     1      46.942 -20.299 188.905  0.00  0.00    +0.000 HD
ENDBRANCH   4  11
BRANCH   2  13
ATOM     13  O   UNL     1      42.810 -17.700 188.740  0.00  0.00    +0.000 OA
BRANCH  13  14
ATOM     14  S   UNL     1      42.001 -16.531 189.516  0.00  0.00    +0.000 S 
ATOM     15  O   UNL     1      42.391 -16.556 190.906  0.00  0.00    +0.000 OA
ATOM     16  O   UNL     1      42.040 -15.324 188.718  0.00  0.00    +0.000 OA
BRANCH  14  17
ATOM     17  O   UNL     1      40.495 -17.096 189.482  0.00  0.00    +0.000 OA
ATOM     18  H   UNL     1      40.332 -17.531 190.345  0.00  0.00    +0.000 HD
ENDBRANCH  14  17
ENDBRANCH  13  14
ENDBRANCH   2  13
TORSDOF 5
ENDMDL
