MODEL 1
REMARK VINA RESULT:      -8.3      0.000      0.000
REMARK  Name = Fulvestrant.pdbqt.pdb
REMARK  12 active torsions:
REMARK  status: ('A' for Active; 'I' for Inactive)
REMARK    1  A    between atoms: C_6  and  O_40
REMARK    2  A    between atoms: C_8  and  C_19
REMARK    3  A    between atoms: C_18  and  O_42
REMARK    4  A    between atoms: C_20  and  C_21
REMARK    5  A    between atoms: C_22  and  C_23
REMARK    6  A    between atoms: C_23  and  C_24
REMARK    7  A    between atoms: C_25  and  C_26
REMARK    8  A    between atoms: C_27  and  S_28
REMARK    9  A    between atoms: S_28  and  C_30
REMARK   10  A    between atoms: C_30  and  C_31
REMARK   11  A    between atoms: C_32  and  C_33
REMARK   12  A    between atoms: C_33  and  C_36
REMARK                            x       y       z     vdW  Elec       q    Type
REMARK                         _______ _______ _______ _____ _____    ______ ____
ROOT
ATOM      1  C   UNL     1      21.210   0.717 191.905  0.00  0.00    +0.000 C 
ATOM      2  C   UNL     1      19.810   0.131 192.426  0.00  0.00    +0.000 C 
ATOM      3  C   UNL     1      21.428   1.244 190.519  0.00  0.00    +0.000 A 
ATOM      4  C   UNL     1      20.242   1.643 189.615  0.00  0.00    +0.000 A 
ATOM      5  C   UNL     1      18.795   0.668 191.526  0.00  0.00    +0.000 C 
ATOM      6  C   UNL     1      19.715   0.689 193.863  0.00  0.00    +0.000 C 
ATOM      7  C   UNL     1      21.814   1.386 193.019  0.00  0.00    +0.000 C 
ATOM      8  C   UNL     1      22.790   1.425 189.951  0.00  0.00    +0.000 A 
ATOM      9  C   UNL     1      18.988   1.366 190.208  0.00  0.00    +0.000 C 
ATOM     10  C   UNL     1      20.897   1.395 194.214  0.00  0.00    +0.000 C 
ATOM     11  C   UNL     1      19.895  -1.417 192.443  0.00  0.00    +0.000 C 
ATOM     12  C   UNL     1      20.405   2.210 188.247  0.00  0.00    +0.000 A 
ATOM     13  C   UNL     1      22.730   1.981 188.650  0.00  0.00    +0.000 A 
ATOM     14  C   UNL     1      21.717   2.387 187.745  0.00  0.00    +0.000 A 
ATOM     15  C   UNL     1      19.327   2.569 187.442  0.00  0.00    +0.000 A 
ATOM     16  C   UNL     1      21.961   2.904 186.483  0.00  0.00    +0.000 A 
ATOM     17  C   UNL     1      19.557   3.092 186.168  0.00  0.00    +0.000 A 
ATOM     18  C   UNL     1      20.864   3.253 185.703  0.00  0.00    +0.000 A 
ENDROOT
BRANCH   8  19
ATOM     19  C   UNL     1      23.967   0.930 190.562  0.00  0.00    +0.000 C 
ATOM     20  C   UNL     1      25.251   0.412 191.217  0.00  0.00    +0.000 C 
BRANCH  20  21
ATOM     21  C   UNL     1      26.548  -0.082 191.863  0.00  0.00    +0.000 C 
ATOM     22  C   UNL     1      27.841  -0.605 192.497  0.00  0.00    +0.000 C 
BRANCH  22  23
ATOM     23  C   UNL     1      29.126  -1.159 193.119  0.00  0.00    +0.000 C 
BRANCH  23  24
ATOM     24  C   UNL     1      30.425  -1.720 193.709  0.00  0.00    +0.000 C 
ATOM     25  C   UNL     1      31.721  -2.307 194.275  0.00  0.00    +0.000 C 
BRANCH  25  26
ATOM     26  C   UNL     1      33.014  -2.923 194.819  0.00  0.00    +0.000 C 
ATOM     27  C   UNL     1      34.287  -3.562 195.383  0.00  0.00    +0.000 C 
BRANCH  27  28
ATOM     28  S   UNL     1      35.730  -4.315 196.054  0.00  0.00    +0.000 S 
ATOM     29  O   UNL     1      35.162  -4.299 197.443  0.00  0.00    +0.000 OA
BRANCH  28  30
ATOM     30  C   UNL     1      35.148  -5.952 195.767  0.00  0.00    +0.000 C 
BRANCH  30  31
ATOM     31  C   UNL     1      34.663  -7.382 195.507  0.00  0.00    +0.000 C 
ATOM     32  C   UNL     1      34.195  -8.820 195.255  0.00  0.00    +0.000 C 
BRANCH  32  33
ATOM     33  C   UNL     1      33.756 -10.197 195.016  0.00  0.00    +0.000 C 
ATOM     34  F   UNL     1      33.344 -10.719 196.206  0.00  0.00    +0.000 F 
ATOM     35  F   UNL     1      34.848 -10.924 194.648  0.00  0.00    +0.000 F 
BRANCH  33  36
ATOM     36  C   UNL     1      32.650 -10.307 193.962  0.00  0.00    +0.000 C 
ATOM     37  F   UNL     1      31.752 -11.279 194.266  0.00  0.00    +0.000 F 
ATOM     38  F   UNL     1      33.142 -10.595 192.732  0.00  0.00    +0.000 F 
ATOM     39  F   UNL     1      31.950  -9.149 193.844  0.00  0.00    +0.000 F 
ENDBRANCH  33  36
ENDBRANCH  32  33
ENDBRANCH  30  31
ENDBRANCH  28  30
ENDBRANCH  27  28
ENDBRANCH  25  26
ENDBRANCH  23  24
ENDBRANCH  22  23
ENDBRANCH  20  21
ENDBRANCH   8  19
BRANCH   6  40
ATOM     40  O   UNL     1      18.513   0.903 194.503  0.00  0.00    +0.000 OA
ATOM     41  H   UNL     1      18.565   1.643 195.133  0.00  0.00    +0.000 HD
ENDBRANCH   6  40
BRANCH  18  42
ATOM     42  O   UNL     1      21.040   3.768 184.450  0.00  0.00    +0.000 OA
ATOM     43  H   UNL     1      21.824   3.350 184.053  0.00  0.00    +0.000 HD
ENDBRANCH  18  42
TORSDOF 12
ENDMDL
MODEL 2
REMARK VINA RESULT:      -6.9      3.708      4.334
REMARK  Name = Fulvestrant.pdbqt.pdb
REMARK  12 active torsions:
REMARK  status: ('A' for Active; 'I' for Inactive)
REMARK    1  A    between atoms: C_6  and  O_40
REMARK    2  A    between atoms: C_8  and  C_19
REMARK    3  A    between atoms: C_18  and  O_42
REMARK    4  A    between atoms: C_20  and  C_21
REMARK    5  A    between atoms: C_22  and  C_23
REMARK    6  A    between atoms: C_23  and  C_24
REMARK    7  A    between atoms: C_25  and  C_26
REMARK    8  A    between atoms: C_27  and  S_28
REMARK    9  A    between atoms: S_28  and  C_30
REMARK   10  A    between atoms: C_30  and  C_31
REMARK   11  A    between atoms: C_32  and  C_33
REMARK   12  A    between atoms: C_33  and  C_36
REMARK                            x       y       z     vdW  Elec       q    Type
REMARK                         _______ _______ _______ _____ _____    ______ ____
ROOT
ATOM      1  C   UNL     1      21.257   0.971 193.209  0.00  0.00    +0.000 C 
ATOM      2  C   UNL     1      19.880   0.169 193.401  0.00  0.00    +0.000 C 
ATOM      3  C   UNL     1      21.538   1.876 192.048  0.00  0.00    +0.000 A 
ATOM      4  C   UNL     1      20.400   2.429 191.166  0.00  0.00    +0.000 A 
ATOM      5  C   UNL     1      18.898   0.866 192.578  0.00  0.00    +0.000 C 
ATOM      6  C   UNL     1      19.614   0.299 194.917  0.00  0.00    +0.000 C 
ATOM      7  C   UNL     1      21.700   1.344 194.520  0.00  0.00    +0.000 C 
ATOM      8  C   UNL     1      22.920   2.300 191.698  0.00  0.00    +0.000 A 
ATOM      9  C   UNL     1      19.132   1.913 191.525  0.00  0.00    +0.000 C 
ATOM     10  C   UNL     1      20.691   0.958 195.569  0.00  0.00    +0.000 C 
ATOM     11  C   UNL     1      20.110  -1.312 193.009  0.00  0.00    +0.000 C 
ATOM     12  C   UNL     1      20.622   3.363 190.026  0.00  0.00    +0.000 A 
ATOM     13  C   UNL     1      22.916   3.190 190.597  0.00  0.00    +0.000 A 
ATOM     14  C   UNL     1      21.948   3.761 189.733  0.00  0.00    +0.000 A 
ATOM     15  C   UNL     1      19.585   3.857 189.238  0.00  0.00    +0.000 A 
ATOM     16  C   UNL     1      22.246   4.624 188.690  0.00  0.00    +0.000 A 
ATOM     17  C   UNL     1      19.870   4.728 188.185  0.00  0.00    +0.000 A 
ATOM     18  C   UNL     1      21.189   5.101 187.922  0.00  0.00    +0.000 A 
ENDROOT
BRANCH   8  19
ATOM     19  C   UNL     1      24.084   1.735 192.273  0.00  0.00    +0.000 C 
ATOM     20  C   UNL     1      25.355   1.139 192.884  0.00  0.00    +0.000 C 
BRANCH  20  21
ATOM     21  C   UNL     1      26.642   0.561 193.479  0.00  0.00    +0.000 C 
ATOM     22  C   UNL     1      27.916  -0.046 194.076  0.00  0.00    +0.000 C 
BRANCH  22  23
ATOM     23  C   UNL     1      29.172  -0.683 194.677  0.00  0.00    +0.000 C 
BRANCH  23  24
ATOM     24  C   UNL     1      30.436  -1.289 195.296  0.00  0.00    +0.000 C 
ATOM     25  C   UNL     1      31.717  -1.888 195.885  0.00  0.00    +0.000 C 
BRANCH  25  26
ATOM     26  C   UNL     1      33.015  -2.483 196.442  0.00  0.00    +0.000 C 
ATOM     27  C   UNL     1      34.295  -3.112 197.001  0.00  0.00    +0.000 C 
BRANCH  27  28
ATOM     28  S   UNL     1      35.748  -3.864 197.648  0.00  0.00    +0.000 S 
ATOM     29  O   UNL     1      35.147  -5.235 197.561  0.00  0.00    +0.000 OA
BRANCH  28  30
ATOM     30  C   UNL     1      36.506  -4.027 196.067  0.00  0.00    +0.000 C 
BRANCH  30  31
ATOM     31  C   UNL     1      37.150  -4.187 194.686  0.00  0.00    +0.000 C 
ATOM     32  C   UNL     1      37.800  -4.329 193.305  0.00  0.00    +0.000 C 
BRANCH  32  33
ATOM     33  C   UNL     1      38.424  -4.455 191.985  0.00  0.00    +0.000 C 
ATOM     34  F   UNL     1      38.293  -3.259 191.343  0.00  0.00    +0.000 F 
ATOM     35  F   UNL     1      37.691  -5.348 191.262  0.00  0.00    +0.000 F 
BRANCH  33  36
ATOM     36  C   UNL     1      39.894  -4.882 192.047  0.00  0.00    +0.000 C 
ATOM     37  F   UNL     1      40.413  -5.100 190.812  0.00  0.00    +0.000 F 
ATOM     38  F   UNL     1      40.065  -6.026 192.755  0.00  0.00    +0.000 F 
ATOM     39  F   UNL     1      40.669  -3.936 192.637  0.00  0.00    +0.000 F 
ENDBRANCH  33  36
ENDBRANCH  32  33
ENDBRANCH  30  31
ENDBRANCH  28  30
ENDBRANCH  27  28
ENDBRANCH  25  26
ENDBRANCH  23  24
ENDBRANCH  22  23
ENDBRANCH  20  21
ENDBRANCH   8  19
BRANCH   6  40
ATOM     40  O   UNL     1      18.348   0.244 195.460  0.00  0.00    +0.000 OA
ATOM     41  H   UNL     1      17.730  -0.245 194.888  0.00  0.00    +0.000 HD
ENDBRANCH   6  40
BRANCH  18  42
ATOM     42  O   UNL     1      21.419   5.954 186.880  0.00  0.00    +0.000 OA
ATOM     43  H   UNL     1      22.355   6.222 186.903  0.00  0.00    +0.000 HD
ENDBRANCH  18  42
TORSDOF 12
ENDMDL
MODEL 3
REMARK VINA RESULT:      -6.8     11.615     16.397
REMARK  Name = Fulvestrant.pdbqt.pdb
REMARK  12 active torsions:
REMARK  status: ('A' for Active; 'I' for Inactive)
REMARK    1  A    between atoms: C_6  and  O_40
REMARK    2  A    between atoms: C_8  and  C_19
REMARK    3  A    between atoms: C_18  and  O_42
REMARK    4  A    between atoms: C_20  and  C_21
REMARK    5  A    between atoms: C_22  and  C_23
REMARK    6  A    between atoms: C_23  and  C_24
REMARK    7  A    between atoms: C_25  and  C_26
REMARK    8  A    between atoms: C_27  and  S_28
REMARK    9  A    between atoms: S_28  and  C_30
REMARK   10  A    between atoms: C_30  and  C_31
REMARK   11  A    between atoms: C_32  and  C_33
REMARK   12  A    between atoms: C_33  and  C_36
REMARK                            x       y       z     vdW  Elec       q    Type
REMARK                         _______ _______ _______ _____ _____    ______ ____
ROOT
ATOM      1  C   UNL     1      24.865   1.942 192.588  0.00  0.00    +0.000 C 
ATOM      2  C   UNL     1      26.381   2.240 193.019  0.00  0.00    +0.000 C 
ATOM      3  C   UNL     1      24.183   2.608 191.431  0.00  0.00    +0.000 A 
ATOM      4  C   UNL     1      24.988   3.317 190.323  0.00  0.00    +0.000 A 
ATOM      5  C   UNL     1      27.021   2.821 191.844  0.00  0.00    +0.000 C 
ATOM      6  C   UNL     1      26.918   0.837 193.382  0.00  0.00    +0.000 C 
ATOM      7  C   UNL     1      24.632   0.551 192.841  0.00  0.00    +0.000 C 
ATOM      8  C   UNL     1      22.703   2.604 191.282  0.00  0.00    +0.000 A 
ATOM      9  C   UNL     1      26.378   3.336 190.587  0.00  0.00    +0.000 C 
ATOM     10  C   UNL     1      25.889  -0.139 193.304  0.00  0.00    +0.000 C 
ATOM     11  C   UNL     1      26.371   3.162 194.265  0.00  0.00    +0.000 C 
ATOM     12  C   UNL     1      24.362   3.958 189.132  0.00  0.00    +0.000 A 
ATOM     13  C   UNL     1      22.310   3.252 190.086  0.00  0.00    +0.000 A 
ATOM     14  C   UNL     1      22.952   3.919 189.012  0.00  0.00    +0.000 A 
ATOM     15  C   UNL     1      25.101   4.593 188.137  0.00  0.00    +0.000 A 
ATOM     16  C   UNL     1      22.286   4.491 187.940  0.00  0.00    +0.000 A 
ATOM     17  C   UNL     1      24.444   5.173 187.050  0.00  0.00    +0.000 A 
ATOM     18  C   UNL     1      23.052   5.118 186.963  0.00  0.00    +0.000 A 
ENDROOT
BRANCH   8  19
ATOM     19  C   UNL     1      21.813   2.176 192.296  0.00  0.00    +0.000 C 
ATOM     20  C   UNL     1      20.858   1.729 193.407  0.00  0.00    +0.000 C 
BRANCH  20  21
ATOM     21  C   UNL     1      19.915   1.301 194.535  0.00  0.00    +0.000 C 
ATOM     22  C   UNL     1      18.977   0.902 195.678  0.00  0.00    +0.000 C 
BRANCH  22  23
ATOM     23  C   UNL     1      18.046   0.532 196.837  0.00  0.00    +0.000 C 
BRANCH  23  24
ATOM     24  C   UNL     1      17.088   0.170 197.977  0.00  0.00    +0.000 C 
ATOM     25  C   UNL     1      16.103  -0.193 199.092  0.00  0.00    +0.000 C 
BRANCH  25  26
ATOM     26  C   UNL     1      15.091  -0.556 200.184  0.00  0.00    +0.000 C 
ATOM     27  C   UNL     1      14.060  -0.938 201.251  0.00  0.00    +0.000 C 
BRANCH  27  28
ATOM     28  S   UNL     1      12.856  -1.392 202.452  0.00  0.00    +0.000 S 
ATOM     29  O   UNL     1      13.370  -0.380 203.433  0.00  0.00    +0.000 OA
BRANCH  28  30
ATOM     30  C   UNL     1      11.648  -0.271 201.831  0.00  0.00    +0.000 C 
BRANCH  30  31
ATOM     31  C   UNL     1      10.614   0.717 201.280  0.00  0.00    +0.000 C 
ATOM     32  C   UNL     1       9.592   1.709 200.714  0.00  0.00    +0.000 C 
BRANCH  32  33
ATOM     33  C   UNL     1       8.621   2.660 200.166  0.00  0.00    +0.000 C 
ATOM     34  F   UNL     1       9.057   3.919 200.456  0.00  0.00    +0.000 F 
ATOM     35  F   UNL     1       7.453   2.503 200.850  0.00  0.00    +0.000 F 
BRANCH  33  36
ATOM     36  C   UNL     1       8.395   2.496 198.660  0.00  0.00    +0.000 C 
ATOM     37  F   UNL     1       8.912   3.533 197.951  0.00  0.00    +0.000 F 
ATOM     38  F   UNL     1       7.078   2.420 198.345  0.00  0.00    +0.000 F 
ATOM     39  F   UNL     1       8.978   1.366 198.183  0.00  0.00    +0.000 F 
ENDBRANCH  33  36
ENDBRANCH  32  33
ENDBRANCH  30  31
ENDBRANCH  28  30
ENDBRANCH  27  28
ENDBRANCH  25  26
ENDBRANCH  23  24
ENDBRANCH  22  23
ENDBRANCH  20  21
ENDBRANCH   8  19
BRANCH   6  40
ATOM     40  O   UNL     1      28.254   0.505 193.299  0.00  0.00    +0.000 OA
ATOM     41  H   UNL     1      28.567   0.062 194.107  0.00  0.00    +0.000 HD
ENDBRANCH   6  40
BRANCH  18  42
ATOM     42  O   UNL     1      22.453   5.701 185.882  0.00  0.00    +0.000 OA
ATOM     43  H   UNL     1      23.140   6.139 185.349  0.00  0.00    +0.000 HD
ENDBRANCH  18  42
TORSDOF 12
ENDMDL
MODEL 4
REMARK VINA RESULT:      -6.8     10.202     12.550
REMARK  Name = Fulvestrant.pdbqt.pdb
REMARK  12 active torsions:
REMARK  status: ('A' for Active; 'I' for Inactive)
REMARK    1  A    between atoms: C_6  and  O_40
REMARK    2  A    between atoms: C_8  and  C_19
REMARK    3  A    between atoms: C_18  and  O_42
REMARK    4  A    between atoms: C_20  and  C_21
REMARK    5  A    between atoms: C_22  and  C_23
REMARK    6  A    between atoms: C_23  and  C_24
REMARK    7  A    between atoms: C_25  and  C_26
REMARK    8  A    between atoms: C_27  and  S_28
REMARK    9  A    between atoms: S_28  and  C_30
REMARK   10  A    between atoms: C_30  and  C_31
REMARK   11  A    between atoms: C_32  and  C_33
REMARK   12  A    between atoms: C_33  and  C_36
REMARK                            x       y       z     vdW  Elec       q    Type
REMARK                         _______ _______ _______ _____ _____    ______ ____
ROOT
ATOM      1  C   UNL     1      22.286   3.435 188.912  0.00  0.00    +0.000 C 
ATOM      2  C   UNL     1      21.343   4.327 187.969  0.00  0.00    +0.000 C 
ATOM      3  C   UNL     1      21.813   2.762 190.165  0.00  0.00    +0.000 A 
ATOM      4  C   UNL     1      20.312   2.529 190.434  0.00  0.00    +0.000 A 
ATOM      5  C   UNL     1      19.976   3.925 188.282  0.00  0.00    +0.000 C 
ATOM      6  C   UNL     1      21.793   3.920 186.548  0.00  0.00    +0.000 C 
ATOM      7  C   UNL     1      23.205   2.756 188.048  0.00  0.00    +0.000 C 
ATOM      8  C   UNL     1      22.760   2.269 191.199  0.00  0.00    +0.000 A 
ATOM      9  C   UNL     1      19.485   3.096 189.436  0.00  0.00    +0.000 C 
ATOM     10  C   UNL     1      22.897   3.027 186.599  0.00  0.00    +0.000 C 
ATOM     11  C   UNL     1      21.648   5.823 188.233  0.00  0.00    +0.000 C 
ATOM     12  C   UNL     1      19.791   1.829 191.642  0.00  0.00    +0.000 A 
ATOM     13  C   UNL     1      22.072   1.629 192.258  0.00  0.00    +0.000 A 
ATOM     14  C   UNL     1      20.722   1.357 192.598  0.00  0.00    +0.000 A 
ATOM     15  C   UNL     1      18.433   1.623 191.873  0.00  0.00    +0.000 A 
ATOM     16  C   UNL     1      20.327   0.698 193.751  0.00  0.00    +0.000 A 
ATOM     17  C   UNL     1      18.020   0.960 193.030  0.00  0.00    +0.000 A 
ATOM     18  C   UNL     1      18.964   0.507 193.953  0.00  0.00    +0.000 A 
ENDROOT
BRANCH   8  19
ATOM     19  C   UNL     1      24.143   2.573 191.206  0.00  0.00    +0.000 C 
ATOM     20  C   UNL     1      25.635   2.921 191.223  0.00  0.00    +0.000 C 
BRANCH  20  21
ATOM     21  C   UNL     1      27.119   3.294 191.253  0.00  0.00    +0.000 C 
ATOM     22  C   UNL     1      28.597   3.697 191.269  0.00  0.00    +0.000 C 
BRANCH  22  23
ATOM     23  C   UNL     1      30.067   4.128 191.270  0.00  0.00    +0.000 C 
BRANCH  23  24
ATOM     24  C   UNL     1      31.528   4.589 191.252  0.00  0.00    +0.000 C 
ATOM     25  C   UNL     1      32.978   5.083 191.231  0.00  0.00    +0.000 C 
BRANCH  25  26
ATOM     26  C   UNL     1      34.416   5.610 191.203  0.00  0.00    +0.000 C 
ATOM     27  C   UNL     1      35.849   6.149 191.140  0.00  0.00    +0.000 C 
BRANCH  27  28
ATOM     28  S   UNL     1      37.490   6.776 191.035  0.00  0.00    +0.000 S 
ATOM     29  O   UNL     1      37.419   6.872 189.539  0.00  0.00    +0.000 OA
BRANCH  28  30
ATOM     30  C   UNL     1      36.984   8.451 191.229  0.00  0.00    +0.000 C 
BRANCH  30  31
ATOM     31  C   UNL     1      36.543   9.906 191.423  0.00  0.00    +0.000 C 
ATOM     32  C   UNL     1      36.089  11.356 191.630  0.00  0.00    +0.000 C 
BRANCH  32  33
ATOM     33  C   UNL     1      35.649  12.738 191.834  0.00  0.00    +0.000 C 
ATOM     34  F   UNL     1      35.463  13.305 190.608  0.00  0.00    +0.000 F 
ATOM     35  F   UNL     1      36.677  13.422 192.410  0.00  0.00    +0.000 F 
BRANCH  33  36
ATOM     36  C   UNL     1      34.378  12.851 192.683  0.00  0.00    +0.000 C 
ATOM     37  F   UNL     1      34.322  11.892 193.643  0.00  0.00    +0.000 F 
ATOM     38  F   UNL     1      33.252  12.729 191.938  0.00  0.00    +0.000 F 
ATOM     39  F   UNL     1      34.301  14.048 193.319  0.00  0.00    +0.000 F 
ENDBRANCH  33  36
ENDBRANCH  32  33
ENDBRANCH  30  31
ENDBRANCH  28  30
ENDBRANCH  27  28
ENDBRANCH  25  26
ENDBRANCH  23  24
ENDBRANCH  22  23
ENDBRANCH  20  21
ENDBRANCH   8  19
BRANCH   6  40
ATOM     40  O   UNL     1      20.962   4.000 185.450  0.00  0.00    +0.000 OA
ATOM     41  H   UNL     1      21.461   4.169 184.631  0.00  0.00    +0.000 HD
ENDBRANCH   6  40
BRANCH  18  42
ATOM     42  O   UNL     1      18.512  -0.135 195.071  0.00  0.00    +0.000 OA
ATOM     43  H   UNL     1      18.512   0.498 195.810  0.00  0.00    +0.000 HD
ENDBRANCH  18  42
TORSDOF 12
ENDMDL
MODEL 5
REMARK VINA RESULT:      -6.8     20.359     28.949
REMARK  Name = Fulvestrant.pdbqt.pdb
REMARK  12 active torsions:
REMARK  status: ('A' for Active; 'I' for Inactive)
REMARK    1  A    between atoms: C_6  and  O_40
REMARK    2  A    between atoms: C_8  and  C_19
REMARK    3  A    between atoms: C_18  and  O_42
REMARK    4  A    between atoms: C_20  and  C_21
REMARK    5  A    between atoms: C_22  and  C_23
REMARK    6  A    between atoms: C_23  and  C_24
REMARK    7  A    between atoms: C_25  and  C_26
REMARK    8  A    between atoms: C_27  and  S_28
REMARK    9  A    between atoms: S_28  and  C_30
REMARK   10  A    between atoms: C_30  and  C_31
REMARK   11  A    between atoms: C_32  and  C_33
REMARK   12  A    between atoms: C_33  and  C_36
REMARK                            x       y       z     vdW  Elec       q    Type
REMARK                         _______ _______ _______ _____ _____    ______ ____
ROOT
ATOM      1  C   UNL     1      52.627 -11.409 188.272  0.00  0.00    +0.000 C 
ATOM      2  C   UNL     1      52.760  -9.811 188.339  0.00  0.00    +0.000 C 
ATOM      3  C   UNL     1      53.595 -12.295 187.550  0.00  0.00    +0.000 A 
ATOM      4  C   UNL     1      55.004 -11.799 187.163  0.00  0.00    +0.000 A 
ATOM      5  C   UNL     1      54.157  -9.517 188.039  0.00  0.00    +0.000 C 
ATOM      6  C   UNL     1      52.365  -9.493 189.798  0.00  0.00    +0.000 C 
ATOM      7  C   UNL     1      52.087 -11.829 189.531  0.00  0.00    +0.000 C 
ATOM      8  C   UNL     1      53.258 -13.697 187.185  0.00  0.00    +0.000 A 
ATOM      9  C   UNL     1      55.208 -10.435 187.480  0.00  0.00    +0.000 C 
ATOM     10  C   UNL     1      51.946 -10.667 190.480  0.00  0.00    +0.000 C 
ATOM     11  C   UNL     1      51.746  -9.186 187.348  0.00  0.00    +0.000 C 
ATOM     12  C   UNL     1      56.018 -12.652 186.481  0.00  0.00    +0.000 A 
ATOM     13  C   UNL     1      54.353 -14.338 186.557  0.00  0.00    +0.000 A 
ATOM     14  C   UNL     1      55.671 -13.988 186.167  0.00  0.00    +0.000 A 
ATOM     15  C   UNL     1      57.288 -12.193 186.140  0.00  0.00    +0.000 A 
ATOM     16  C   UNL     1      56.550 -14.850 185.532  0.00  0.00    +0.000 A 
ATOM     17  C   UNL     1      58.186 -13.050 185.500  0.00  0.00    +0.000 A 
ATOM     18  C   UNL     1      57.811 -14.362 185.203  0.00  0.00    +0.000 A 
ENDROOT
BRANCH   8  19
ATOM     19  C   UNL     1      51.956 -14.243 187.287  0.00  0.00    +0.000 C 
ATOM     20  C   UNL     1      50.552 -14.841 187.417  0.00  0.00    +0.000 C 
BRANCH  20  21
ATOM     21  C   UNL     1      49.156 -15.450 187.572  0.00  0.00    +0.000 C 
ATOM     22  C   UNL     1      47.760 -16.070 187.698  0.00  0.00    +0.000 C 
BRANCH  22  23
ATOM     23  C   UNL     1      46.367 -16.698 187.790  0.00  0.00    +0.000 C 
BRANCH  23  24
ATOM     24  C   UNL     1      44.959 -17.296 187.895  0.00  0.00    +0.000 C 
ATOM     25  C   UNL     1      43.554 -17.887 188.035  0.00  0.00    +0.000 C 
BRANCH  25  26
ATOM     26  C   UNL     1      42.151 -18.477 188.210  0.00  0.00    +0.000 C 
ATOM     27  C   UNL     1      40.749 -19.059 188.422  0.00  0.00    +0.000 C 
BRANCH  27  28
ATOM     28  S   UNL     1      39.143 -19.723 188.700  0.00  0.00    +0.000 S 
ATOM     29  O   UNL     1      39.672 -20.760 189.646  0.00  0.00    +0.000 OA
BRANCH  28  30
ATOM     30  C   UNL     1      38.787 -18.611 190.019  0.00  0.00    +0.000 C 
BRANCH  30  31
ATOM     31  C   UNL     1      38.495 -17.653 191.179  0.00  0.00    +0.000 C 
ATOM     32  C   UNL     1      38.198 -16.682 192.327  0.00  0.00    +0.000 C 
BRANCH  32  33
ATOM     33  C   UNL     1      37.912 -15.747 193.418  0.00  0.00    +0.000 C 
ATOM     34  F   UNL     1      36.563 -15.726 193.610  0.00  0.00    +0.000 F 
ATOM     35  F   UNL     1      38.248 -14.497 192.993  0.00  0.00    +0.000 F 
BRANCH  33  36
ATOM     36  C   UNL     1      38.642 -16.093 194.720  0.00  0.00    +0.000 C 
ATOM     37  F   UNL     1      37.908 -15.770 195.816  0.00  0.00    +0.000 F 
ATOM     38  F   UNL     1      39.826 -15.441 194.832  0.00  0.00    +0.000 F 
ATOM     39  F   UNL     1      38.914 -17.420 194.808  0.00  0.00    +0.000 F 
ENDBRANCH  33  36
ENDBRANCH  32  33
ENDBRANCH  30  31
ENDBRANCH  28  30
ENDBRANCH  27  28
ENDBRANCH  25  26
ENDBRANCH  23  24
ENDBRANCH  22  23
ENDBRANCH  20  21
ENDBRANCH   8  19
BRANCH   6  40
ATOM     40  O   UNL     1      52.817  -8.375 190.468  0.00  0.00    +0.000 OA
ATOM     41  H   UNL     1      52.084  -7.794 190.738  0.00  0.00    +0.000 HD
ENDBRANCH   6  40
BRANCH  18  42
ATOM     42  O   UNL     1      58.722 -15.164 184.576  0.00  0.00    +0.000 OA
ATOM     43  H   UNL     1      58.924 -14.777 183.706  0.00  0.00    +0.000 HD
ENDBRANCH  18  42
TORSDOF 12
ENDMDL
MODEL 6
REMARK VINA RESULT:      -6.7      2.091      3.069
REMARK  Name = Fulvestrant.pdbqt.pdb
REMARK  12 active torsions:
REMARK  status: ('A' for Active; 'I' for Inactive)
REMARK    1  A    between atoms: C_6  and  O_40
REMARK    2  A    between atoms: C_8  and  C_19
REMARK    3  A    between atoms: C_18  and  O_42
REMARK    4  A    between atoms: C_20  and  C_21
REMARK    5  A    between atoms: C_22  and  C_23
REMARK    6  A    between atoms: C_23  and  C_24
REMARK    7  A    between atoms: C_25  and  C_26
REMARK    8  A    between atoms: C_27  and  S_28
REMARK    9  A    between atoms: S_28  and  C_30
REMARK   10  A    between atoms: C_30  and  C_31
REMARK   11  A    between atoms: C_32  and  C_33
REMARK   12  A    between atoms: C_33  and  C_36
REMARK                            x       y       z     vdW  Elec       q    Type
REMARK                         _______ _______ _______ _____ _____    ______ ____
ROOT
ATOM      1  C   UNL     1      21.054   0.114 195.176  0.00  0.00    +0.000 C 
ATOM      2  C   UNL     1      19.941  -0.370 196.226  0.00  0.00    +0.000 C 
ATOM      3  C   UNL     1      20.761   0.438 193.743  0.00  0.00    +0.000 A 
ATOM      4  C   UNL     1      19.323   0.729 193.262  0.00  0.00    +0.000 A 
ATOM      5  C   UNL     1      18.660   0.055 195.671  0.00  0.00    +0.000 C 
ATOM      6  C   UNL     1      20.332   0.385 197.516  0.00  0.00    +0.000 C 
ATOM      7  C   UNL     1      21.984   0.921 195.908  0.00  0.00    +0.000 C 
ATOM      8  C   UNL     1      21.835   0.515 192.718  0.00  0.00    +0.000 A 
ATOM      9  C   UNL     1      18.362   0.558 194.286  0.00  0.00    +0.000 C 
ATOM     10  C   UNL     1      21.539   1.112 197.334  0.00  0.00    +0.000 C 
ATOM     11  C   UNL     1      20.077  -1.901 196.424  0.00  0.00    +0.000 C 
ATOM     12  C   UNL     1      18.984   1.096 191.859  0.00  0.00    +0.000 A 
ATOM     13  C   UNL     1      21.310   0.885 191.456  0.00  0.00    +0.000 A 
ATOM     14  C   UNL     1      20.033   1.179 190.913  0.00  0.00    +0.000 A 
ATOM     15  C   UNL     1      17.682   1.358 191.438  0.00  0.00    +0.000 A 
ATOM     16  C   UNL     1      19.809   1.511 189.587  0.00  0.00    +0.000 A 
ATOM     17  C   UNL     1      17.440   1.695 190.105  0.00  0.00    +0.000 A 
ATOM     18  C   UNL     1      18.498   1.767 189.197  0.00  0.00    +0.000 A 
ENDROOT
BRANCH   8  19
ATOM     19  C   UNL     1      23.166   0.089 192.942  0.00  0.00    +0.000 C 
ATOM     20  C   UNL     1      24.614  -0.354 193.177  0.00  0.00    +0.000 C 
BRANCH  20  21
ATOM     21  C   UNL     1      26.070  -0.772 193.398  0.00  0.00    +0.000 C 
ATOM     22  C   UNL     1      27.535  -1.177 193.591  0.00  0.00    +0.000 C 
BRANCH  22  23
ATOM     23  C   UNL     1      29.006  -1.568 193.753  0.00  0.00    +0.000 C 
BRANCH  23  24
ATOM     24  C   UNL     1      30.477  -1.979 193.885  0.00  0.00    +0.000 C 
ATOM     25  C   UNL     1      31.937  -2.423 194.009  0.00  0.00    +0.000 C 
BRANCH  25  26
ATOM     26  C   UNL     1      33.388  -2.901 194.127  0.00  0.00    +0.000 C 
ATOM     27  C   UNL     1      34.839  -3.368 194.281  0.00  0.00    +0.000 C 
BRANCH  27  28
ATOM     28  S   UNL     1      36.507  -3.890 194.490  0.00  0.00    +0.000 S 
ATOM     29  O   UNL     1      36.554  -3.371 195.897  0.00  0.00    +0.000 OA
BRANCH  28  30
ATOM     30  C   UNL     1      36.055  -5.503 195.032  0.00  0.00    +0.000 C 
BRANCH  30  31
ATOM     31  C   UNL     1      35.666  -6.900 195.528  0.00  0.00    +0.000 C 
ATOM     32  C   UNL     1      35.277  -8.304 196.005  0.00  0.00    +0.000 C 
BRANCH  32  33
ATOM     33  C   UNL     1      34.903  -9.648 196.452  0.00  0.00    +0.000 C 
ATOM     34  F   UNL     1      34.055  -9.518 197.510  0.00  0.00    +0.000 F 
ATOM     35  F   UNL     1      36.023 -10.249 196.942  0.00  0.00    +0.000 F 
BRANCH  33  36
ATOM     36  C   UNL     1      34.269 -10.500 195.347  0.00  0.00    +0.000 C 
ATOM     37  F   UNL     1      35.190 -10.942 194.453  0.00  0.00    +0.000 F 
ATOM     38  F   UNL     1      33.335  -9.813 194.644  0.00  0.00    +0.000 F 
ATOM     39  F   UNL     1      33.651 -11.599 195.850  0.00  0.00    +0.000 F 
ENDBRANCH  33  36
ENDBRANCH  32  33
ENDBRANCH  30  31
ENDBRANCH  28  30
ENDBRANCH  27  28
ENDBRANCH  25  26
ENDBRANCH  23  24
ENDBRANCH  22  23
ENDBRANCH  20  21
ENDBRANCH   8  19
BRANCH   6  40
ATOM     40  O   UNL     1      19.420   0.707 198.498  0.00  0.00    +0.000 OA
ATOM     41  H   UNL     1      18.892  -0.066 198.768  0.00  0.00    +0.000 HD
ENDBRANCH   6  40
BRANCH  18  42
ATOM     42  O   UNL     1      18.212   2.099 187.903  0.00  0.00    +0.000 OA
ATOM     43  H   UNL     1      17.524   1.493 187.575  0.00  0.00    +0.000 HD
ENDBRANCH  18  42
TORSDOF 12
ENDMDL
MODEL 7
REMARK VINA RESULT:      -6.7     29.160     32.115
REMARK  Name = Fulvestrant.pdbqt.pdb
REMARK  12 active torsions:
REMARK  status: ('A' for Active; 'I' for Inactive)
REMARK    1  A    between atoms: C_6  and  O_40
REMARK    2  A    between atoms: C_8  and  C_19
REMARK    3  A    between atoms: C_18  and  O_42
REMARK    4  A    between atoms: C_20  and  C_21
REMARK    5  A    between atoms: C_22  and  C_23
REMARK    6  A    between atoms: C_23  and  C_24
REMARK    7  A    between atoms: C_25  and  C_26
REMARK    8  A    between atoms: C_27  and  S_28
REMARK    9  A    between atoms: S_28  and  C_30
REMARK   10  A    between atoms: C_30  and  C_31
REMARK   11  A    between atoms: C_32  and  C_33
REMARK   12  A    between atoms: C_33  and  C_36
REMARK                            x       y       z     vdW  Elec       q    Type
REMARK                         _______ _______ _______ _____ _____    ______ ____
ROOT
ATOM      1  C   UNL     1      39.610 -22.046 173.039  0.00  0.00    +0.000 C 
ATOM      2  C   UNL     1      40.183 -20.690 173.676  0.00  0.00    +0.000 C 
ATOM      3  C   UNL     1      39.118 -22.160 171.628  0.00  0.00    +0.000 A 
ATOM      4  C   UNL     1      39.493 -21.112 170.559  0.00  0.00    +0.000 A 
ATOM      5  C   UNL     1      40.570 -19.853 172.546  0.00  0.00    +0.000 C 
ATOM      6  C   UNL     1      41.383 -21.183 174.515  0.00  0.00    +0.000 C 
ATOM      7  C   UNL     1      40.366 -23.120 173.613  0.00  0.00    +0.000 C 
ATOM      8  C   UNL     1      38.262 -23.291 171.182  0.00  0.00    +0.000 A 
ATOM      9  C   UNL     1      40.243 -20.037 171.090  0.00  0.00    +0.000 C 
ATOM     10  C   UNL     1      41.468 -22.601 174.499  0.00  0.00    +0.000 C 
ATOM     11  C   UNL     1      39.094 -20.071 174.588  0.00  0.00    +0.000 C 
ATOM     12  C   UNL     1      39.064 -21.200 169.135  0.00  0.00    +0.000 A 
ATOM     13  C   UNL     1      37.973 -23.197 169.799  0.00  0.00    +0.000 A 
ATOM     14  C   UNL     1      38.266 -22.301 168.741  0.00  0.00    +0.000 A 
ATOM     15  C   UNL     1      39.411 -20.249 168.179  0.00  0.00    +0.000 A 
ATOM     16  C   UNL     1      37.820 -22.461 167.438  0.00  0.00    +0.000 A 
ATOM     17  C   UNL     1      38.971 -20.397 166.862  0.00  0.00    +0.000 A 
ATOM     18  C   UNL     1      38.184 -21.494 166.506  0.00  0.00    +0.000 A 
ENDROOT
BRANCH   8  19
ATOM     19  C   UNL     1      37.668 -24.222 172.067  0.00  0.00    +0.000 C 
ATOM     20  C   UNL     1      37.033 -25.219 173.042  0.00  0.00    +0.000 C 
BRANCH  20  21
ATOM     21  C   UNL     1      36.413 -26.202 174.039  0.00  0.00    +0.000 C 
ATOM     22  C   UNL     1      35.769 -27.192 175.014  0.00  0.00    +0.000 C 
BRANCH  22  23
ATOM     23  C   UNL     1      35.099 -28.186 175.968  0.00  0.00    +0.000 C 
BRANCH  23  24
ATOM     24  C   UNL     1      34.462 -29.190 176.934  0.00  0.00    +0.000 C 
ATOM     25  C   UNL     1      33.813 -30.166 177.921  0.00  0.00    +0.000 C 
BRANCH  25  26
ATOM     26  C   UNL     1      33.157 -31.115 178.928  0.00  0.00    +0.000 C 
ATOM     27  C   UNL     1      32.485 -32.083 179.908  0.00  0.00    +0.000 C 
BRANCH  27  28
ATOM     28  S   UNL     1      31.697 -33.211 181.006  0.00  0.00    +0.000 S 
ATOM     29  O   UNL     1      33.004 -33.839 181.391  0.00  0.00    +0.000 OA
BRANCH  28  30
ATOM     30  C   UNL     1      31.757 -32.100 182.371  0.00  0.00    +0.000 C 
BRANCH  30  31
ATOM     31  C   UNL     1      31.796 -31.117 183.547  0.00  0.00    +0.000 C 
ATOM     32  C   UNL     1      31.818 -30.128 184.717  0.00  0.00    +0.000 C 
BRANCH  32  33
ATOM     33  C   UNL     1      31.830 -29.178 185.833  0.00  0.00    +0.000 C 
ATOM     34  F   UNL     1      30.617 -29.239 186.450  0.00  0.00    +0.000 F 
ATOM     35  F   UNL     1      31.920 -27.923 185.310  0.00  0.00    +0.000 F 
BRANCH  33  36
ATOM     36  C   UNL     1      32.963 -29.432 186.832  0.00  0.00    +0.000 C 
ATOM     37  F   UNL     1      33.925 -28.475 186.767  0.00  0.00    +0.000 F 
ATOM     38  F   UNL     1      33.577 -30.623 186.619  0.00  0.00    +0.000 F 
ATOM     39  F   UNL     1      32.512 -29.447 188.113  0.00  0.00    +0.000 F 
ENDBRANCH  33  36
ENDBRANCH  32  33
ENDBRANCH  30  31
ENDBRANCH  28  30
ENDBRANCH  27  28
ENDBRANCH  25  26
ENDBRANCH  23  24
ENDBRANCH  22  23
ENDBRANCH  20  21
ENDBRANCH   8  19
BRANCH   6  40
ATOM     40  O   UNL     1      42.469 -20.384 174.806  0.00  0.00    +0.000 OA
ATOM     41  H   UNL     1      42.836 -19.968 174.006  0.00  0.00    +0.000 HD
ENDBRANCH   6  40
BRANCH  18  42
ATOM     42  O   UNL     1      37.775 -21.596 165.207  0.00  0.00    +0.000 OA
ATOM     43  H   UNL     1      37.448 -20.726 164.918  0.00  0.00    +0.000 HD
ENDBRANCH  18  42
TORSDOF 12
ENDMDL
MODEL 8
REMARK VINA RESULT:      -6.7     11.882     16.428
REMARK  Name = Fulvestrant.pdbqt.pdb
REMARK  12 active torsions:
REMARK  status: ('A' for Active; 'I' for Inactive)
REMARK    1  A    between atoms: C_6  and  O_40
REMARK    2  A    between atoms: C_8  and  C_19
REMARK    3  A    between atoms: C_18  and  O_42
REMARK    4  A    between atoms: C_20  and  C_21
REMARK    5  A    between atoms: C_22  and  C_23
REMARK    6  A    between atoms: C_23  and  C_24
REMARK    7  A    between atoms: C_25  and  C_26
REMARK    8  A    between atoms: C_27  and  S_28
REMARK    9  A    between atoms: S_28  and  C_30
REMARK   10  A    between atoms: C_30  and  C_31
REMARK   11  A    between atoms: C_32  and  C_33
REMARK   12  A    between atoms: C_33  and  C_36
REMARK                            x       y       z     vdW  Elec       q    Type
REMARK                         _______ _______ _______ _____ _____    ______ ____
ROOT
ATOM      1  C   UNL     1      23.505   0.696 191.891  0.00  0.00    +0.000 C 
ATOM      2  C   UNL     1      25.090   0.944 191.931  0.00  0.00    +0.000 C 
ATOM      3  C   UNL     1      22.612   1.195 190.796  0.00  0.00    +0.000 A 
ATOM      4  C   UNL     1      23.181   1.625 189.428  0.00  0.00    +0.000 A 
ATOM      5  C   UNL     1      25.478   1.249 190.558  0.00  0.00    +0.000 C 
ATOM      6  C   UNL     1      25.637  -0.409 192.438  0.00  0.00    +0.000 C 
ATOM      7  C   UNL     1      23.278  -0.602 192.452  0.00  0.00    +0.000 C 
ATOM      8  C   UNL     1      21.137   1.285 190.962  0.00  0.00    +0.000 A 
ATOM      9  C   UNL     1      24.595   1.579 189.387  0.00  0.00    +0.000 C 
ATOM     10  C   UNL     1      24.577  -1.296 192.768  0.00  0.00    +0.000 C 
ATOM     11  C   UNL     1      25.391   2.073 192.948  0.00  0.00    +0.000 C 
ATOM     12  C   UNL     1      22.335   2.089 188.293  0.00  0.00    +0.000 A 
ATOM     13  C   UNL     1      20.516   1.736 189.773  0.00  0.00    +0.000 A 
ATOM     14  C   UNL     1      20.933   2.144 188.480  0.00  0.00    +0.000 A 
ATOM     15  C   UNL     1      22.861   2.472 187.061  0.00  0.00    +0.000 A 
ATOM     16  C   UNL     1      20.070   2.565 187.480  0.00  0.00    +0.000 A 
ATOM     17  C   UNL     1      22.005   2.898 186.044  0.00  0.00    +0.000 A 
ATOM     18  C   UNL     1      20.626   2.941 186.262  0.00  0.00    +0.000 A 
ENDROOT
BRANCH   8  19
ATOM     19  C   UNL     1      20.476   1.121 192.203  0.00  0.00    +0.000 C 
ATOM     20  C   UNL     1      19.780   0.943 193.556  0.00  0.00    +0.000 C 
BRANCH  20  21
ATOM     21  C   UNL     1      19.110   0.764 194.921  0.00  0.00    +0.000 C 
ATOM     22  C   UNL     1      18.429   0.614 196.285  0.00  0.00    +0.000 C 
BRANCH  22  23
ATOM     23  C   UNL     1      17.739   0.498 197.647  0.00  0.00    +0.000 C 
BRANCH  23  24
ATOM     24  C   UNL     1      17.036   0.415 199.006  0.00  0.00    +0.000 C 
ATOM     25  C   UNL     1      16.307   0.312 200.350  0.00  0.00    +0.000 C 
BRANCH  25  26
ATOM     26  C   UNL     1      15.551   0.194 201.677  0.00  0.00    +0.000 C 
ATOM     27  C   UNL     1      14.815   0.104 203.018  0.00  0.00    +0.000 C 
BRANCH  27  28
ATOM     28  S   UNL     1      13.991   0.025 204.571  0.00  0.00    +0.000 S 
ATOM     29  O   UNL     1      14.784   1.176 205.115  0.00  0.00    +0.000 OA
BRANCH  28  30
ATOM     30  C   UNL     1      12.683   1.088 204.059  0.00  0.00    +0.000 C 
BRANCH  30  31
ATOM     31  C   UNL     1      11.529   1.993 203.614  0.00  0.00    +0.000 C 
ATOM     32  C   UNL     1      10.376   2.891 203.152  0.00  0.00    +0.000 C 
BRANCH  32  33
ATOM     33  C   UNL     1       9.274   3.746 202.702  0.00  0.00    +0.000 C 
ATOM     34  F   UNL     1       9.382   4.943 203.344  0.00  0.00    +0.000 F 
ATOM     35  F   UNL     1       8.110   3.190 203.140  0.00  0.00    +0.000 F 
BRANCH  33  36
ATOM     36  C   UNL     1       9.243   3.945 201.183  0.00  0.00    +0.000 C 
ATOM     37  F   UNL     1      10.421   3.601 200.601  0.00  0.00    +0.000 F 
ATOM     38  F   UNL     1       8.995   5.233 200.840  0.00  0.00    +0.000 F 
ATOM     39  F   UNL     1       8.281   3.189 200.595  0.00  0.00    +0.000 F 
ENDBRANCH  33  36
ENDBRANCH  32  33
ENDBRANCH  30  31
ENDBRANCH  28  30
ENDBRANCH  27  28
ENDBRANCH  25  26
ENDBRANCH  23  24
ENDBRANCH  22  23
ENDBRANCH  20  21
ENDBRANCH   8  19
BRANCH   6  40
ATOM     40  O   UNL     1      26.907  -0.858 192.144  0.00  0.00    +0.000 OA
ATOM     41  H   UNL     1      27.367  -0.261 191.526  0.00  0.00    +0.000 HD
ENDBRANCH   6  40
BRANCH  18  42
ATOM     42  O   UNL     1      19.828   3.365 185.237  0.00  0.00    +0.000 OA
ATOM     43  H   UNL     1      18.972   2.907 185.305  0.00  0.00    +0.000 HD
ENDBRANCH  18  42
TORSDOF 12
ENDMDL
MODEL 9
REMARK VINA RESULT:      -6.6     12.000     16.421
REMARK  Name = Fulvestrant.pdbqt.pdb
REMARK  12 active torsions:
REMARK  status: ('A' for Active; 'I' for Inactive)
REMARK    1  A    between atoms: C_6  and  O_40
REMARK    2  A    between atoms: C_8  and  C_19
REMARK    3  A    between atoms: C_18  and  O_42
REMARK    4  A    between atoms: C_20  and  C_21
REMARK    5  A    between atoms: C_22  and  C_23
REMARK    6  A    between atoms: C_23  and  C_24
REMARK    7  A    between atoms: C_25  and  C_26
REMARK    8  A    between atoms: C_27  and  S_28
REMARK    9  A    between atoms: S_28  and  C_30
REMARK   10  A    between atoms: C_30  and  C_31
REMARK   11  A    between atoms: C_32  and  C_33
REMARK   12  A    between atoms: C_33  and  C_36
REMARK                            x       y       z     vdW  Elec       q    Type
REMARK                         _______ _______ _______ _____ _____    ______ ____
ROOT
ATOM      1  C   UNL     1      23.589   0.675 191.826  0.00  0.00    +0.000 C 
ATOM      2  C   UNL     1      25.172   0.932 191.871  0.00  0.00    +0.000 C 
ATOM      3  C   UNL     1      22.694   1.179 190.735  0.00  0.00    +0.000 A 
ATOM      4  C   UNL     1      23.262   1.627 189.372  0.00  0.00    +0.000 A 
ATOM      5  C   UNL     1      25.560   1.254 190.502  0.00  0.00    +0.000 C 
ATOM      6  C   UNL     1      25.727  -0.423 192.364  0.00  0.00    +0.000 C 
ATOM      7  C   UNL     1      23.369  -0.631 192.373  0.00  0.00    +0.000 C 
ATOM      8  C   UNL     1      21.218   1.258 190.900  0.00  0.00    +0.000 A 
ATOM      9  C   UNL     1      24.676   1.590 189.333  0.00  0.00    +0.000 C 
ATOM     10  C   UNL     1      24.673  -1.320 192.684  0.00  0.00    +0.000 C 
ATOM     11  C   UNL     1      25.465   2.053 192.900  0.00  0.00    +0.000 C 
ATOM     12  C   UNL     1      22.414   2.097 188.241  0.00  0.00    +0.000 A 
ATOM     13  C   UNL     1      20.596   1.717 189.715  0.00  0.00    +0.000 A 
ATOM     14  C   UNL     1      21.011   2.140 188.427  0.00  0.00    +0.000 A 
ATOM     15  C   UNL     1      22.939   2.496 187.014  0.00  0.00    +0.000 A 
ATOM     16  C   UNL     1      20.147   2.566 187.430  0.00  0.00    +0.000 A 
ATOM     17  C   UNL     1      22.081   2.927 186.001  0.00  0.00    +0.000 A 
ATOM     18  C   UNL     1      20.702   2.959 186.217  0.00  0.00    +0.000 A 
ENDROOT
BRANCH   8  19
ATOM     19  C   UNL     1      20.557   1.076 192.139  0.00  0.00    +0.000 C 
ATOM     20  C   UNL     1      19.842   0.902 193.482  0.00  0.00    +0.000 C 
BRANCH  20  21
ATOM     21  C   UNL     1      19.131   0.756 194.830  0.00  0.00    +0.000 C 
ATOM     22  C   UNL     1      18.393   0.624 196.166  0.00  0.00    +0.000 C 
BRANCH  22  23
ATOM     23  C   UNL     1      17.629   0.508 197.489  0.00  0.00    +0.000 C 
BRANCH  23  24
ATOM     24  C   UNL     1      16.860   0.428 198.812  0.00  0.00    +0.000 C 
ATOM     25  C   UNL     1      16.121   0.337 200.150  0.00  0.00    +0.000 C 
BRANCH  25  26
ATOM     26  C   UNL     1      15.411   0.230 201.504  0.00  0.00    +0.000 C 
ATOM     27  C   UNL     1      14.677   0.151 202.846  0.00  0.00    +0.000 C 
BRANCH  27  28
ATOM     28  S   UNL     1      13.815   0.087 204.380  0.00  0.00    +0.000 S 
ATOM     29  O   UNL     1      15.080   0.277 205.164  0.00  0.00    +0.000 OA
BRANCH  28  30
ATOM     30  C   UNL     1      13.474   1.814 204.391  0.00  0.00    +0.000 C 
BRANCH  30  31
ATOM     31  C   UNL     1      13.188   3.320 204.422  0.00  0.00    +0.000 C 
ATOM     32  C   UNL     1      12.883   4.821 204.458  0.00  0.00    +0.000 C 
BRANCH  32  33
ATOM     33  C   UNL     1      12.583   6.255 204.493  0.00  0.00    +0.000 C 
ATOM     34  F   UNL     1      13.292   6.857 203.497  0.00  0.00    +0.000 F 
ATOM     35  F   UNL     1      13.078   6.756 205.660  0.00  0.00    +0.000 F 
BRANCH  33  36
ATOM     36  C   UNL     1      11.088   6.565 204.361  0.00  0.00    +0.000 C 
ATOM     37  F   UNL     1      10.540   6.943 205.544  0.00  0.00    +0.000 F 
ATOM     38  F   UNL     1      10.380   5.494 203.924  0.00  0.00    +0.000 F 
ATOM     39  F   UNL     1      10.858   7.573 203.482  0.00  0.00    +0.000 F 
ENDBRANCH  33  36
ENDBRANCH  32  33
ENDBRANCH  30  31
ENDBRANCH  28  30
ENDBRANCH  27  28
ENDBRANCH  25  26
ENDBRANCH  23  24
ENDBRANCH  22  23
ENDBRANCH  20  21
ENDBRANCH   8  19
BRANCH   6  40
ATOM     40  O   UNL     1      27.001  -0.860 192.067  0.00  0.00    +0.000 OA
ATOM     41  H   UNL     1      27.072  -1.829 192.123  0.00  0.00    +0.000 HD
ENDBRANCH   6  40
BRANCH  18  42
ATOM     42  O   UNL     1      19.903   3.389 185.196  0.00  0.00    +0.000 OA
ATOM     43  H   UNL     1      19.866   2.690 184.519  0.00  0.00    +0.000 HD
ENDBRANCH  18  42
TORSDOF 12
ENDMDL
