MODEL 1
REMARK VINA RESULT:      -8.1      0.000      0.000
REMARK  Name = Gefitinib.pdbqt.pdb
REMARK  6 active torsions:
REMARK  status: ('A' for Active; 'I' for Inactive)
REMARK    1  A    between atoms: C_3  and  O_11
REMARK    2  A    between atoms: C_6  and  O_21
REMARK    3  A    between atoms: O_11  and  C_12
REMARK    4  A    between atoms: C_13  and  C_14
REMARK    5  A    between atoms: C_14  and  N_15
REMARK    6  A    between atoms: N_23  and  C_25
REMARK                            x       y       z     vdW  Elec       q    Type
REMARK                         _______ _______ _______ _____ _____    ______ ____
ROOT
ATOM      1  N   UNL     1      18.147   2.452 187.647  0.00  0.00    +0.000 NA
ATOM      2  N   UNL     1      18.274   1.368 189.766  0.00  0.00    +0.000 NA
ATOM      3  C   UNL     1      22.296   2.576 187.366  0.00  0.00    +0.000 A 
ATOM      4  C   UNL     1      20.281   1.936 188.595  0.00  0.00    +0.000 A 
ATOM      5  C   UNL     1      21.681   1.997 188.477  0.00  0.00    +0.000 A 
ATOM      6  C   UNL     1      21.496   3.101 186.350  0.00  0.00    +0.000 A 
ATOM      7  C   UNL     1      19.479   2.471 187.584  0.00  0.00    +0.000 A 
ATOM      8  C   UNL     1      20.104   3.038 186.482  0.00  0.00    +0.000 A 
ATOM      9  C   UNL     1      19.614   1.372 189.691  0.00  0.00    +0.000 A 
ATOM     10  C   UNL     1      17.601   1.906 188.741  0.00  0.00    +0.000 A 
ATOM     11  N   UNL     1      20.378   0.835 190.759  0.00  0.00    +0.000 N 
ATOM     12  H   UNL     1      21.129   0.246 190.411  0.00  0.00    +0.000 HD
ENDROOT
BRANCH  11  13
ATOM     13  C   UNL     1      19.920   0.410 192.026  0.00  0.00    +0.000 A 
ATOM     14  C   UNL     1      20.560  -0.667 192.651  0.00  0.00    +0.000 A 
ATOM     15  C   UNL     1      20.212  -1.054 193.943  0.00  0.00    +0.000 A 
ATOM     16 CL   UNL     1      21.009  -2.404 194.645  0.00  0.00    +0.000 Cl
ATOM     17  C   UNL     1      19.238  -0.347 194.638  0.00  0.00    +0.000 A 
ATOM     18  F   UNL     1      18.890  -0.704 195.883  0.00  0.00    +0.000 F 
ATOM     19  C   UNL     1      18.616   0.749 194.055  0.00  0.00    +0.000 A 
ATOM     20  C   UNL     1      18.973   1.129 192.764  0.00  0.00    +0.000 A 
ENDBRANCH  11  13
BRANCH   6  21
ATOM     21  O   UNL     1      22.143   3.663 185.274  0.00  0.00    +0.000 OA
ATOM     22  C   UNL     1      22.194   5.062 185.261  0.00  0.00    +0.000 C 
ENDBRANCH   6  21
BRANCH   3  23
ATOM     23  O   UNL     1      23.659   2.654 187.215  0.00  0.00    +0.000 OA
BRANCH  23  24
ATOM     24  C   UNL     1      24.360   2.270 188.279  0.00  0.00    +0.000 C 
ATOM     25  C   UNL     1      25.152   1.824 189.513  0.00  0.00    +0.000 C 
BRANCH  25  26
ATOM     26  C   UNL     1      25.914   1.365 190.760  0.00  0.00    +0.000 C 
BRANCH  26  27
ATOM     27  N   UNL     1      26.646   0.941 191.946  0.00  0.00    +0.000 N 
ATOM     28  C   UNL     1      25.688   1.025 193.091  0.00  0.00    +0.000 C 
ATOM     29  C   UNL     1      25.034  -0.137 193.909  0.00  0.00    +0.000 C 
ATOM     30  O   UNL     1      25.098  -1.485 193.859  0.00  0.00    +0.000 OA
ATOM     31  C   UNL     1      25.960  -1.561 192.826  0.00  0.00    +0.000 C 
ATOM     32  C   UNL     1      26.706  -0.551 191.903  0.00  0.00    +0.000 C 
ENDBRANCH  26  27
ENDBRANCH  25  26
ENDBRANCH  23  24
ENDBRANCH   3  23
TORSDOF 6
ENDMDL
MODEL 2
REMARK VINA RESULT:      -7.9      2.458      2.940
REMARK  Name = Gefitinib.pdbqt.pdb
REMARK  6 active torsions:
REMARK  status: ('A' for Active; 'I' for Inactive)
REMARK    1  A    between atoms: C_3  and  O_11
REMARK    2  A    between atoms: C_6  and  O_21
REMARK    3  A    between atoms: O_11  and  C_12
REMARK    4  A    between atoms: C_13  and  C_14
REMARK    5  A    between atoms: C_14  and  N_15
REMARK    6  A    between atoms: N_23  and  C_25
REMARK                            x       y       z     vdW  Elec       q    Type
REMARK                         _______ _______ _______ _____ _____    ______ ____
ROOT
ATOM      1  N   UNL     1      18.271   2.182 188.643  0.00  0.00    +0.000 NA
ATOM      2  N   UNL     1      18.805   0.917 190.590  0.00  0.00    +0.000 NA
ATOM      3  C   UNL     1      21.886   4.226 188.875  0.00  0.00    +0.000 A 
ATOM      4  C   UNL     1      20.358   2.533 189.756  0.00  0.00    +0.000 A 
ATOM      5  C   UNL     1      21.570   3.244 189.814  0.00  0.00    +0.000 A 
ATOM      6  C   UNL     1      20.976   4.502 187.855  0.00  0.00    +0.000 A 
ATOM      7  C   UNL     1      19.440   2.814 188.741  0.00  0.00    +0.000 A 
ATOM      8  C   UNL     1      19.771   3.791 187.811  0.00  0.00    +0.000 A 
ATOM      9  C   UNL     1      19.989   1.543 190.677  0.00  0.00    +0.000 A 
ATOM     10  C   UNL     1      18.001   1.262 189.578  0.00  0.00    +0.000 A 
ATOM     11  N   UNL     1      20.873   1.231 191.742  0.00  0.00    +0.000 N 
ATOM     12  H   UNL     1      21.825   1.120 191.407  0.00  0.00    +0.000 HD
ENDROOT
BRANCH  11  13
ATOM     13  C   UNL     1      20.616   0.426 192.874  0.00  0.00    +0.000 A 
ATOM     14  C   UNL     1      19.830   0.946 193.909  0.00  0.00    +0.000 A 
ATOM     15  C   UNL     1      19.463   0.156 194.996  0.00  0.00    +0.000 A 
ATOM     16 CL   UNL     1      18.525   0.859 196.252  0.00  0.00    +0.000 Cl
ATOM     17  C   UNL     1      19.856  -1.177 195.046  0.00  0.00    +0.000 A 
ATOM     18  F   UNL     1      19.514  -1.953 196.085  0.00  0.00    +0.000 F 
ATOM     19  C   UNL     1      20.604  -1.727 194.014  0.00  0.00    +0.000 A 
ATOM     20  C   UNL     1      20.963  -0.928 192.930  0.00  0.00    +0.000 A 
ENDBRANCH  11  13
BRANCH   6  21
ATOM     21  O   UNL     1      21.327   5.477 186.951  0.00  0.00    +0.000 OA
ATOM     22  C   UNL     1      21.840   5.019 185.732  0.00  0.00    +0.000 C 
ENDBRANCH   6  21
BRANCH   3  23
ATOM     23  O   UNL     1      23.059   4.941 188.898  0.00  0.00    +0.000 OA
BRANCH  23  24
ATOM     24  C   UNL     1      24.095   4.294 189.427  0.00  0.00    +0.000 C 
ATOM     25  C   UNL     1      25.294   3.564 190.042  0.00  0.00    +0.000 C 
BRANCH  25  26
ATOM     26  C   UNL     1      26.503   2.864 190.672  0.00  0.00    +0.000 C 
BRANCH  26  27
ATOM     27  N   UNL     1      27.657   2.212 191.276  0.00  0.00    +0.000 N 
ATOM     28  C   UNL     1      27.899   0.962 190.494  0.00  0.00    +0.000 C 
ATOM     29  C   UNL     1      29.074   0.629 189.517  0.00  0.00    +0.000 C 
ATOM     30  O   UNL     1      30.165   1.297 189.081  0.00  0.00    +0.000 OA
ATOM     31  C   UNL     1      29.946   2.425 189.785  0.00  0.00    +0.000 C 
ATOM     32  C   UNL     1      28.866   2.939 190.785  0.00  0.00    +0.000 C 
ENDBRANCH  26  27
ENDBRANCH  25  26
ENDBRANCH  23  24
ENDBRANCH   3  23
TORSDOF 6
ENDMDL
MODEL 3
REMARK VINA RESULT:      -7.8      4.028      6.725
REMARK  Name = Gefitinib.pdbqt.pdb
REMARK  6 active torsions:
REMARK  status: ('A' for Active; 'I' for Inactive)
REMARK    1  A    between atoms: C_3  and  O_11
REMARK    2  A    between atoms: C_6  and  O_21
REMARK    3  A    between atoms: O_11  and  C_12
REMARK    4  A    between atoms: C_13  and  C_14
REMARK    5  A    between atoms: C_14  and  N_15
REMARK    6  A    between atoms: N_23  and  C_25
REMARK                            x       y       z     vdW  Elec       q    Type
REMARK                         _______ _______ _______ _____ _____    ______ ____
ROOT
ATOM      1  N   UNL     1      18.479   0.600 191.041  0.00  0.00    +0.000 NA
ATOM      2  N   UNL     1      19.557   2.217 189.662  0.00  0.00    +0.000 NA
ATOM      3  C   UNL     1      22.143  -0.713 192.510  0.00  0.00    +0.000 A 
ATOM      4  C   UNL     1      20.863   0.795 191.074  0.00  0.00    +0.000 A 
ATOM      5  C   UNL     1      22.087   0.327 191.582  0.00  0.00    +0.000 A 
ATOM      6  C   UNL     1      20.951  -1.296 192.943  0.00  0.00    +0.000 A 
ATOM      7  C   UNL     1      19.668   0.206 191.497  0.00  0.00    +0.000 A 
ATOM      8  C   UNL     1      19.739  -0.824 192.426  0.00  0.00    +0.000 A 
ATOM      9  C   UNL     1      20.752   1.831 190.136  0.00  0.00    +0.000 A 
ATOM     10  C   UNL     1      18.476   1.587 190.136  0.00  0.00    +0.000 A 
ATOM     11  N   UNL     1      21.933   2.451 189.653  0.00  0.00    +0.000 N 
ATOM     12  H   UNL     1      22.565   2.677 190.415  0.00  0.00    +0.000 HD
ENDROOT
BRANCH  11  13
ATOM     13  C   UNL     1      22.059   3.357 188.577  0.00  0.00    +0.000 A 
ATOM     14  C   UNL     1      21.647   2.955 187.301  0.00  0.00    +0.000 A 
ATOM     15  C   UNL     1      21.655   3.847 186.232  0.00  0.00    +0.000 A 
ATOM     16 CL   UNL     1      21.170   3.286 184.682  0.00  0.00    +0.000 Cl
ATOM     17  C   UNL     1      22.048   5.165 186.434  0.00  0.00    +0.000 A 
ATOM     18  F   UNL     1      22.062   6.039 185.416  0.00  0.00    +0.000 F 
ATOM     19  C   UNL     1      22.424   5.600 187.698  0.00  0.00    +0.000 A 
ATOM     20  C   UNL     1      22.410   4.699 188.761  0.00  0.00    +0.000 A 
ENDBRANCH  11  13
BRANCH   6  21
ATOM     21  O   UNL     1      21.051  -2.318 193.857  0.00  0.00    +0.000 OA
ATOM     22  C   UNL     1      20.599  -2.023 195.149  0.00  0.00    +0.000 C 
ENDBRANCH   6  21
BRANCH   3  23
ATOM     23  O   UNL     1      23.319  -1.198 193.030  0.00  0.00    +0.000 OA
BRANCH  23  24
ATOM     24  C   UNL     1      24.414  -0.823 192.373  0.00  0.00    +0.000 C 
ATOM     25  C   UNL     1      25.685  -0.397 191.629  0.00  0.00    +0.000 C 
BRANCH  25  26
ATOM     26  C   UNL     1      26.975   0.012 190.911  0.00  0.00    +0.000 C 
BRANCH  26  27
ATOM     27  N   UNL     1      28.203   0.387 190.224  0.00  0.00    +0.000 N 
ATOM     28  C   UNL     1      27.889   1.610 189.424  0.00  0.00    +0.000 C 
ATOM     29  C   UNL     1      28.368   3.081 189.653  0.00  0.00    +0.000 C 
ATOM     30  O   UNL     1      29.149   3.693 190.570  0.00  0.00    +0.000 OA
ATOM     31  C   UNL     1      29.432   2.591 191.292  0.00  0.00    +0.000 C 
ATOM     32  C   UNL     1      29.064   1.077 191.231  0.00  0.00    +0.000 C 
ENDBRANCH  26  27
ENDBRANCH  25  26
ENDBRANCH  23  24
ENDBRANCH   3  23
TORSDOF 6
ENDMDL
MODEL 4
REMARK VINA RESULT:      -7.7      4.148      6.703
REMARK  Name = Gefitinib.pdbqt.pdb
REMARK  6 active torsions:
REMARK  status: ('A' for Active; 'I' for Inactive)
REMARK    1  A    between atoms: C_3  and  O_11
REMARK    2  A    between atoms: C_6  and  O_21
REMARK    3  A    between atoms: O_11  and  C_12
REMARK    4  A    between atoms: C_13  and  C_14
REMARK    5  A    between atoms: C_14  and  N_15
REMARK    6  A    between atoms: N_23  and  C_25
REMARK                            x       y       z     vdW  Elec       q    Type
REMARK                         _______ _______ _______ _____ _____    ______ ____
ROOT
ATOM      1  N   UNL     1      17.363   0.980 190.706  0.00  0.00    +0.000 NA
ATOM      2  N   UNL     1      18.418   2.149 188.918  0.00  0.00    +0.000 NA
ATOM      3  C   UNL     1      20.656   1.603 193.170  0.00  0.00    +0.000 A 
ATOM      4  C   UNL     1      19.544   1.912 191.015  0.00  0.00    +0.000 A 
ATOM      5  C   UNL     1      20.645   2.102 191.867  0.00  0.00    +0.000 A 
ATOM      6  C   UNL     1      19.542   0.903 193.633  0.00  0.00    +0.000 A 
ATOM      7  C   UNL     1      18.431   1.202 191.473  0.00  0.00    +0.000 A 
ATOM      8  C   UNL     1      18.453   0.716 192.774  0.00  0.00    +0.000 A 
ATOM      9  C   UNL     1      19.485   2.386 189.698  0.00  0.00    +0.000 A 
ATOM     10  C   UNL     1      17.406   1.459 189.457  0.00  0.00    +0.000 A 
ATOM     11  N   UNL     1      20.596   3.095 189.172  0.00  0.00    +0.000 N 
ATOM     12  H   UNL     1      20.925   3.797 189.827  0.00  0.00    +0.000 HD
ENDROOT
BRANCH  11  13
ATOM     13  C   UNL     1      20.825   3.477 187.831  0.00  0.00    +0.000 A 
ATOM     14  C   UNL     1      22.056   4.051 187.492  0.00  0.00    +0.000 A 
ATOM     15  C   UNL     1      22.367   4.347 186.167  0.00  0.00    +0.000 A 
ATOM     16 CL   UNL     1      23.880   5.082 185.817  0.00  0.00    +0.000 Cl
ATOM     17  C   UNL     1      21.459   4.044 185.159  0.00  0.00    +0.000 A 
ATOM     18  F   UNL     1      21.740   4.322 183.878  0.00  0.00    +0.000 F 
ATOM     19  C   UNL     1      20.247   3.439 185.465  0.00  0.00    +0.000 A 
ATOM     20  C   UNL     1      19.947   3.145 186.793  0.00  0.00    +0.000 A 
ENDBRANCH  11  13
BRANCH   6  21
ATOM     21  O   UNL     1      19.595   0.427 194.923  0.00  0.00    +0.000 OA
ATOM     22  C   UNL     1      18.586   0.885 195.780  0.00  0.00    +0.000 C 
ENDBRANCH   6  21
BRANCH   3  23
ATOM     23  O   UNL     1      21.713   1.769 194.033  0.00  0.00    +0.000 OA
BRANCH  23  24
ATOM     24  C   UNL     1      22.867   2.079 193.445  0.00  0.00    +0.000 C 
ATOM     25  C   UNL     1      24.186   2.444 192.756  0.00  0.00    +0.000 C 
BRANCH  25  26
ATOM     26  C   UNL     1      25.487   2.827 192.042  0.00  0.00    +0.000 C 
BRANCH  26  27
ATOM     27  N   UNL     1      26.715   3.201 191.356  0.00  0.00    +0.000 N 
ATOM     28  C   UNL     1      27.740   2.178 191.725  0.00  0.00    +0.000 C 
ATOM     29  C   UNL     1      28.380   1.064 190.833  0.00  0.00    +0.000 C 
ATOM     30  O   UNL     1      28.234   0.679 189.546  0.00  0.00    +0.000 OA
ATOM     31  C   UNL     1      27.309   1.601 189.213  0.00  0.00    +0.000 C 
ATOM     32  C   UNL     1      26.564   2.763 189.936  0.00  0.00    +0.000 C 
ENDBRANCH  26  27
ENDBRANCH  25  26
ENDBRANCH  23  24
ENDBRANCH   3  23
TORSDOF 6
ENDMDL
MODEL 5
REMARK VINA RESULT:      -7.0      4.041      7.120
REMARK  Name = Gefitinib.pdbqt.pdb
REMARK  6 active torsions:
REMARK  status: ('A' for Active; 'I' for Inactive)
REMARK    1  A    between atoms: C_3  and  O_11
REMARK    2  A    between atoms: C_6  and  O_21
REMARK    3  A    between atoms: O_11  and  C_12
REMARK    4  A    between atoms: C_13  and  C_14
REMARK    5  A    between atoms: C_14  and  N_15
REMARK    6  A    between atoms: N_23  and  C_25
REMARK                            x       y       z     vdW  Elec       q    Type
REMARK                         _______ _______ _______ _____ _____    ______ ____
ROOT
ATOM      1  N   UNL     1      20.166  -1.082 193.520  0.00  0.00    +0.000 NA
ATOM      2  N   UNL     1      19.995   0.404 191.666  0.00  0.00    +0.000 NA
ATOM      3  C   UNL     1      24.137  -0.003 194.128  0.00  0.00    +0.000 A 
ATOM      4  C   UNL     1      22.052   0.239 192.875  0.00  0.00    +0.000 A 
ATOM      5  C   UNL     1      23.397   0.581 193.099  0.00  0.00    +0.000 A 
ATOM      6  C   UNL     1      23.520  -0.944 194.953  0.00  0.00    +0.000 A 
ATOM      7  C   UNL     1      21.434  -0.710 193.693  0.00  0.00    +0.000 A 
ATOM      8  C   UNL     1      22.181  -1.279 194.717  0.00  0.00    +0.000 A 
ATOM      9  C   UNL     1      21.267   0.790 191.853  0.00  0.00    +0.000 A 
ATOM     10  C   UNL     1      19.501  -0.511 192.508  0.00  0.00    +0.000 A 
ATOM     11  N   UNL     1      21.848   1.743 190.977  0.00  0.00    +0.000 N 
ATOM     12  H   UNL     1      22.368   2.445 191.494  0.00  0.00    +0.000 HD
ENDROOT
BRANCH  11  13
ATOM     13  C   UNL     1      21.308   2.262 189.780  0.00  0.00    +0.000 A 
ATOM     14  C   UNL     1      20.856   3.587 189.760  0.00  0.00    +0.000 A 
ATOM     15  C   UNL     1      20.414   4.175 188.577  0.00  0.00    +0.000 A 
ATOM     16 CL   UNL     1      19.840   5.794 188.621  0.00  0.00    +0.000 Cl
ATOM     17  C   UNL     1      20.446   3.451 187.390  0.00  0.00    +0.000 A 
ATOM     18  F   UNL     1      20.024   4.000 186.242  0.00  0.00    +0.000 F 
ATOM     19  C   UNL     1      20.926   2.148 187.376  0.00  0.00    +0.000 A 
ATOM     20  C   UNL     1      21.369   1.571 188.564  0.00  0.00    +0.000 A 
ENDBRANCH  11  13
BRANCH   6  21
ATOM     21  O   UNL     1      24.285  -1.495 195.954  0.00  0.00    +0.000 OA
ATOM     22  C   UNL     1      23.716  -1.477 197.233  0.00  0.00    +0.000 C 
ENDBRANCH   6  21
BRANCH   3  23
ATOM     23  O   UNL     1      25.453   0.304 194.379  0.00  0.00    +0.000 OA
BRANCH  23  24
ATOM     24  C   UNL     1      26.247   0.265 193.311  0.00  0.00    +0.000 C 
ATOM     25  C   UNL     1      27.160   0.237 192.081  0.00  0.00    +0.000 C 
BRANCH  25  26
ATOM     26  C   UNL     1      28.076   0.244 190.852  0.00  0.00    +0.000 C 
BRANCH  26  27
ATOM     27  N   UNL     1      28.957   0.256 189.693  0.00  0.00    +0.000 N 
ATOM     28  C   UNL     1      28.747   1.569 189.010  0.00  0.00    +0.000 C 
ATOM     29  C   UNL     1      29.720   2.790 188.914  0.00  0.00    +0.000 C 
ATOM     30  O   UNL     1      30.961   3.054 189.378  0.00  0.00    +0.000 OA
ATOM     31  C   UNL     1      31.150   1.870 189.994  0.00  0.00    +0.000 C 
ATOM     32  C   UNL     1      30.328   0.561 190.199  0.00  0.00    +0.000 C 
ENDBRANCH  26  27
ENDBRANCH  25  26
ENDBRANCH  23  24
ENDBRANCH   3  23
TORSDOF 6
ENDMDL
MODEL 6
REMARK VINA RESULT:      -7.0      3.860      6.937
REMARK  Name = Gefitinib.pdbqt.pdb
REMARK  6 active torsions:
REMARK  status: ('A' for Active; 'I' for Inactive)
REMARK    1  A    between atoms: C_3  and  O_11
REMARK    2  A    between atoms: C_6  and  O_21
REMARK    3  A    between atoms: O_11  and  C_12
REMARK    4  A    between atoms: C_13  and  C_14
REMARK    5  A    between atoms: C_14  and  N_15
REMARK    6  A    between atoms: N_23  and  C_25
REMARK                            x       y       z     vdW  Elec       q    Type
REMARK                         _______ _______ _______ _____ _____    ______ ____
ROOT
ATOM      1  N   UNL     1      26.298   3.343 189.162  0.00  0.00    +0.000 NA
ATOM      2  N   UNL     1      23.983   3.137 188.638  0.00  0.00    +0.000 NA
ATOM      3  C   UNL     1      26.090   0.093 191.750  0.00  0.00    +0.000 A 
ATOM      4  C   UNL     1      25.000   1.604 190.167  0.00  0.00    +0.000 A 
ATOM      5  C   UNL     1      24.957   0.513 191.052  0.00  0.00    +0.000 A 
ATOM      6  C   UNL     1      27.292   0.773 191.556  0.00  0.00    +0.000 A 
ATOM      7  C   UNL     1      26.200   2.294 189.979  0.00  0.00    +0.000 A 
ATOM      8  C   UNL     1      27.321   1.861 190.675  0.00  0.00    +0.000 A 
ATOM      9  C   UNL     1      23.891   2.070 189.448  0.00  0.00    +0.000 A 
ATOM     10  C   UNL     1      25.181   3.723 188.530  0.00  0.00    +0.000 A 
ATOM     11  N   UNL     1      22.640   1.422 189.617  0.00  0.00    +0.000 N 
ATOM     12  H   UNL     1      22.743   0.413 189.570  0.00  0.00    +0.000 HD
ENDROOT
BRANCH  11  13
ATOM     13  C   UNL     1      21.375   1.846 189.154  0.00  0.00    +0.000 A 
ATOM     14  C   UNL     1      21.254   2.307 187.838  0.00  0.00    +0.000 A 
ATOM     15  C   UNL     1      20.010   2.636 187.306  0.00  0.00    +0.000 A 
ATOM     16 CL   UNL     1      19.929   3.228 185.695  0.00  0.00    +0.000 Cl
ATOM     17  C   UNL     1      18.864   2.479 188.077  0.00  0.00    +0.000 A 
ATOM     18  F   UNL     1      17.657   2.791 187.582  0.00  0.00    +0.000 F 
ATOM     19  C   UNL     1      18.952   1.987 189.372  0.00  0.00    +0.000 A 
ATOM     20  C   UNL     1      20.202   1.658 189.894  0.00  0.00    +0.000 A 
ENDBRANCH  11  13
BRANCH   6  21
ATOM     21  O   UNL     1      28.384   0.327 192.263  0.00  0.00    +0.000 OA
ATOM     22  C   UNL     1      29.618   0.866 191.879  0.00  0.00    +0.000 C 
ENDBRANCH   6  21
BRANCH   3  23
ATOM     23  O   UNL     1      26.088  -0.969 192.623  0.00  0.00    +0.000 OA
BRANCH  23  24
ATOM     24  C   UNL     1      25.026  -1.028 193.423  0.00  0.00    +0.000 C 
ATOM     25  C   UNL     1      23.794  -1.100 194.331  0.00  0.00    +0.000 C 
BRANCH  25  26
ATOM     26  C   UNL     1      22.542  -1.184 195.212  0.00  0.00    +0.000 C 
BRANCH  26  27
ATOM     27  N   UNL     1      21.354  -1.279 196.048  0.00  0.00    +0.000 N 
ATOM     28  C   UNL     1      20.903   0.122 196.310  0.00  0.00    +0.000 C 
ATOM     29  C   UNL     1      19.637   0.862 195.768  0.00  0.00    +0.000 C 
ATOM     30  O   UNL     1      18.617   0.524 194.949  0.00  0.00    +0.000 OA
ATOM     31  C   UNL     1      19.024  -0.739 194.711  0.00  0.00    +0.000 C 
ATOM     32  C   UNL     1      20.221  -1.639 195.143  0.00  0.00    +0.000 C 
ENDBRANCH  26  27
ENDBRANCH  25  26
ENDBRANCH  23  24
ENDBRANCH   3  23
TORSDOF 6
ENDMDL
MODEL 7
REMARK VINA RESULT:      -7.0      4.342      7.315
REMARK  Name = Gefitinib.pdbqt.pdb
REMARK  6 active torsions:
REMARK  status: ('A' for Active; 'I' for Inactive)
REMARK    1  A    between atoms: C_3  and  O_11
REMARK    2  A    between atoms: C_6  and  O_21
REMARK    3  A    between atoms: O_11  and  C_12
REMARK    4  A    between atoms: C_13  and  C_14
REMARK    5  A    between atoms: C_14  and  N_15
REMARK    6  A    between atoms: N_23  and  C_25
REMARK                            x       y       z     vdW  Elec       q    Type
REMARK                         _______ _______ _______ _____ _____    ______ ____
ROOT
ATOM      1  N   UNL     1      26.661   3.392 189.530  0.00  0.00    +0.000 NA
ATOM      2  N   UNL     1      24.335   3.141 189.078  0.00  0.00    +0.000 NA
ATOM      3  C   UNL     1      26.030   2.739 193.589  0.00  0.00    +0.000 A 
ATOM      4  C   UNL     1      25.145   2.918 191.318  0.00  0.00    +0.000 A 
ATOM      5  C   UNL     1      24.960   2.707 192.695  0.00  0.00    +0.000 A 
ATOM      6  C   UNL     1      27.313   2.983 193.097  0.00  0.00    +0.000 A 
ATOM      7  C   UNL     1      26.427   3.173 190.824  0.00  0.00    +0.000 A 
ATOM      8  C   UNL     1      27.483   3.196 191.724  0.00  0.00    +0.000 A 
ATOM      9  C   UNL     1      24.104   2.903 190.379  0.00  0.00    +0.000 A 
ATOM     10  C   UNL     1      25.601   3.372 188.712  0.00  0.00    +0.000 A 
ATOM     11  N   UNL     1      22.778   2.672 190.826  0.00  0.00    +0.000 N 
ATOM     12  H   UNL     1      22.740   1.885 191.467  0.00  0.00    +0.000 HD
ENDROOT
BRANCH  11  13
ATOM     13  C   UNL     1      21.578   2.813 190.094  0.00  0.00    +0.000 A 
ATOM     14  C   UNL     1      21.115   4.100 189.795  0.00  0.00    +0.000 A 
ATOM     15  C   UNL     1      19.996   4.289 188.988  0.00  0.00    +0.000 A 
ATOM     16 CL   UNL     1      19.455   5.891 188.683  0.00  0.00    +0.000 Cl
ATOM     17  C   UNL     1      19.342   3.189 188.444  0.00  0.00    +0.000 A 
ATOM     18  F   UNL     1      18.262   3.350 187.664  0.00  0.00    +0.000 F 
ATOM     19  C   UNL     1      19.804   1.903 188.694  0.00  0.00    +0.000 A 
ATOM     20  C   UNL     1      20.926   1.726 189.500  0.00  0.00    +0.000 A 
ENDBRANCH  11  13
BRANCH   6  21
ATOM     21  O   UNL     1      28.339   3.007 194.013  0.00  0.00    +0.000 OA
ATOM     22  C   UNL     1      29.632   2.996 193.475  0.00  0.00    +0.000 C 
ENDBRANCH   6  21
BRANCH   3  23
ATOM     23  O   UNL     1      25.890   2.538 194.942  0.00  0.00    +0.000 OA
BRANCH  23  24
ATOM     24  C   UNL     1      24.796   1.866 195.293  0.00  0.00    +0.000 C 
ATOM     25  C   UNL     1      23.543   1.090 195.714  0.00  0.00    +0.000 C 
BRANCH  25  26
ATOM     26  C   UNL     1      22.302   0.314 196.169  0.00  0.00    +0.000 C 
BRANCH  26  27
ATOM     27  N   UNL     1      21.114  -0.414 196.592  0.00  0.00    +0.000 N 
ATOM     28  C   UNL     1      19.973   0.548 196.513  0.00  0.00    +0.000 C 
ATOM     29  C   UNL     1      18.775   0.567 195.508  0.00  0.00    +0.000 C 
ATOM     30  O   UNL     1      18.402  -0.201 194.461  0.00  0.00    +0.000 OA
ATOM     31  C   UNL     1      19.431  -1.068 194.532  0.00  0.00    +0.000 C 
ATOM     32  C   UNL     1      20.690  -1.254 195.433  0.00  0.00    +0.000 C 
ENDBRANCH  26  27
ENDBRANCH  25  26
ENDBRANCH  23  24
ENDBRANCH   3  23
TORSDOF 6
ENDMDL
MODEL 8
REMARK VINA RESULT:      -6.9      5.226      8.553
REMARK  Name = Gefitinib.pdbqt.pdb
REMARK  6 active torsions:
REMARK  status: ('A' for Active; 'I' for Inactive)
REMARK    1  A    between atoms: C_3  and  O_11
REMARK    2  A    between atoms: C_6  and  O_21
REMARK    3  A    between atoms: O_11  and  C_12
REMARK    4  A    between atoms: C_13  and  C_14
REMARK    5  A    between atoms: C_14  and  N_15
REMARK    6  A    between atoms: N_23  and  C_25
REMARK                            x       y       z     vdW  Elec       q    Type
REMARK                         _______ _______ _______ _____ _____    ______ ____
ROOT
ATOM      1  N   UNL     1      23.747   0.906 192.882  0.00  0.00    +0.000 NA
ATOM      2  N   UNL     1      23.230   2.306 191.024  0.00  0.00    +0.000 NA
ATOM      3  C   UNL     1      27.456   2.733 193.337  0.00  0.00    +0.000 A 
ATOM      4  C   UNL     1      25.322   2.554 192.159  0.00  0.00    +0.000 A 
ATOM      5  C   UNL     1      26.583   3.150 192.331  0.00  0.00    +0.000 A 
ATOM      6  C   UNL     1      27.059   1.704 194.191  0.00  0.00    +0.000 A 
ATOM      7  C   UNL     1      24.926   1.516 193.006  0.00  0.00    +0.000 A 
ATOM      8  C   UNL     1      25.802   1.116 194.006  0.00  0.00    +0.000 A 
ATOM      9  C   UNL     1      24.411   2.931 191.162  0.00  0.00    +0.000 A 
ATOM     10  C   UNL     1      22.951   1.325 191.890  0.00  0.00    +0.000 A 
ATOM     11  N   UNL     1      24.769   3.964 190.258  0.00  0.00    +0.000 N 
ATOM     12  H   UNL     1      25.162   4.760 190.751  0.00  0.00    +0.000 HD
ENDROOT
BRANCH  11  13
ATOM     13  C   UNL     1      24.099   4.354 189.077  0.00  0.00    +0.000 A 
ATOM     14  C   UNL     1      22.755   4.738 189.156  0.00  0.00    +0.000 A 
ATOM     15  C   UNL     1      22.084   5.229 188.039  0.00  0.00    +0.000 A 
ATOM     16 CL   UNL     1      20.426   5.653 188.189  0.00  0.00    +0.000 Cl
ATOM     17  C   UNL     1      22.760   5.369 186.832  0.00  0.00    +0.000 A 
ATOM     18  F   UNL     1      22.131   5.840 185.745  0.00  0.00    +0.000 F 
ATOM     19  C   UNL     1      24.103   5.032 186.737  0.00  0.00    +0.000 A 
ATOM     20  C   UNL     1      24.766   4.544 187.862  0.00  0.00    +0.000 A 
ENDBRANCH  11  13
BRANCH   6  21
ATOM     21  O   UNL     1      27.949   1.323 195.167  0.00  0.00    +0.000 OA
ATOM     22  C   UNL     1      27.488   1.431 196.485  0.00  0.00    +0.000 C 
ENDBRANCH   6  21
BRANCH   3  23
ATOM     23  O   UNL     1      28.696   3.290 193.538  0.00  0.00    +0.000 OA
BRANCH  23  24
ATOM     24  C   UNL     1      29.304   3.708 192.430  0.00  0.00    +0.000 C 
ATOM     25  C   UNL     1      30.006   4.173 191.149  0.00  0.00    +0.000 C 
BRANCH  25  26
ATOM     26  C   UNL     1      30.709   4.604 189.858  0.00  0.00    +0.000 C 
BRANCH  26  27
ATOM     27  N   UNL     1      31.387   5.002 188.632  0.00  0.00    +0.000 N 
ATOM     28  C   UNL     1      32.622   4.165 188.535  0.00  0.00    +0.000 C 
ATOM     29  C   UNL     1      32.944   3.007 187.535  0.00  0.00    +0.000 C 
ATOM     30  O   UNL     1      32.278   2.418 186.518  0.00  0.00    +0.000 OA
ATOM     31  C   UNL     1      31.164   3.172 186.606  0.00  0.00    +0.000 C 
ATOM     32  C   UNL     1      30.662   4.341 187.506  0.00  0.00    +0.000 C 
ENDBRANCH  26  27
ENDBRANCH  25  26
ENDBRANCH  23  24
ENDBRANCH   3  23
TORSDOF 6
ENDMDL
MODEL 9
REMARK VINA RESULT:      -6.9      5.041      9.406
REMARK  Name = Gefitinib.pdbqt.pdb
REMARK  6 active torsions:
REMARK  status: ('A' for Active; 'I' for Inactive)
REMARK    1  A    between atoms: C_3  and  O_11
REMARK    2  A    between atoms: C_6  and  O_21
REMARK    3  A    between atoms: O_11  and  C_12
REMARK    4  A    between atoms: C_13  and  C_14
REMARK    5  A    between atoms: C_14  and  N_15
REMARK    6  A    between atoms: N_23  and  C_25
REMARK                            x       y       z     vdW  Elec       q    Type
REMARK                         _______ _______ _______ _____ _____    ______ ____
ROOT
ATOM      1  N   UNL     1      23.199  -0.926 192.996  0.00  0.00    +0.000 NA
ATOM      2  N   UNL     1      21.742   0.175 191.466  0.00  0.00    +0.000 NA
ATOM      3  C   UNL     1      21.106   0.627 196.239  0.00  0.00    +0.000 A 
ATOM      4  C   UNL     1      21.390   0.403 193.821  0.00  0.00    +0.000 A 
ATOM      5  C   UNL     1      20.705   0.919 194.935  0.00  0.00    +0.000 A 
ATOM      6  C   UNL     1      22.211  -0.201 196.435  0.00  0.00    +0.000 A 
ATOM      7  C   UNL     1      22.504  -0.418 194.014  0.00  0.00    +0.000 A 
ATOM      8  C   UNL     1      22.888  -0.705 195.317  0.00  0.00    +0.000 A 
ATOM      9  C   UNL     1      21.032   0.670 192.492  0.00  0.00    +0.000 A 
ATOM     10  C   UNL     1      22.790  -0.602 191.763  0.00  0.00    +0.000 A 
ATOM     11  N   UNL     1      19.923   1.516 192.235  0.00  0.00    +0.000 N 
ATOM     12  H   UNL     1      19.127   1.260 192.812  0.00  0.00    +0.000 HD
ENDROOT
BRANCH  11  13
ATOM     13  C   UNL     1      19.522   2.069 190.999  0.00  0.00    +0.000 A 
ATOM     14  C   UNL     1      20.158   3.228 190.538  0.00  0.00    +0.000 A 
ATOM     15  C   UNL     1      19.870   3.750 189.279  0.00  0.00    +0.000 A 
ATOM     16 CL   UNL     1      20.658   5.193 188.781  0.00  0.00    +0.000 Cl
ATOM     17  C   UNL     1      18.960   3.101 188.452  0.00  0.00    +0.000 A 
ATOM     18  F   UNL     1      18.670   3.588 187.237  0.00  0.00    +0.000 F 
ATOM     19  C   UNL     1      18.344   1.929 188.871  0.00  0.00    +0.000 A 
ATOM     20  C   UNL     1      18.642   1.413 190.131  0.00  0.00    +0.000 A 
ENDBRANCH  11  13
BRANCH   6  21
ATOM     21  O   UNL     1      22.573  -0.463 197.735  0.00  0.00    +0.000 OA
ATOM     22  C   UNL     1      23.868  -0.069 198.096  0.00  0.00    +0.000 C 
ENDBRANCH   6  21
BRANCH   3  23
ATOM     23  O   UNL     1      20.462   1.111 197.352  0.00  0.00    +0.000 OA
BRANCH  23  24
ATOM     24  C   UNL     1      19.237   0.626 197.542  0.00  0.00    +0.000 C 
ATOM     25  C   UNL     1      17.828   0.072 197.777  0.00  0.00    +0.000 C 
BRANCH  25  26
ATOM     26  C   UNL     1      16.418  -0.467 198.045  0.00  0.00    +0.000 C 
BRANCH  26  27
ATOM     27  N   UNL     1      15.074  -0.973 198.287  0.00  0.00    +0.000 N 
ATOM     28  C   UNL     1      14.949  -2.243 197.508  0.00  0.00    +0.000 C 
ATOM     29  C   UNL     1      14.866  -3.712 198.036  0.00  0.00    +0.000 C 
ATOM     30  O   UNL     1      14.886  -4.283 199.261  0.00  0.00    +0.000 OA
ATOM     31  C   UNL     1      15.000  -3.139 199.963  0.00  0.00    +0.000 C 
ATOM     32  C   UNL     1      15.095  -1.618 199.634  0.00  0.00    +0.000 C 
ENDBRANCH  26  27
ENDBRANCH  25  26
ENDBRANCH  23  24
ENDBRANCH   3  23
TORSDOF 6
ENDMDL
