MODEL 1
REMARK VINA RESULT:      -8.5      0.000      0.000
REMARK  Name = Genistein.pdbqt.pdb
REMARK  4 active torsions:
REMARK  status: ('A' for Active; 'I' for Inactive)
REMARK    1  A    between atoms: C_4  and  C_12
REMARK    2  A    between atoms: C_7  and  O_20
REMARK    3  A    between atoms: C_11  and  O_22
REMARK    4  A    between atoms: C_17  and  O_18
REMARK                            x       y       z     vdW  Elec       q    Type
REMARK                         _______ _______ _______ _____ _____    ______ ____
ROOT
ATOM      1  O   UNL     1      18.320   2.891 187.355  0.00  0.00    +0.000 OA
ATOM      2  O   UNL     1      22.467   2.354 187.513  0.00  0.00    +0.000 OA
ATOM      3  C   UNL     1      20.340   2.065 188.538  0.00  0.00    +0.000 A 
ATOM      4  C   UNL     1      20.572   3.195 186.274  0.00  0.00    +0.000 A 
ATOM      5  C   UNL     1      18.932   2.269 188.441  0.00  0.00    +0.000 A 
ATOM      6  C   UNL     1      21.257   2.529 187.430  0.00  0.00    +0.000 A 
ATOM      7  C   UNL     1      20.863   1.430 189.668  0.00  0.00    +0.000 A 
ATOM      8  C   UNL     1      19.301   3.207 186.527  0.00  0.00    +0.000 A 
ATOM      9  C   UNL     1      18.088   1.842 189.463  0.00  0.00    +0.000 A 
ATOM     10  C   UNL     1      20.011   1.005 190.686  0.00  0.00    +0.000 A 
ATOM     11  C   UNL     1      18.638   1.212 190.574  0.00  0.00    +0.000 A 
ENDROOT
BRANCH   4  12
ATOM     12  C   UNL     1      21.206   3.738 185.075  0.00  0.00    +0.000 A 
ATOM     13  C   UNL     1      20.874   3.262 183.803  0.00  0.00    +0.000 A 
ATOM     14  C   UNL     1      22.163   4.755 185.174  0.00  0.00    +0.000 A 
ATOM     15  C   UNL     1      21.478   3.780 182.659  0.00  0.00    +0.000 A 
ATOM     16  C   UNL     1      22.775   5.282 184.038  0.00  0.00    +0.000 A 
ATOM     17  C   UNL     1      22.426   4.788 182.788  0.00  0.00    +0.000 A 
BRANCH  17  18
ATOM     18  O   UNL     1      23.035   5.317 181.688  0.00  0.00    +0.000 OA
ATOM     19  H   UNL     1      23.967   5.036 181.692  0.00  0.00    +0.000 HD
ENDBRANCH  17  18
ENDBRANCH   4  12
BRANCH   7  20
ATOM     20  O   UNL     1      22.199   1.191 189.847  0.00  0.00    +0.000 OA
ATOM     21  H   UNL     1      22.316   0.257 190.136  0.00  0.00    +0.000 HD
ENDBRANCH   7  20
BRANCH  11  22
ATOM     22  O   UNL     1      17.794   0.800 191.565  0.00  0.00    +0.000 OA
ATOM     23  H   UNL     1      17.305   0.022 191.243  0.00  0.00    +0.000 HD
ENDBRANCH  11  22
TORSDOF 4
ENDMDL
MODEL 2
REMARK VINA RESULT:      -8.1      1.460      2.681
REMARK  Name = Genistein.pdbqt.pdb
REMARK  4 active torsions:
REMARK  status: ('A' for Active; 'I' for Inactive)
REMARK    1  A    between atoms: C_4  and  C_12
REMARK    2  A    between atoms: C_7  and  O_20
REMARK    3  A    between atoms: C_11  and  O_22
REMARK    4  A    between atoms: C_17  and  O_18
REMARK                            x       y       z     vdW  Elec       q    Type
REMARK                         _______ _______ _______ _____ _____    ______ ____
ROOT
ATOM      1  O   UNL     1      21.282   2.913 190.429  0.00  0.00    +0.000 OA
ATOM      2  O   UNL     1      18.403   2.481 187.423  0.00  0.00    +0.000 OA
ATOM      3  C   UNL     1      19.035   2.157 189.693  0.00  0.00    +0.000 A 
ATOM      4  C   UNL     1      20.611   3.253 188.029  0.00  0.00    +0.000 A 
ATOM      5  C   UNL     1      20.045   2.325 190.686  0.00  0.00    +0.000 A 
ATOM      6  C   UNL     1      19.272   2.625 188.276  0.00  0.00    +0.000 A 
ATOM      7  C   UNL     1      17.823   1.556 190.046  0.00  0.00    +0.000 A 
ATOM      8  C   UNL     1      21.263   3.237 189.147  0.00  0.00    +0.000 A 
ATOM      9  C   UNL     1      19.827   1.893 191.991  0.00  0.00    +0.000 A 
ATOM     10  C   UNL     1      17.612   1.127 191.355  0.00  0.00    +0.000 A 
ATOM     11  C   UNL     1      18.611   1.299 192.311  0.00  0.00    +0.000 A 
ENDROOT
BRANCH   4  12
ATOM     12  C   UNL     1      21.106   3.790 186.763  0.00  0.00    +0.000 A 
ATOM     13  C   UNL     1      20.880   3.120 185.557  0.00  0.00    +0.000 A 
ATOM     14  C   UNL     1      21.820   4.993 186.731  0.00  0.00    +0.000 A 
ATOM     15  C   UNL     1      21.352   3.632 184.349  0.00  0.00    +0.000 A 
ATOM     16  C   UNL     1      22.298   5.516 185.530  0.00  0.00    +0.000 A 
ATOM     17  C   UNL     1      22.059   4.828 184.347  0.00  0.00    +0.000 A 
BRANCH  17  18
ATOM     18  O   UNL     1      22.534   5.356 183.182  0.00  0.00    +0.000 OA
ATOM     19  H   UNL     1      22.502   6.327 183.252  0.00  0.00    +0.000 HD
ENDBRANCH  17  18
ENDBRANCH   4  12
BRANCH   7  20
ATOM     20  O   UNL     1      16.798   1.354 189.162  0.00  0.00    +0.000 OA
ATOM     21  H   UNL     1      16.991   1.854 188.336  0.00  0.00    +0.000 HD
ENDBRANCH   7  20
BRANCH  11  22
ATOM     22  O   UNL     1      18.415   0.883 193.597  0.00  0.00    +0.000 OA
ATOM     23  H   UNL     1      19.041   1.361 194.169  0.00  0.00    +0.000 HD
ENDBRANCH  11  22
TORSDOF 4
ENDMDL
MODEL 3
REMARK VINA RESULT:      -7.7      2.377      8.006
REMARK  Name = Genistein.pdbqt.pdb
REMARK  4 active torsions:
REMARK  status: ('A' for Active; 'I' for Inactive)
REMARK    1  A    between atoms: C_4  and  C_12
REMARK    2  A    between atoms: C_7  and  O_20
REMARK    3  A    between atoms: C_11  and  O_22
REMARK    4  A    between atoms: C_17  and  O_18
REMARK                            x       y       z     vdW  Elec       q    Type
REMARK                         _______ _______ _______ _____ _____    ______ ____
ROOT
ATOM      1  O   UNL     1      21.865   1.804 189.510  0.00  0.00    +0.000 OA
ATOM      2  O   UNL     1      17.762   1.265 190.126  0.00  0.00    +0.000 OA
ATOM      3  C   UNL     1      19.520   2.054 188.733  0.00  0.00    +0.000 A 
ATOM      4  C   UNL     1      20.002   0.970 190.980  0.00  0.00    +0.000 A 
ATOM      5  C   UNL     1      20.927   2.218 188.566  0.00  0.00    +0.000 A 
ATOM      6  C   UNL     1      18.971   1.405 189.982  0.00  0.00    +0.000 A 
ATOM      7  C   UNL     1      18.656   2.501 187.730  0.00  0.00    +0.000 A 
ATOM      8  C   UNL     1      21.165   1.275 190.499  0.00  0.00    +0.000 A 
ATOM      9  C   UNL     1      21.434   2.816 187.415  0.00  0.00    +0.000 A 
ATOM     10  C   UNL     1      19.171   3.100 186.581  0.00  0.00    +0.000 A 
ATOM     11  C   UNL     1      20.548   3.251 186.434  0.00  0.00    +0.000 A 
ENDROOT
BRANCH   4  12
ATOM     12  C   UNL     1      19.757   0.320 192.266  0.00  0.00    +0.000 A 
ATOM     13  C   UNL     1      20.254  -0.958 192.536  0.00  0.00    +0.000 A 
ATOM     14  C   UNL     1      19.016   0.969 193.261  0.00  0.00    +0.000 A 
ATOM     15  C   UNL     1      20.022  -1.577 193.762  0.00  0.00    +0.000 A 
ATOM     16  C   UNL     1      18.775   0.360 194.492  0.00  0.00    +0.000 A 
ATOM     17  C   UNL     1      19.282  -0.910 194.732  0.00  0.00    +0.000 A 
BRANCH  17  18
ATOM     18  O   UNL     1      19.037  -1.489 195.943  0.00  0.00    +0.000 OA
ATOM     19  H   UNL     1      19.673  -1.129 196.587  0.00  0.00    +0.000 HD
ENDBRANCH  17  18
ENDBRANCH   4  12
BRANCH   7  20
ATOM     20  O   UNL     1      17.294   2.387 187.803  0.00  0.00    +0.000 OA
ATOM     21  H   UNL     1      17.036   1.489 187.494  0.00  0.00    +0.000 HD
ENDBRANCH   7  20
BRANCH  11  22
ATOM     22  O   UNL     1      21.064   3.835 185.314  0.00  0.00    +0.000 OA
ATOM     23  H   UNL     1      20.352   4.337 184.878  0.00  0.00    +0.000 HD
ENDBRANCH  11  22
TORSDOF 4
ENDMDL
MODEL 4
REMARK VINA RESULT:      -7.4      2.660      4.339
REMARK  Name = Genistein.pdbqt.pdb
REMARK  4 active torsions:
REMARK  status: ('A' for Active; 'I' for Inactive)
REMARK    1  A    between atoms: C_4  and  C_12
REMARK    2  A    between atoms: C_7  and  O_20
REMARK    3  A    between atoms: C_11  and  O_22
REMARK    4  A    between atoms: C_17  and  O_18
REMARK                            x       y       z     vdW  Elec       q    Type
REMARK                         _______ _______ _______ _____ _____    ______ ____
ROOT
ATOM      1  O   UNL     1      22.032   2.783 192.528  0.00  0.00    +0.000 OA
ATOM      2  O   UNL     1      18.901   2.276 189.798  0.00  0.00    +0.000 OA
ATOM      3  C   UNL     1      19.781   1.893 191.974  0.00  0.00    +0.000 A 
ATOM      4  C   UNL     1      21.097   3.186 190.227  0.00  0.00    +0.000 A 
ATOM      5  C   UNL     1      20.873   2.090 192.871  0.00  0.00    +0.000 A 
ATOM      6  C   UNL     1      19.839   2.445 190.569  0.00  0.00    +0.000 A 
ATOM      7  C   UNL     1      18.658   1.185 192.409  0.00  0.00    +0.000 A 
ATOM      8  C   UNL     1      21.860   3.166 191.274  0.00  0.00    +0.000 A 
ATOM      9  C   UNL     1      20.819   1.581 194.166  0.00  0.00    +0.000 A 
ATOM     10  C   UNL     1      18.612   0.678 193.707  0.00  0.00    +0.000 A 
ATOM     11  C   UNL     1      19.688   0.880 194.570  0.00  0.00    +0.000 A 
ENDROOT
BRANCH   4  12
ATOM     12  C   UNL     1      21.422   3.819 188.950  0.00  0.00    +0.000 A 
ATOM     13  C   UNL     1      22.244   3.181 188.016  0.00  0.00    +0.000 A 
ATOM     14  C   UNL     1      20.913   5.083 188.633  0.00  0.00    +0.000 A 
ATOM     15  C   UNL     1      22.553   3.784 186.799  0.00  0.00    +0.000 A 
ATOM     16  C   UNL     1      21.215   5.698 187.419  0.00  0.00    +0.000 A 
ATOM     17  C   UNL     1      22.034   5.041 186.510  0.00  0.00    +0.000 A 
BRANCH  17  18
ATOM     18  O   UNL     1      22.318   5.658 185.327  0.00  0.00    +0.000 OA
ATOM     19  H   UNL     1      23.075   6.254 185.469  0.00  0.00    +0.000 HD
ENDBRANCH  17  18
ENDBRANCH   4  12
BRANCH   7  20
ATOM     20  O   UNL     1      17.565   0.947 191.620  0.00  0.00    +0.000 OA
ATOM     21  H   UNL     1      16.833   1.537 191.909  0.00  0.00    +0.000 HD
ENDBRANCH   7  20
BRANCH  11  22
ATOM     22  O   UNL     1      19.654   0.389 195.843  0.00  0.00    +0.000 OA
ATOM     23  H   UNL     1      18.855   0.734 196.281  0.00  0.00    +0.000 HD
ENDBRANCH  11  22
TORSDOF 4
ENDMDL
MODEL 5
REMARK VINA RESULT:      -7.3      2.582      3.841
REMARK  Name = Genistein.pdbqt.pdb
REMARK  4 active torsions:
REMARK  status: ('A' for Active; 'I' for Inactive)
REMARK    1  A    between atoms: C_4  and  C_12
REMARK    2  A    between atoms: C_7  and  O_20
REMARK    3  A    between atoms: C_11  and  O_22
REMARK    4  A    between atoms: C_17  and  O_18
REMARK                            x       y       z     vdW  Elec       q    Type
REMARK                         _______ _______ _______ _____ _____    ______ ____
ROOT
ATOM      1  O   UNL     1      18.444   1.708 190.761  0.00  0.00    +0.000 OA
ATOM      2  O   UNL     1      22.241   3.350 191.383  0.00  0.00    +0.000 OA
ATOM      3  C   UNL     1      20.399   2.112 192.236  0.00  0.00    +0.000 A 
ATOM      4  C   UNL     1      20.395   3.018 189.862  0.00  0.00    +0.000 A 
ATOM      5  C   UNL     1      19.105   1.569 191.979  0.00  0.00    +0.000 A 
ATOM      6  C   UNL     1      21.130   2.884 191.162  0.00  0.00    +0.000 A 
ATOM      7  C   UNL     1      20.984   1.920 193.491  0.00  0.00    +0.000 A 
ATOM      8  C   UNL     1      19.259   2.408 189.990  0.00  0.00    +0.000 A 
ATOM      9  C   UNL     1      18.432   0.858 192.969  0.00  0.00    +0.000 A 
ATOM     10  C   UNL     1      20.304   1.207 194.476  0.00  0.00    +0.000 A 
ATOM     11  C   UNL     1      19.041   0.684 194.207  0.00  0.00    +0.000 A 
ENDROOT
BRANCH   4  12
ATOM     12  C   UNL     1      20.858   3.709 188.661  0.00  0.00    +0.000 A 
ATOM     13  C   UNL     1      20.950   5.102 188.619  0.00  0.00    +0.000 A 
ATOM     14  C   UNL     1      21.224   2.984 187.520  0.00  0.00    +0.000 A 
ATOM     15  C   UNL     1      21.392   5.762 187.474  0.00  0.00    +0.000 A 
ATOM     16  C   UNL     1      21.668   3.631 186.367  0.00  0.00    +0.000 A 
ATOM     17  C   UNL     1      21.748   5.017 186.355  0.00  0.00    +0.000 A 
BRANCH  17  18
ATOM     18  O   UNL     1      22.186   5.632 185.218  0.00  0.00    +0.000 OA
ATOM     19  H   UNL     1      23.007   6.111 185.428  0.00  0.00    +0.000 HD
ENDBRANCH  17  18
ENDBRANCH   4  12
BRANCH   7  20
ATOM     20  O   UNL     1      22.220   2.403 193.827  0.00  0.00    +0.000 OA
ATOM     21  H   UNL     1      22.599   2.869 193.047  0.00  0.00    +0.000 HD
ENDBRANCH   7  20
BRANCH  11  22
ATOM     22  O   UNL     1      18.365  -0.017 195.165  0.00  0.00    +0.000 OA
ATOM     23  H   UNL     1      17.653  -0.518 194.729  0.00  0.00    +0.000 HD
ENDBRANCH  11  22
TORSDOF 4
ENDMDL
MODEL 6
REMARK VINA RESULT:      -6.9      2.526      3.591
REMARK  Name = Genistein.pdbqt.pdb
REMARK  4 active torsions:
REMARK  status: ('A' for Active; 'I' for Inactive)
REMARK    1  A    between atoms: C_4  and  C_12
REMARK    2  A    between atoms: C_7  and  O_20
REMARK    3  A    between atoms: C_11  and  O_22
REMARK    4  A    between atoms: C_17  and  O_18
REMARK                            x       y       z     vdW  Elec       q    Type
REMARK                         _______ _______ _______ _____ _____    ______ ____
ROOT
ATOM      1  O   UNL     1      20.642   1.412 190.221  0.00  0.00    +0.000 OA
ATOM      2  O   UNL     1      24.542   1.513 188.710  0.00  0.00    +0.000 OA
ATOM      3  C   UNL     1      23.006   0.661 190.312  0.00  0.00    +0.000 A 
ATOM      4  C   UNL     1      22.270   2.311 188.527  0.00  0.00    +0.000 A 
ATOM      5  C   UNL     1      21.663   0.657 190.794  0.00  0.00    +0.000 A 
ATOM      6  C   UNL     1      23.388   1.510 189.123  0.00  0.00    +0.000 A 
ATOM      7  C   UNL     1      23.964  -0.131 190.953  0.00  0.00    +0.000 A 
ATOM      8  C   UNL     1      21.201   2.063 189.215  0.00  0.00    +0.000 A 
ATOM      9  C   UNL     1      21.311  -0.125 191.890  0.00  0.00    +0.000 A 
ATOM     10  C   UNL     1      23.604  -0.911 192.050  0.00  0.00    +0.000 A 
ATOM     11  C   UNL     1      22.287  -0.902 192.506  0.00  0.00    +0.000 A 
ENDROOT
BRANCH   4  12
ATOM     12  C   UNL     1      22.352   3.213 187.380  0.00  0.00    +0.000 A 
ATOM     13  C   UNL     1      23.287   4.252 187.344  0.00  0.00    +0.000 A 
ATOM     14  C   UNL     1      21.494   3.054 186.286  0.00  0.00    +0.000 A 
ATOM     15  C   UNL     1      23.367   5.112 186.251  0.00  0.00    +0.000 A 
ATOM     16  C   UNL     1      21.562   3.908 185.186  0.00  0.00    +0.000 A 
ATOM     17  C   UNL     1      22.501   4.931 185.178  0.00  0.00    +0.000 A 
BRANCH  17  18
ATOM     18  O   UNL     1      22.553   5.756 184.093  0.00  0.00    +0.000 OA
ATOM     19  H   UNL     1      23.210   5.398 183.470  0.00  0.00    +0.000 HD
ENDBRANCH  17  18
ENDBRANCH   4  12
BRANCH   7  20
ATOM     20  O   UNL     1      25.274  -0.191 190.562  0.00  0.00    +0.000 OA
ATOM     21  H   UNL     1      25.583   0.720 190.353  0.00  0.00    +0.000 HD
ENDBRANCH   7  20
BRANCH  11  22
ATOM     22  O   UNL     1      21.922  -1.663 193.579  0.00  0.00    +0.000 OA
ATOM     23  H   UNL     1      20.954  -1.620 193.667  0.00  0.00    +0.000 HD
ENDBRANCH  11  22
TORSDOF 4
ENDMDL
MODEL 7
REMARK VINA RESULT:      -6.6      3.097      5.270
REMARK  Name = Genistein.pdbqt.pdb
REMARK  4 active torsions:
REMARK  status: ('A' for Active; 'I' for Inactive)
REMARK    1  A    between atoms: C_4  and  C_12
REMARK    2  A    between atoms: C_7  and  O_20
REMARK    3  A    between atoms: C_11  and  O_22
REMARK    4  A    between atoms: C_17  and  O_18
REMARK                            x       y       z     vdW  Elec       q    Type
REMARK                         _______ _______ _______ _____ _____    ______ ____
ROOT
ATOM      1  O   UNL     1      18.409   0.945 193.021  0.00  0.00    +0.000 OA
ATOM      2  O   UNL     1      22.114   0.249 191.206  0.00  0.00    +0.000 OA
ATOM      3  C   UNL     1      20.593  -0.234 192.969  0.00  0.00    +0.000 A 
ATOM      4  C   UNL     1      20.020   1.452 191.157  0.00  0.00    +0.000 A 
ATOM      5  C   UNL     1      19.320   0.035 193.553  0.00  0.00    +0.000 A 
ATOM      6  C   UNL     1      21.020   0.480 191.708  0.00  0.00    +0.000 A 
ATOM      7  C   UNL     1      21.441  -1.165 193.575  0.00  0.00    +0.000 A 
ATOM      8  C   UNL     1      18.988   1.438 191.940  0.00  0.00    +0.000 A 
ATOM      9  C   UNL     1      18.927  -0.623 194.716  0.00  0.00    +0.000 A 
ATOM     10  C   UNL     1      21.040  -1.819 194.739  0.00  0.00    +0.000 A 
ATOM     11  C   UNL     1      19.793  -1.544 195.296  0.00  0.00    +0.000 A 
ENDROOT
BRANCH   4  12
ATOM     12  C   UNL     1      20.167   2.276 189.959  0.00  0.00    +0.000 A 
ATOM     13  C   UNL     1      19.522   1.937 188.766  0.00  0.00    +0.000 A 
ATOM     14  C   UNL     1      20.960   3.429 189.981  0.00  0.00    +0.000 A 
ATOM     15  C   UNL     1      19.661   2.723 187.623  0.00  0.00    +0.000 A 
ATOM     16  C   UNL     1      21.109   4.223 188.845  0.00  0.00    +0.000 A 
ATOM     17  C   UNL     1      20.456   3.862 187.674  0.00  0.00    +0.000 A 
BRANCH  17  18
ATOM     18  O   UNL     1      20.613   4.652 186.572  0.00  0.00    +0.000 OA
ATOM     19  H   UNL     1      20.701   4.075 185.793  0.00  0.00    +0.000 HD
ENDBRANCH  17  18
ENDBRANCH   4  12
BRANCH   7  20
ATOM     20  O   UNL     1      22.678  -1.487 193.087  0.00  0.00    +0.000 OA
ATOM     21  H   UNL     1      22.625  -1.543 192.105  0.00  0.00    +0.000 HD
ENDBRANCH   7  20
BRANCH  11  22
ATOM     22  O   UNL     1      19.390  -2.179 196.435  0.00  0.00    +0.000 OA
ATOM     23  H   UNL     1      19.505  -3.137 196.306  0.00  0.00    +0.000 HD
ENDBRANCH  11  22
TORSDOF 4
ENDMDL
MODEL 8
REMARK VINA RESULT:      -6.6      3.971      8.762
REMARK  Name = Genistein.pdbqt.pdb
REMARK  4 active torsions:
REMARK  status: ('A' for Active; 'I' for Inactive)
REMARK    1  A    between atoms: C_4  and  C_12
REMARK    2  A    between atoms: C_7  and  O_20
REMARK    3  A    between atoms: C_11  and  O_22
REMARK    4  A    between atoms: C_17  and  O_18
REMARK                            x       y       z     vdW  Elec       q    Type
REMARK                         _______ _______ _______ _____ _____    ______ ____
ROOT
ATOM      1  O   UNL     1      23.401   2.594 192.211  0.00  0.00    +0.000 OA
ATOM      2  O   UNL     1      19.331   2.773 191.257  0.00  0.00    +0.000 OA
ATOM      3  C   UNL     1      21.570   3.374 190.727  0.00  0.00    +0.000 A 
ATOM      4  C   UNL     1      21.031   1.960 192.768  0.00  0.00    +0.000 A 
ATOM      5  C   UNL     1      22.947   3.286 191.090  0.00  0.00    +0.000 A 
ATOM      6  C   UNL     1      20.514   2.698 191.569  0.00  0.00    +0.000 A 
ATOM      7  C   UNL     1      21.210   4.091 189.583  0.00  0.00    +0.000 A 
ATOM      8  C   UNL     1      22.319   2.094 192.784  0.00  0.00    +0.000 A 
ATOM      9  C   UNL     1      23.920   3.910 190.314  0.00  0.00    +0.000 A 
ATOM     10  C   UNL     1      22.190   4.713 188.811  0.00  0.00    +0.000 A 
ATOM     11  C   UNL     1      23.530   4.616 189.181  0.00  0.00    +0.000 A 
ENDROOT
BRANCH   4  12
ATOM     12  C   UNL     1      20.241   1.222 193.751  0.00  0.00    +0.000 A 
ATOM     13  C   UNL     1      19.181   0.400 193.356  0.00  0.00    +0.000 A 
ATOM     14  C   UNL     1      20.531   1.321 195.117  0.00  0.00    +0.000 A 
ATOM     15  C   UNL     1      18.428  -0.305 194.292  0.00  0.00    +0.000 A 
ATOM     16  C   UNL     1      19.784   0.622 196.064  0.00  0.00    +0.000 A 
ATOM     17  C   UNL     1      18.737  -0.187 195.642  0.00  0.00    +0.000 A 
BRANCH  17  18
ATOM     18  O   UNL     1      18.019  -0.864 196.584  0.00  0.00    +0.000 OA
ATOM     19  H   UNL     1      17.752  -1.720 196.206  0.00  0.00    +0.000 HD
ENDBRANCH  17  18
ENDBRANCH   4  12
BRANCH   7  20
ATOM     20  O   UNL     1      19.916   4.229 189.157  0.00  0.00    +0.000 OA
ATOM     21  H   UNL     1      19.862   3.945 188.216  0.00  0.00    +0.000 HD
ENDBRANCH   7  20
BRANCH  11  22
ATOM     22  O   UNL     1      24.499   5.220 188.433  0.00  0.00    +0.000 OA
ATOM     23  H   UNL     1      24.299   6.172 188.389  0.00  0.00    +0.000 HD
ENDBRANCH  11  22
TORSDOF 4
ENDMDL
MODEL 9
REMARK VINA RESULT:      -6.4      3.873      6.456
REMARK  Name = Genistein.pdbqt.pdb
REMARK  4 active torsions:
REMARK  status: ('A' for Active; 'I' for Inactive)
REMARK    1  A    between atoms: C_4  and  C_12
REMARK    2  A    between atoms: C_7  and  O_20
REMARK    3  A    between atoms: C_11  and  O_22
REMARK    4  A    between atoms: C_17  and  O_18
REMARK                            x       y       z     vdW  Elec       q    Type
REMARK                         _______ _______ _______ _____ _____    ______ ____
ROOT
ATOM      1  O   UNL     1      24.104   3.876 191.003  0.00  0.00    +0.000 OA
ATOM      2  O   UNL     1      23.481   0.764 188.277  0.00  0.00    +0.000 OA
ATOM      3  C   UNL     1      24.979   1.970 189.675  0.00  0.00    +0.000 A 
ATOM      4  C   UNL     1      22.522   2.597 189.523  0.00  0.00    +0.000 A 
ATOM      5  C   UNL     1      25.146   3.042 190.601  0.00  0.00    +0.000 A 
ATOM      6  C   UNL     1      23.624   1.685 189.073  0.00  0.00    +0.000 A 
ATOM      7  C   UNL     1      26.084   1.186 189.331  0.00  0.00    +0.000 A 
ATOM      8  C   UNL     1      23.034   3.446 190.358  0.00  0.00    +0.000 A 
ATOM      9  C   UNL     1      26.396   3.305 191.155  0.00  0.00    +0.000 A 
ATOM     10  C   UNL     1      27.332   1.456 189.891  0.00  0.00    +0.000 A 
ATOM     11  C   UNL     1      27.476   2.507 190.794  0.00  0.00    +0.000 A 
ENDROOT
BRANCH   4  12
ATOM     12  C   UNL     1      21.122   2.553 189.106  0.00  0.00    +0.000 A 
ATOM     13  C   UNL     1      20.180   1.806 189.817  0.00  0.00    +0.000 A 
ATOM     14  C   UNL     1      20.693   3.265 187.979  0.00  0.00    +0.000 A 
ATOM     15  C   UNL     1      18.845   1.764 189.421  0.00  0.00    +0.000 A 
ATOM     16  C   UNL     1      19.360   3.231 187.571  0.00  0.00    +0.000 A 
ATOM     17  C   UNL     1      18.446   2.480 188.297  0.00  0.00    +0.000 A 
BRANCH  17  18
ATOM     18  O   UNL     1      17.147   2.460 187.883  0.00  0.00    +0.000 OA
ATOM     19  H   UNL     1      16.610   2.048 188.583  0.00  0.00    +0.000 HD
ENDBRANCH  17  18
ENDBRANCH   4  12
BRANCH   7  20
ATOM     20  O   UNL     1      26.020   0.138 188.453  0.00  0.00    +0.000 OA
ATOM     21  H   UNL     1      25.085  -0.162 188.388  0.00  0.00    +0.000 HD
ENDBRANCH   7  20
BRANCH  11  22
ATOM     22  O   UNL     1      28.693   2.780 191.348  0.00  0.00    +0.000 OA
ATOM     23  H   UNL     1      29.132   3.455 190.800  0.00  0.00    +0.000 HD
ENDBRANCH  11  22
TORSDOF 4
ENDMDL
