MODEL 1
REMARK VINA RESULT:      -7.5      0.000      0.000
REMARK  Name = Hyoscyamine.pdbqt.pdb
REMARK  6 active torsions:
REMARK  status: ('A' for Active; 'I' for Inactive)
REMARK    1  A    between atoms: C_2  and  O_3
REMARK    2  A    between atoms: C_2  and  C_13
REMARK    3  A    between atoms: O_3  and  C_4
REMARK    4  A    between atoms: C_13  and  C_14
REMARK    5  A    between atoms: C_13  and  C_20
REMARK    6  A    between atoms: C_20  and  O_21
REMARK                            x       y       z     vdW  Elec       q    Type
REMARK                         _______ _______ _______ _____ _____    ______ ____
ROOT
ATOM      1  O   UNL     1      20.115   3.430 191.107  0.00  0.00    +0.000 OA
ATOM      2  C   UNL     1      19.819   2.319 190.682  0.00  0.00    +0.000 C 
ENDROOT
BRANCH   2   3
ATOM      3  O   UNL     1      19.997   1.126 191.319  0.00  0.00    +0.000 OA
BRANCH   3   4
ATOM      4  C   UNL     1      19.878   1.225 192.705  0.00  0.00    +0.000 C 
ATOM      5  C   UNL     1      21.026   1.015 193.569  0.00  0.00    +0.000 C 
ATOM      6  C   UNL     1      21.045   0.293 194.848  0.00  0.00    +0.000 C 
ATOM      7  N   UNL     1      20.147  -0.927 194.602  0.00  0.00    +0.000 NA
ATOM      8  C   UNL     1      20.379   1.014 195.919  0.00  0.00    +0.000 C 
ATOM      9  C   UNL     1      18.805  -0.179 194.629  0.00  0.00    +0.000 C 
ATOM     10  C   UNL     1      20.243  -1.896 195.704  0.00  0.00    +0.000 C 
ATOM     11  C   UNL     1      18.888   0.704 195.785  0.00  0.00    +0.000 C 
ATOM     12  C   UNL     1      18.771   0.546 193.349  0.00  0.00    +0.000 C 
ENDBRANCH   3   4
ENDBRANCH   2   3
BRANCH   2  13
ATOM     13  C   UNL     1      19.230   2.101 189.327  0.00  0.00    +0.000 C 
BRANCH  13  14
ATOM     14  C   UNL     1      19.927   2.426 188.069  0.00  0.00    +0.000 A 
ATOM     15  C   UNL     1      21.296   2.170 187.933  0.00  0.00    +0.000 A 
ATOM     16  C   UNL     1      21.975   2.505 186.762  0.00  0.00    +0.000 A 
ATOM     17  C   UNL     1      21.292   3.110 185.713  0.00  0.00    +0.000 A 
ATOM     18  C   UNL     1      19.934   3.381 185.835  0.00  0.00    +0.000 A 
ATOM     19  C   UNL     1      19.260   3.044 187.008  0.00  0.00    +0.000 A 
ENDBRANCH  13  14
BRANCH  13  20
ATOM     20  C   UNL     1      17.942   1.480 189.275  0.00  0.00    +0.000 C 
BRANCH  20  21
ATOM     21  O   UNL     1      16.746   0.903 189.226  0.00  0.00    +0.000 OA
ATOM     22  H   UNL     1      16.680   0.321 188.449  0.00  0.00    +0.000 HD
ENDBRANCH  20  21
ENDBRANCH  13  20
ENDBRANCH   2  13
TORSDOF 6
ENDMDL
MODEL 2
REMARK VINA RESULT:      -7.1      3.113      4.365
REMARK  Name = Hyoscyamine.pdbqt.pdb
REMARK  6 active torsions:
REMARK  status: ('A' for Active; 'I' for Inactive)
REMARK    1  A    between atoms: C_2  and  O_3
REMARK    2  A    between atoms: C_2  and  C_13
REMARK    3  A    between atoms: O_3  and  C_4
REMARK    4  A    between atoms: C_13  and  C_14
REMARK    5  A    between atoms: C_13  and  C_20
REMARK    6  A    between atoms: C_20  and  O_21
REMARK                            x       y       z     vdW  Elec       q    Type
REMARK                         _______ _______ _______ _____ _____    ______ ____
ROOT
ATOM      1  O   UNL     1      19.781   3.065 191.521  0.00  0.00    +0.000 OA
ATOM      2  C   UNL     1      19.752   2.164 190.690  0.00  0.00    +0.000 C 
ENDROOT
BRANCH   2   3
ATOM      3  O   UNL     1      20.309   0.924 190.808  0.00  0.00    +0.000 OA
BRANCH   3   4
ATOM      4  C   UNL     1      21.702   0.946 190.750  0.00  0.00    +0.000 C 
ATOM      5  C   UNL     1      22.474   1.758 191.674  0.00  0.00    +0.000 C 
ATOM      6  C   UNL     1      23.668   2.555 191.360  0.00  0.00    +0.000 C 
ATOM      7  N   UNL     1      23.347   3.190 190.000  0.00  0.00    +0.000 NA
ATOM      8  C   UNL     1      24.844   1.741 191.102  0.00  0.00    +0.000 C 
ATOM      9  C   UNL     1      23.526   1.921 189.154  0.00  0.00    +0.000 C 
ATOM     10  C   UNL     1      24.334   4.220 189.641  0.00  0.00    +0.000 C 
ATOM     11  C   UNL     1      24.761   1.317 189.635  0.00  0.00    +0.000 C 
ATOM     12  C   UNL     1      22.333   1.115 189.456  0.00  0.00    +0.000 C 
ENDBRANCH   3   4
ENDBRANCH   2   3
BRANCH   2  13
ATOM     13  C   UNL     1      19.105   2.317 189.353  0.00  0.00    +0.000 C 
BRANCH  13  14
ATOM     14  C   UNL     1      19.710   3.055 188.229  0.00  0.00    +0.000 A 
ATOM     15  C   UNL     1      19.673   2.524 186.935  0.00  0.00    +0.000 A 
ATOM     16  C   UNL     1      20.273   3.193 185.869  0.00  0.00    +0.000 A 
ATOM     17  C   UNL     1      20.928   4.401 186.087  0.00  0.00    +0.000 A 
ATOM     18  C   UNL     1      20.983   4.937 187.369  0.00  0.00    +0.000 A 
ATOM     19  C   UNL     1      20.382   4.263 188.431  0.00  0.00    +0.000 A 
ENDBRANCH  13  14
BRANCH  13  20
ATOM     20  C   UNL     1      17.857   1.644 189.159  0.00  0.00    +0.000 C 
BRANCH  20  21
ATOM     21  O   UNL     1      16.698   1.020 188.977  0.00  0.00    +0.000 OA
ATOM     22  H   UNL     1      16.074   1.245 189.690  0.00  0.00    +0.000 HD
ENDBRANCH  20  21
ENDBRANCH  13  20
ENDBRANCH   2  13
TORSDOF 6
ENDMDL
MODEL 3
REMARK VINA RESULT:      -6.7      3.363      4.720
REMARK  Name = Hyoscyamine.pdbqt.pdb
REMARK  6 active torsions:
REMARK  status: ('A' for Active; 'I' for Inactive)
REMARK    1  A    between atoms: C_2  and  O_3
REMARK    2  A    between atoms: C_2  and  C_13
REMARK    3  A    between atoms: O_3  and  C_4
REMARK    4  A    between atoms: C_13  and  C_14
REMARK    5  A    between atoms: C_13  and  C_20
REMARK    6  A    between atoms: C_20  and  O_21
REMARK                            x       y       z     vdW  Elec       q    Type
REMARK                         _______ _______ _______ _____ _____    ______ ____
ROOT
ATOM      1  O   UNL     1      20.345   1.816 192.541  0.00  0.00    +0.000 OA
ATOM      2  C   UNL     1      20.433   1.559 191.346  0.00  0.00    +0.000 C 
ENDROOT
BRANCH   2   3
ATOM      3  O   UNL     1      21.455   0.903 190.723  0.00  0.00    +0.000 OA
BRANCH   3   4
ATOM      4  C   UNL     1      22.713   1.375 191.097  0.00  0.00    +0.000 C 
ATOM      5  C   UNL     1      23.272   2.570 190.490  0.00  0.00    +0.000 C 
ATOM      6  C   UNL     1      24.667   2.778 190.079  0.00  0.00    +0.000 C 
ATOM      7  N   UNL     1      25.074   1.440 189.447  0.00  0.00    +0.000 NA
ATOM      8  C   UNL     1      25.575   2.931 191.202  0.00  0.00    +0.000 C 
ATOM      9  C   UNL     1      25.198   0.645 190.756  0.00  0.00    +0.000 C 
ATOM     10  C   UNL     1      26.368   1.544 188.756  0.00  0.00    +0.000 C 
ATOM     11  C   UNL     1      25.938   1.517 191.658  0.00  0.00    +0.000 C 
ATOM     12  C   UNL     1      23.806   0.426 191.177  0.00  0.00    +0.000 C 
ENDBRANCH   3   4
ENDBRANCH   2   3
BRANCH   2  13
ATOM     13  C   UNL     1      19.405   1.982 190.349  0.00  0.00    +0.000 C 
BRANCH  13  14
ATOM     14  C   UNL     1      19.710   2.769 189.140  0.00  0.00    +0.000 A 
ATOM     15  C   UNL     1      20.239   4.060 189.253  0.00  0.00    +0.000 A 
ATOM     16  C   UNL     1      20.499   4.830 188.120  0.00  0.00    +0.000 A 
ATOM     17  C   UNL     1      20.222   4.319 186.856  0.00  0.00    +0.000 A 
ATOM     18  C   UNL     1      19.687   3.043 186.726  0.00  0.00    +0.000 A 
ATOM     19  C   UNL     1      19.429   2.278 187.863  0.00  0.00    +0.000 A 
ENDBRANCH  13  14
BRANCH  13  20
ATOM     20  C   UNL     1      18.066   1.528 190.570  0.00  0.00    +0.000 C 
BRANCH  20  21
ATOM     21  O   UNL     1      16.823   1.106 190.775  0.00  0.00    +0.000 OA
ATOM     22  H   UNL     1      16.476   1.462 191.612  0.00  0.00    +0.000 HD
ENDBRANCH  20  21
ENDBRANCH  13  20
ENDBRANCH   2  13
TORSDOF 6
ENDMDL
MODEL 4
REMARK VINA RESULT:      -6.7      2.204      3.446
REMARK  Name = Hyoscyamine.pdbqt.pdb
REMARK  6 active torsions:
REMARK  status: ('A' for Active; 'I' for Inactive)
REMARK    1  A    between atoms: C_2  and  O_3
REMARK    2  A    between atoms: C_2  and  C_13
REMARK    3  A    between atoms: O_3  and  C_4
REMARK    4  A    between atoms: C_13  and  C_14
REMARK    5  A    between atoms: C_13  and  C_20
REMARK    6  A    between atoms: C_20  and  O_21
REMARK                            x       y       z     vdW  Elec       q    Type
REMARK                         _______ _______ _______ _____ _____    ______ ____
ROOT
ATOM      1  O   UNL     1      23.018   0.299 190.505  0.00  0.00    +0.000 OA
ATOM      2  C   UNL     1      22.712   1.284 189.843  0.00  0.00    +0.000 C 
ENDROOT
BRANCH   2   3
ATOM      3  O   UNL     1      22.139   2.434 190.303  0.00  0.00    +0.000 OA
BRANCH   3   4
ATOM      4  C   UNL     1      21.085   2.201 191.186  0.00  0.00    +0.000 C 
ATOM      5  C   UNL     1      21.337   1.793 192.557  0.00  0.00    +0.000 C 
ATOM      6  C   UNL     1      20.594   0.788 193.328  0.00  0.00    +0.000 C 
ATOM      7  N   UNL     1      20.336  -0.340 192.320  0.00  0.00    +0.000 NA
ATOM      8  C   UNL     1      19.265   1.232 193.711  0.00  0.00    +0.000 C 
ATOM      9  C   UNL     1      19.243   0.377 191.513  0.00  0.00    +0.000 C 
ATOM     10  C   UNL     1      19.812  -1.544 192.983  0.00  0.00    +0.000 C 
ATOM     11  C   UNL     1      18.357   0.959 192.511  0.00  0.00    +0.000 C 
ATOM     12  C   UNL     1      19.976   1.385 190.732  0.00  0.00    +0.000 C 
ENDBRANCH   3   4
ENDBRANCH   2   3
BRANCH   2  13
ATOM     13  C   UNL     1      22.897   1.353 188.363  0.00  0.00    +0.000 C 
BRANCH  13  14
ATOM     14  C   UNL     1      22.034   2.143 187.465  0.00  0.00    +0.000 A 
ATOM     15  C   UNL     1      20.656   1.903 187.418  0.00  0.00    +0.000 A 
ATOM     16  C   UNL     1      19.833   2.616 186.548  0.00  0.00    +0.000 A 
ATOM     17  C   UNL     1      20.382   3.577 185.705  0.00  0.00    +0.000 A 
ATOM     18  C   UNL     1      21.750   3.822 185.732  0.00  0.00    +0.000 A 
ATOM     19  C   UNL     1      22.568   3.104 186.604  0.00  0.00    +0.000 A 
ENDBRANCH  13  14
BRANCH  13  20
ATOM     20  C   UNL     1      24.022   0.657 187.819  0.00  0.00    +0.000 C 
BRANCH  20  21
ATOM     21  O   UNL     1      25.067   0.011 187.314  0.00  0.00    +0.000 OA
ATOM     22  H   UNL     1      24.860  -0.332 186.426  0.00  0.00    +0.000 HD
ENDBRANCH  20  21
ENDBRANCH  13  20
ENDBRANCH   2  13
TORSDOF 6
ENDMDL
MODEL 5
REMARK VINA RESULT:      -6.1      3.762      4.832
REMARK  Name = Hyoscyamine.pdbqt.pdb
REMARK  6 active torsions:
REMARK  status: ('A' for Active; 'I' for Inactive)
REMARK    1  A    between atoms: C_2  and  O_3
REMARK    2  A    between atoms: C_2  and  C_13
REMARK    3  A    between atoms: O_3  and  C_4
REMARK    4  A    between atoms: C_13  and  C_14
REMARK    5  A    between atoms: C_13  and  C_20
REMARK    6  A    between atoms: C_20  and  O_21
REMARK                            x       y       z     vdW  Elec       q    Type
REMARK                         _______ _______ _______ _____ _____    ______ ____
ROOT
ATOM      1  O   UNL     1      22.150   0.927 191.115  0.00  0.00    +0.000 OA
ATOM      2  C   UNL     1      22.397   1.800 190.292  0.00  0.00    +0.000 C 
ENDROOT
BRANCH   2   3
ATOM      3  O   UNL     1      22.628   3.121 190.544  0.00  0.00    +0.000 OA
BRANCH   3   4
ATOM      4  C   UNL     1      23.749   3.334 191.346  0.00  0.00    +0.000 C 
ATOM      5  C   UNL     1      25.000   2.648 191.076  0.00  0.00    +0.000 C 
ATOM      6  C   UNL     1      25.918   2.068 192.066  0.00  0.00    +0.000 C 
ATOM      7  N   UNL     1      24.989   1.408 193.095  0.00  0.00    +0.000 NA
ATOM      8  C   UNL     1      26.639   3.071 192.830  0.00  0.00    +0.000 C 
ATOM      9  C   UNL     1      24.505   2.703 193.766  0.00  0.00    +0.000 C 
ATOM     10  C   UNL     1      25.742   0.565 194.035  0.00  0.00    +0.000 C 
ATOM     11  C   UNL     1      25.709   3.497 193.967  0.00  0.00    +0.000 C 
ATOM     12  C   UNL     1      23.581   3.293 192.785  0.00  0.00    +0.000 C 
ENDBRANCH   3   4
ENDBRANCH   2   3
BRANCH   2  13
ATOM     13  C   UNL     1      22.445   1.538 188.823  0.00  0.00    +0.000 C 
BRANCH  13  14
ATOM     14  C   UNL     1      21.572   2.208 187.841  0.00  0.00    +0.000 A 
ATOM     15  C   UNL     1      20.201   2.336 188.087  0.00  0.00    +0.000 A 
ATOM     16  C   UNL     1      19.358   2.935 187.152  0.00  0.00    +0.000 A 
ATOM     17  C   UNL     1      19.877   3.407 185.951  0.00  0.00    +0.000 A 
ATOM     18  C   UNL     1      21.236   3.278 185.686  0.00  0.00    +0.000 A 
ATOM     19  C   UNL     1      22.074   2.678 186.625  0.00  0.00    +0.000 A 
ENDBRANCH  13  14
BRANCH  13  20
ATOM     20  C   UNL     1      23.448   0.628 188.361  0.00  0.00    +0.000 C 
BRANCH  20  21
ATOM     21  O   UNL     1      24.380  -0.217 187.933  0.00  0.00    +0.000 OA
ATOM     22  H   UNL     1      24.691  -0.781 188.662  0.00  0.00    +0.000 HD
ENDBRANCH  20  21
ENDBRANCH  13  20
ENDBRANCH   2  13
TORSDOF 6
ENDMDL
MODEL 6
REMARK VINA RESULT:      -5.9      3.046      3.988
REMARK  Name = Hyoscyamine.pdbqt.pdb
REMARK  6 active torsions:
REMARK  status: ('A' for Active; 'I' for Inactive)
REMARK    1  A    between atoms: C_2  and  O_3
REMARK    2  A    between atoms: C_2  and  C_13
REMARK    3  A    between atoms: O_3  and  C_4
REMARK    4  A    between atoms: C_13  and  C_14
REMARK    5  A    between atoms: C_13  and  C_20
REMARK    6  A    between atoms: C_20  and  O_21
REMARK                            x       y       z     vdW  Elec       q    Type
REMARK                         _______ _______ _______ _____ _____    ______ ____
ROOT
ATOM      1  O   UNL     1      20.966  -2.034 192.377  0.00  0.00    +0.000 OA
ATOM      2  C   UNL     1      20.117  -1.193 192.645  0.00  0.00    +0.000 C 
ENDROOT
BRANCH   2   3
ATOM      3  O   UNL     1      19.202  -1.246 193.656  0.00  0.00    +0.000 OA
BRANCH   3   4
ATOM      4  C   UNL     1      19.705  -0.775 194.869  0.00  0.00    +0.000 C 
ATOM      5  C   UNL     1      20.167  -1.696 195.892  0.00  0.00    +0.000 C 
ATOM      6  C   UNL     1      19.948  -1.586 197.340  0.00  0.00    +0.000 C 
ATOM      7  N   UNL     1      18.495  -1.107 197.463  0.00  0.00    +0.000 NA
ATOM      8  C   UNL     1      20.725  -0.523 197.955  0.00  0.00    +0.000 C 
ATOM      9  C   UNL     1      18.739   0.345 197.023  0.00  0.00    +0.000 C 
ATOM     10  C   UNL     1      18.023  -1.174 198.854  0.00  0.00    +0.000 C 
ATOM     11  C   UNL     1      19.927   0.766 197.752  0.00  0.00    +0.000 C 
ATOM     12  C   UNL     1      18.956   0.249 195.571  0.00  0.00    +0.000 C 
ENDBRANCH   3   4
ENDBRANCH   2   3
BRANCH   2  13
ATOM     13  C   UNL     1      19.927   0.051 191.840  0.00  0.00    +0.000 C 
BRANCH  13  14
ATOM     14  C   UNL     1      20.892   1.166 191.815  0.00  0.00    +0.000 A 
ATOM     15  C   UNL     1      20.802   2.198 192.755  0.00  0.00    +0.000 A 
ATOM     16  C   UNL     1      21.685   3.277 192.721  0.00  0.00    +0.000 A 
ATOM     17  C   UNL     1      22.665   3.341 191.736  0.00  0.00    +0.000 A 
ATOM     18  C   UNL     1      22.761   2.329 190.788  0.00  0.00    +0.000 A 
ATOM     19  C   UNL     1      21.876   1.253 190.827  0.00  0.00    +0.000 A 
ENDBRANCH  13  14
BRANCH  13  20
ATOM     20  C   UNL     1      18.767   0.109 191.005  0.00  0.00    +0.000 C 
BRANCH  20  21
ATOM     21  O   UNL     1      17.689   0.164 190.229  0.00  0.00    +0.000 OA
ATOM     22  H   UNL     1      17.687   0.985 189.705  0.00  0.00    +0.000 HD
ENDBRANCH  20  21
ENDBRANCH  13  20
ENDBRANCH   2  13
TORSDOF 6
ENDMDL
MODEL 7
REMARK VINA RESULT:      -5.6      2.316      3.754
REMARK  Name = Hyoscyamine.pdbqt.pdb
REMARK  6 active torsions:
REMARK  status: ('A' for Active; 'I' for Inactive)
REMARK    1  A    between atoms: C_2  and  O_3
REMARK    2  A    between atoms: C_2  and  C_13
REMARK    3  A    between atoms: O_3  and  C_4
REMARK    4  A    between atoms: C_13  and  C_14
REMARK    5  A    between atoms: C_13  and  C_20
REMARK    6  A    between atoms: C_20  and  O_21
REMARK                            x       y       z     vdW  Elec       q    Type
REMARK                         _______ _______ _______ _____ _____    ______ ____
ROOT
ATOM      1  O   UNL     1      19.516  -1.817 192.405  0.00  0.00    +0.000 OA
ATOM      2  C   UNL     1      19.931  -0.713 192.736  0.00  0.00    +0.000 C 
ENDROOT
BRANCH   2   3
ATOM      3  O   UNL     1      20.406  -0.351 193.964  0.00  0.00    +0.000 OA
BRANCH   3   4
ATOM      4  C   UNL     1      19.514  -0.637 194.998  0.00  0.00    +0.000 C 
ATOM      5  C   UNL     1      18.631   0.388 195.526  0.00  0.00    +0.000 C 
ATOM      6  C   UNL     1      18.290   0.615 196.936  0.00  0.00    +0.000 C 
ATOM      7  N   UNL     1      19.617   0.411 197.680  0.00  0.00    +0.000 NA
ATOM      8  C   UNL     1      17.416  -0.410 197.482  0.00  0.00    +0.000 C 
ATOM      9  C   UNL     1      19.665  -1.120 197.560  0.00  0.00    +0.000 C 
ATOM     10  C   UNL     1      19.517   0.838 199.084  0.00  0.00    +0.000 C 
ATOM     11  C   UNL     1      18.322  -1.568 197.904  0.00  0.00    +0.000 C 
ATOM     12  C   UNL     1      20.011  -1.360 196.151  0.00  0.00    +0.000 C 
ENDBRANCH   3   4
ENDBRANCH   2   3
BRANCH   2  13
ATOM     13  C   UNL     1      19.941   0.459 191.811  0.00  0.00    +0.000 C 
BRANCH  13  14
ATOM     14  C   UNL     1      21.019   0.729 190.842  0.00  0.00    +0.000 A 
ATOM     15  C   UNL     1      20.734   1.365 189.628  0.00  0.00    +0.000 A 
ATOM     16  C   UNL     1      21.737   1.593 188.686  0.00  0.00    +0.000 A 
ATOM     17  C   UNL     1      23.039   1.180 188.945  0.00  0.00    +0.000 A 
ATOM     18  C   UNL     1      23.338   0.538 190.142  0.00  0.00    +0.000 A 
ATOM     19  C   UNL     1      22.331   0.312 191.079  0.00  0.00    +0.000 A 
ENDBRANCH  13  14
BRANCH  13  20
ATOM     20  C   UNL     1      18.796   1.317 191.842  0.00  0.00    +0.000 C 
BRANCH  20  21
ATOM     21  O   UNL     1      17.732   2.113 191.871  0.00  0.00    +0.000 OA
ATOM     22  H   UNL     1      17.681   2.643 191.056  0.00  0.00    +0.000 HD
ENDBRANCH  20  21
ENDBRANCH  13  20
ENDBRANCH   2  13
TORSDOF 6
ENDMDL
MODEL 8
REMARK VINA RESULT:      -5.5     34.353     37.012
REMARK  Name = Hyoscyamine.pdbqt.pdb
REMARK  6 active torsions:
REMARK  status: ('A' for Active; 'I' for Inactive)
REMARK    1  A    between atoms: C_2  and  O_3
REMARK    2  A    between atoms: C_2  and  C_13
REMARK    3  A    between atoms: O_3  and  C_4
REMARK    4  A    between atoms: C_13  and  C_14
REMARK    5  A    between atoms: C_13  and  C_20
REMARK    6  A    between atoms: C_20  and  O_21
REMARK                            x       y       z     vdW  Elec       q    Type
REMARK                         _______ _______ _______ _____ _____    ______ ____
ROOT
ATOM      1  O   UNL     1      41.480 -21.564 169.602  0.00  0.00    +0.000 OA
ATOM      2  C   UNL     1      40.568 -20.840 169.980  0.00  0.00    +0.000 C 
ENDROOT
BRANCH   2   3
ATOM      3  O   UNL     1      39.244 -20.963 169.673  0.00  0.00    +0.000 OA
BRANCH   3   4
ATOM      4  C   UNL     1      39.027 -21.381 168.360  0.00  0.00    +0.000 C 
ATOM      5  C   UNL     1      38.696 -20.424 167.318  0.00  0.00    +0.000 C 
ATOM      6  C   UNL     1      37.711 -20.599 166.243  0.00  0.00    +0.000 C 
ATOM      7  N   UNL     1      36.527 -21.293 166.930  0.00  0.00    +0.000 NA
ATOM      8  C   UNL     1      38.137 -21.547 165.228  0.00  0.00    +0.000 C 
ATOM      9  C   UNL     1      37.172 -22.681 167.058  0.00  0.00    +0.000 C 
ATOM     10  C   UNL     1      35.344 -21.329 166.056  0.00  0.00    +0.000 C 
ATOM     11  C   UNL     1      37.780 -22.936 165.759  0.00  0.00    +0.000 C 
ATOM     12  C   UNL     1      38.160 -22.521 168.137  0.00  0.00    +0.000 C 
ENDBRANCH   3   4
ENDBRANCH   2   3
BRANCH   2  13
ATOM     13  C   UNL     1      40.790 -19.640 170.841  0.00  0.00    +0.000 C 
BRANCH  13  14
ATOM     14  C   UNL     1      40.584 -19.629 172.301  0.00  0.00    +0.000 A 
ATOM     15  C   UNL     1      41.512 -19.001 173.140  0.00  0.00    +0.000 A 
ATOM     16  C   UNL     1      41.350 -19.015 174.524  0.00  0.00    +0.000 A 
ATOM     17  C   UNL     1      40.259 -19.666 175.089  0.00  0.00    +0.000 A 
ATOM     18  C   UNL     1      39.332 -20.303 174.271  0.00  0.00    +0.000 A 
ATOM     19  C   UNL     1      39.500 -20.287 172.887  0.00  0.00    +0.000 A 
ENDBRANCH  13  14
BRANCH  13  20
ATOM     20  C   UNL     1      41.293 -18.466 170.195  0.00  0.00    +0.000 C 
BRANCH  20  21
ATOM     21  O   UNL     1      41.760 -17.376 169.596  0.00  0.00    +0.000 OA
ATOM     22  H   UNL     1      42.575 -17.069 170.032  0.00  0.00    +0.000 HD
ENDBRANCH  20  21
ENDBRANCH  13  20
ENDBRANCH   2  13
TORSDOF 6
ENDMDL
MODEL 9
REMARK VINA RESULT:      -5.5     20.743     22.308
REMARK  Name = Hyoscyamine.pdbqt.pdb
REMARK  6 active torsions:
REMARK  status: ('A' for Active; 'I' for Inactive)
REMARK    1  A    between atoms: C_2  and  O_3
REMARK    2  A    between atoms: C_2  and  C_13
REMARK    3  A    between atoms: O_3  and  C_4
REMARK    4  A    between atoms: C_13  and  C_14
REMARK    5  A    between atoms: C_13  and  C_20
REMARK    6  A    between atoms: C_20  and  O_21
REMARK                            x       y       z     vdW  Elec       q    Type
REMARK                         _______ _______ _______ _____ _____    ______ ____
ROOT
ATOM      1  O   UNL     1      13.871 -15.094 181.074  0.00  0.00    +0.000 OA
ATOM      2  C   UNL     1      13.385 -15.238 179.959  0.00  0.00    +0.000 C 
ENDROOT
BRANCH   2   3
ATOM      3  O   UNL     1      13.153 -16.417 179.312  0.00  0.00    +0.000 OA
BRANCH   3   4
ATOM      4  C   UNL     1      14.176 -17.348 179.495  0.00  0.00    +0.000 C 
ATOM      5  C   UNL     1      14.999 -17.778 178.378  0.00  0.00    +0.000 C 
ATOM      6  C   UNL     1      15.467 -19.144 178.105  0.00  0.00    +0.000 C 
ATOM      7  N   UNL     1      14.256 -20.027 178.437  0.00  0.00    +0.000 NA
ATOM      8  C   UNL     1      16.496 -19.590 179.028  0.00  0.00    +0.000 C 
ATOM      9  C   UNL     1      14.355 -19.911 179.966  0.00  0.00    +0.000 C 
ATOM     10  C   UNL     1      14.463 -21.412 177.989  0.00  0.00    +0.000 C 
ATOM     11  C   UNL     1      15.766 -20.106 180.269  0.00  0.00    +0.000 C 
ATOM     12  C   UNL     1      13.885 -18.547 180.255  0.00  0.00    +0.000 C 
ENDBRANCH   3   4
ENDBRANCH   2   3
BRANCH   2  13
ATOM     13  C   UNL     1      12.995 -14.087 179.092  0.00  0.00    +0.000 C 
BRANCH  13  14
ATOM     14  C   UNL     1      12.630 -12.756 179.611  0.00  0.00    +0.000 A 
ATOM     15  C   UNL     1      12.837 -11.612 178.832  0.00  0.00    +0.000 A 
ATOM     16  C   UNL     1      12.531 -10.344 179.324  0.00  0.00    +0.000 A 
ATOM     17  C   UNL     1      12.021 -10.203 180.610  0.00  0.00    +0.000 A 
ATOM     18  C   UNL     1      11.818 -11.329 181.402  0.00  0.00    +0.000 A 
ATOM     19  C   UNL     1      12.126 -12.594 180.904  0.00  0.00    +0.000 A 
ENDBRANCH  13  14
BRANCH  13  20
ATOM     20  C   UNL     1      13.049 -14.295 177.677  0.00  0.00    +0.000 C 
BRANCH  20  21
ATOM     21  O   UNL     1      13.101 -14.489 176.364  0.00  0.00    +0.000 OA
ATOM     22  H   UNL     1      12.257 -14.851 176.039  0.00  0.00    +0.000 HD
ENDBRANCH  20  21
ENDBRANCH  13  20
ENDBRANCH   2  13
TORSDOF 6
ENDMDL
