MODEL 1
REMARK VINA RESULT:      -8.7      0.000      0.000
REMARK  Name = 
REMARK  21 active torsions:
REMARK  status: ('A' for Active; 'I' for Inactive)
REMARK    1  A    between atoms: O_3  and  C_22
REMARK    2  A    between atoms: O_3  and  C_28
REMARK    3  A    between atoms: O_4  and  C_25
REMARK    4  A    between atoms: O_4  and  C_30
REMARK    5  A    between atoms: O_5  and  C_16
REMARK    6  A    between atoms: O_6  and  C_17
REMARK    7  A    between atoms: O_7  and  C_18
REMARK    8  A    between atoms: O_8  and  C_20
REMARK    9  A    between atoms: O_9  and  C_21
REMARK   10  A    between atoms: O_10  and  C_23
REMARK   11  A    between atoms: O_11  and  C_26
REMARK   12  A    between atoms: O_13  and  C_36
REMARK   13  A    between atoms: O_15  and  C_45
REMARK   14  A    between atoms: O_15  and  C_48
REMARK   15  A    between atoms: C_19  and  C_26
REMARK   16  A    between atoms: C_24  and  C_27
REMARK   17  A    between atoms: C_29  and  C_37
REMARK   18  A    between atoms: C_35  and  C_38
REMARK   19  A    between atoms: C_37  and  C_39
REMARK   20  A    between atoms: C_42  and  C_46
REMARK   21  A    between atoms: C_42  and  C_47
REMARK                            x       y       z     vdW  Elec       q    Type
REMARK                         _______ _______ _______ _____ _____    ______ ____
ROOT
ATOM      1  O   UNL     1      24.088   2.503 190.495  0.00  0.00    +0.000 OA
ATOM      2  O   UNL     1      25.450   1.195 194.090  0.00  0.00    +0.000 OA
ATOM      3  C   UNL     1      27.641   3.287 190.101  0.00  0.00    +0.000 A 
ATOM      4  C   UNL     1      26.269   3.171 189.814  0.00  0.00    +0.000 A 
ATOM      5  C   UNL     1      23.586   1.535 192.653  0.00  0.00    +0.000 A 
ATOM      6  C   UNL     1      25.426   2.609 190.794  0.00  0.00    +0.000 A 
ATOM      7  C   UNL     1      25.944   2.170 192.013  0.00  0.00    +0.000 A 
ATOM      8  C   UNL     1      25.027   1.602 193.009  0.00  0.00    +0.000 A 
ATOM      9  C   UNL     1      28.166   2.810 191.306  0.00  0.00    +0.000 A 
ATOM     10  C   UNL     1      23.219   2.013 191.451  0.00  0.00    +0.000 A 
ATOM     11  C   UNL     1      27.315   2.267 192.263  0.00  0.00    +0.000 A 
ENDROOT
BRANCH  10  12
ATOM     12  C   UNL     1      21.817   2.017 191.004  0.00  0.00    +0.000 A 
ATOM     13  C   UNL     1      21.438   1.263 189.888  0.00  0.00    +0.000 A 
ATOM     14  C   UNL     1      20.846   2.776 191.670  0.00  0.00    +0.000 A 
ATOM     15  C   UNL     1      20.108   1.258 189.460  0.00  0.00    +0.000 A 
ATOM     16  C   UNL     1      19.514   2.767 191.241  0.00  0.00    +0.000 A 
ATOM     17  C   UNL     1      19.138   2.003 190.136  0.00  0.00    +0.000 A 
BRANCH  17  18
ATOM     18  O   UNL     1      17.878   1.904 189.617  0.00  0.00    +0.000 OA
ATOM     19  C   UNL     1      17.740   2.126 188.220  0.00  0.00    +0.000 C 
ENDBRANCH  17  18
ENDBRANCH  10  12
BRANCH  11  20
ATOM     20  O   UNL     1      27.899   1.840 193.425  0.00  0.00    +0.000 OA
ATOM     21  H   UNL     1      27.187   1.635 194.071  0.00  0.00    +0.000 HD
ENDBRANCH  11  20
BRANCH   4  22
ATOM     22  C   UNL     1      25.690   3.671 188.504  0.00  0.00    +0.000 C 
BRANCH  22  23
ATOM     23  C   UNL     1      24.588   4.678 188.711  0.00  0.00    +0.000 C 
ATOM     24  C   UNL     1      23.351   4.695 188.175  0.00  0.00    +0.000 C 
ATOM     25  C   UNL     1      22.793   3.670 187.227  0.00  0.00    +0.000 C 
ATOM     26  C   UNL     1      22.390   5.803 188.518  0.00  0.00    +0.000 C 
ENDBRANCH  22  23
ENDBRANCH   4  22
BRANCH   5  27
ATOM     27  O   UNL     1      22.680   1.065 193.585  0.00  0.00    +0.000 OA
BRANCH  27  33
ATOM     28  O   UNL     1      21.845  -1.039 192.885  0.00  0.00    +0.000 OA
ATOM     29  C   UNL     1      21.013  -0.434 195.579  0.00  0.00    +0.000 C 
ATOM     30  C   UNL     1      20.083  -1.141 194.585  0.00  0.00    +0.000 C 
ATOM     31  C   UNL     1      22.481  -0.693 195.242  0.00  0.00    +0.000 C 
ATOM     32  C   UNL     1      20.465  -0.751 193.152  0.00  0.00    +0.000 C 
ATOM     33  C   UNL     1      22.754  -0.355 193.761  0.00  0.00    +0.000 C 
ATOM     34  C   UNL     1      19.633  -1.514 192.125  0.00  0.00    +0.000 C 
BRANCH  29  35
ATOM     35  O   UNL     1      20.715  -0.921 196.902  0.00  0.00    +0.000 OA
ATOM     36  H   UNL     1      21.274  -0.381 197.499  0.00  0.00    +0.000 HD
ENDBRANCH  29  35
BRANCH  30  37
ATOM     37  O   UNL     1      18.729  -0.774 194.878  0.00  0.00    +0.000 OA
ATOM     38  H   UNL     1      18.500  -0.090 194.217  0.00  0.00    +0.000 HD
ENDBRANCH  30  37
BRANCH  31  39
ATOM     39  O   UNL     1      22.760  -2.076 195.547  0.00  0.00    +0.000 OA
ATOM     40  H   UNL     1      22.845  -2.547 194.698  0.00  0.00    +0.000 HD
ENDBRANCH  31  39
ENDBRANCH  27  33
ENDBRANCH   5  27
BRANCH   3  41
ATOM     41  O   UNL     1      28.486   3.782 189.141  0.00  0.00    +0.000 OA
BRANCH  41  47
ATOM     42  O   UNL     1      30.537   4.718 189.861  0.00  0.00    +0.000 OA
ATOM     43  C   UNL     1      32.004   2.796 188.342  0.00  0.00    +0.000 C 
ATOM     44  C   UNL     1      32.670   4.052 188.910  0.00  0.00    +0.000 C 
ATOM     45  C   UNL     1      30.507   3.015 188.134  0.00  0.00    +0.000 C 
ATOM     46  C   UNL     1      31.923   4.499 190.174  0.00  0.00    +0.000 C 
ATOM     47  C   UNL     1      29.874   3.526 189.442  0.00  0.00    +0.000 C 
BRANCH  44  48
ATOM     48  O   UNL     1      34.043   3.768 189.187  0.00  0.00    +0.000 OA
ATOM     49  H   UNL     1      34.028   3.152 189.949  0.00  0.00    +0.000 HD
ENDBRANCH  44  48
BRANCH  45  50
ATOM     50  O   UNL     1      29.921   1.778 187.698  0.00  0.00    +0.000 OA
ATOM     51  H   UNL     1      30.650   1.127 187.683  0.00  0.00    +0.000 HD
ENDBRANCH  45  50
BRANCH  43  52
ATOM     52  O   UNL     1      32.636   2.456 187.097  0.00  0.00    +0.000 OA
ATOM     53  H   UNL     1      32.032   2.793 186.404  0.00  0.00    +0.000 HD
ENDBRANCH  43  52
BRANCH  46  54
ATOM     54  C   UNL     1      32.508   5.804 190.731  0.00  0.00    +0.000 C 
BRANCH  54  55
ATOM     55  O   UNL     1      33.122   6.547 189.675  0.00  0.00    +0.000 OA
ATOM     56  H   UNL     1      34.065   6.623 189.895  0.00  0.00    +0.000 HD
ENDBRANCH  54  55
ENDBRANCH  46  54
ENDBRANCH  41  47
ENDBRANCH   3  41
TORSDOF 17
ENDMDL
MODEL 2
REMARK VINA RESULT:      -8.5      2.158      5.376
REMARK  Name = 
REMARK  21 active torsions:
REMARK  status: ('A' for Active; 'I' for Inactive)
REMARK    1  A    between atoms: O_3  and  C_22
REMARK    2  A    between atoms: O_3  and  C_28
REMARK    3  A    between atoms: O_4  and  C_25
REMARK    4  A    between atoms: O_4  and  C_30
REMARK    5  A    between atoms: O_5  and  C_16
REMARK    6  A    between atoms: O_6  and  C_17
REMARK    7  A    between atoms: O_7  and  C_18
REMARK    8  A    between atoms: O_8  and  C_20
REMARK    9  A    between atoms: O_9  and  C_21
REMARK   10  A    between atoms: O_10  and  C_23
REMARK   11  A    between atoms: O_11  and  C_26
REMARK   12  A    between atoms: O_13  and  C_36
REMARK   13  A    between atoms: O_15  and  C_45
REMARK   14  A    between atoms: O_15  and  C_48
REMARK   15  A    between atoms: C_19  and  C_26
REMARK   16  A    between atoms: C_24  and  C_27
REMARK   17  A    between atoms: C_29  and  C_37
REMARK   18  A    between atoms: C_35  and  C_38
REMARK   19  A    between atoms: C_37  and  C_39
REMARK   20  A    between atoms: C_42  and  C_46
REMARK   21  A    between atoms: C_42  and  C_47
REMARK                            x       y       z     vdW  Elec       q    Type
REMARK                         _______ _______ _______ _____ _____    ______ ____
ROOT
ATOM      1  O   UNL     1      24.358   1.599 191.934  0.00  0.00    +0.000 OA
ATOM      2  O   UNL     1      23.410   3.170 188.312  0.00  0.00    +0.000 OA
ATOM      3  C   UNL     1      27.632   2.936 190.996  0.00  0.00    +0.000 A 
ATOM      4  C   UNL     1      26.625   2.297 191.741  0.00  0.00    +0.000 A 
ATOM      5  C   UNL     1      22.683   1.966 190.229  0.00  0.00    +0.000 A 
ATOM      6  C   UNL     1      25.329   2.227 191.191  0.00  0.00    +0.000 A 
ATOM      7  C   UNL     1      25.053   2.786 189.943  0.00  0.00    +0.000 A 
ATOM      8  C   UNL     1      23.692   2.679 189.404  0.00  0.00    +0.000 A 
ATOM      9  C   UNL     1      27.346   3.532 189.764  0.00  0.00    +0.000 A 
ATOM     10  C   UNL     1      23.089   1.456 191.405  0.00  0.00    +0.000 A 
ATOM     11  C   UNL     1      26.063   3.443 189.235  0.00  0.00    +0.000 A 
ENDROOT
BRANCH  10  12
ATOM     12  C   UNL     1      22.181   0.712 192.292  0.00  0.00    +0.000 A 
ATOM     13  C   UNL     1      21.452   1.393 193.274  0.00  0.00    +0.000 A 
ATOM     14  C   UNL     1      22.036  -0.677 192.183  0.00  0.00    +0.000 A 
ATOM     15  C   UNL     1      20.584   0.695 194.117  0.00  0.00    +0.000 A 
ATOM     16  C   UNL     1      21.164  -1.373 193.027  0.00  0.00    +0.000 A 
ATOM     17  C   UNL     1      20.429  -0.688 193.995  0.00  0.00    +0.000 A 
BRANCH  17  18
ATOM     18  O   UNL     1      19.545  -1.244 194.877  0.00  0.00    +0.000 OA
ATOM     19  C   UNL     1      18.686  -0.351 195.574  0.00  0.00    +0.000 C 
ENDBRANCH  17  18
ENDBRANCH  10  12
BRANCH  11  20
ATOM     20  O   UNL     1      25.864   4.034 188.017  0.00  0.00    +0.000 OA
ATOM     21  H   UNL     1      26.635   4.613 187.824  0.00  0.00    +0.000 HD
ENDBRANCH  11  20
BRANCH   4  22
ATOM     22  C   UNL     1      26.919   1.660 193.085  0.00  0.00    +0.000 C 
BRANCH  22  23
ATOM     23  C   UNL     1      27.140   0.173 192.980  0.00  0.00    +0.000 C 
ATOM     24  C   UNL     1      26.410  -0.827 193.513  0.00  0.00    +0.000 C 
ATOM     25  C   UNL     1      25.174  -0.658 194.351  0.00  0.00    +0.000 C 
ATOM     26  C   UNL     1      26.805  -2.263 193.282  0.00  0.00    +0.000 C 
ENDBRANCH  22  23
ENDBRANCH   4  22
BRANCH   5  27
ATOM     27  O   UNL     1      21.405   1.787 189.732  0.00  0.00    +0.000 OA
BRANCH  27  33
ATOM     28  O   UNL     1      19.579   2.710 190.926  0.00  0.00    +0.000 OA
ATOM     29  C   UNL     1      18.899   2.277 188.157  0.00  0.00    +0.000 C 
ATOM     30  C   UNL     1      17.891   2.027 189.286  0.00  0.00    +0.000 C 
ATOM     31  C   UNL     1      19.937   3.322 188.565  0.00  0.00    +0.000 C 
ATOM     32  C   UNL     1      18.638   1.684 190.580  0.00  0.00    +0.000 C 
ATOM     33  C   UNL     1      20.574   2.939 189.918  0.00  0.00    +0.000 C 
ATOM     34  C   UNL     1      17.677   1.531 191.756  0.00  0.00    +0.000 C 
BRANCH  29  35
ATOM     35  O   UNL     1      18.175   2.724 186.995  0.00  0.00    +0.000 OA
ATOM     36  H   UNL     1      17.231   2.588 187.220  0.00  0.00    +0.000 HD
ENDBRANCH  29  35
BRANCH  30  37
ATOM     37  O   UNL     1      17.014   0.964 188.895  0.00  0.00    +0.000 OA
ATOM     38  H   UNL     1      17.540   0.409 188.283  0.00  0.00    +0.000 HD
ENDBRANCH  30  37
BRANCH  31  39
ATOM     39  O   UNL     1      19.269   4.601 188.618  0.00  0.00    +0.000 OA
ATOM     40  H   UNL     1      19.063   4.856 187.699  0.00  0.00    +0.000 HD
ENDBRANCH  31  39
ENDBRANCH  27  33
ENDBRANCH   5  27
BRANCH   3  41
ATOM     41  O   UNL     1      28.886   3.062 191.537  0.00  0.00    +0.000 OA
BRANCH  41  47
ATOM     42  O   UNL     1      30.442   1.299 191.271  0.00  0.00    +0.000 OA
ATOM     43  C   UNL     1      32.187   2.999 189.780  0.00  0.00    +0.000 C 
ATOM     44  C   UNL     1      32.659   1.656 190.345  0.00  0.00    +0.000 C 
ATOM     45  C   UNL     1      31.019   3.555 190.591  0.00  0.00    +0.000 C 
ATOM     46  C   UNL     1      31.464   0.700 190.455  0.00  0.00    +0.000 C 
ATOM     47  C   UNL     1      29.910   2.491 190.695  0.00  0.00    +0.000 C 
BRANCH  44  48
ATOM     48  O   UNL     1      33.677   1.124 189.496  0.00  0.00    +0.000 OA
ATOM     49  H   UNL     1      33.770   0.186 189.764  0.00  0.00    +0.000 HD
ENDBRANCH  44  48
BRANCH  45  50
ATOM     50  O   UNL     1      30.556   4.758 189.957  0.00  0.00    +0.000 OA
ATOM     51  H   UNL     1      31.264   5.024 189.337  0.00  0.00    +0.000 HD
ENDBRANCH  45  50
BRANCH  43  52
ATOM     52  O   UNL     1      33.288   3.923 189.792  0.00  0.00    +0.000 OA
ATOM     53  H   UNL     1      32.876   4.809 189.840  0.00  0.00    +0.000 HD
ENDBRANCH  43  52
BRANCH  46  54
ATOM     54  C   UNL     1      31.877  -0.632 191.096  0.00  0.00    +0.000 C 
BRANCH  54  55
ATOM     55  O   UNL     1      32.510  -1.462 190.118  0.00  0.00    +0.000 OA
ATOM     56  H   UNL     1      31.801  -1.929 189.644  0.00  0.00    +0.000 HD
ENDBRANCH  54  55
ENDBRANCH  46  54
ENDBRANCH  41  47
ENDBRANCH   3  41
TORSDOF 17
ENDMDL
MODEL 3
REMARK VINA RESULT:      -8.4      1.907      5.280
REMARK  Name = 
REMARK  21 active torsions:
REMARK  status: ('A' for Active; 'I' for Inactive)
REMARK    1  A    between atoms: O_3  and  C_22
REMARK    2  A    between atoms: O_3  and  C_28
REMARK    3  A    between atoms: O_4  and  C_25
REMARK    4  A    between atoms: O_4  and  C_30
REMARK    5  A    between atoms: O_5  and  C_16
REMARK    6  A    between atoms: O_6  and  C_17
REMARK    7  A    between atoms: O_7  and  C_18
REMARK    8  A    between atoms: O_8  and  C_20
REMARK    9  A    between atoms: O_9  and  C_21
REMARK   10  A    between atoms: O_10  and  C_23
REMARK   11  A    between atoms: O_11  and  C_26
REMARK   12  A    between atoms: O_13  and  C_36
REMARK   13  A    between atoms: O_15  and  C_45
REMARK   14  A    between atoms: O_15  and  C_48
REMARK   15  A    between atoms: C_19  and  C_26
REMARK   16  A    between atoms: C_24  and  C_27
REMARK   17  A    between atoms: C_29  and  C_37
REMARK   18  A    between atoms: C_35  and  C_38
REMARK   19  A    between atoms: C_37  and  C_39
REMARK   20  A    between atoms: C_42  and  C_46
REMARK   21  A    between atoms: C_42  and  C_47
REMARK                            x       y       z     vdW  Elec       q    Type
REMARK                         _______ _______ _______ _____ _____    ______ ____
ROOT
ATOM      1  O   UNL     1      24.594   1.538 191.941  0.00  0.00    +0.000 OA
ATOM      2  O   UNL     1      23.560   3.129 188.352  0.00  0.00    +0.000 OA
ATOM      3  C   UNL     1      27.857   2.830 190.907  0.00  0.00    +0.000 A 
ATOM      4  C   UNL     1      26.864   2.203 191.681  0.00  0.00    +0.000 A 
ATOM      5  C   UNL     1      22.874   1.933 190.289  0.00  0.00    +0.000 A 
ATOM      6  C   UNL     1      25.551   2.153 191.170  0.00  0.00    +0.000 A 
ATOM      7  C   UNL     1      25.246   2.719 189.932  0.00  0.00    +0.000 A 
ATOM      8  C   UNL     1      23.867   2.632 189.435  0.00  0.00    +0.000 A 
ATOM      9  C   UNL     1      27.543   3.432 189.685  0.00  0.00    +0.000 A 
ATOM     10  C   UNL     1      23.308   1.414 191.452  0.00  0.00    +0.000 A 
ATOM     11  C   UNL     1      26.243   3.363 189.195  0.00  0.00    +0.000 A 
ENDROOT
BRANCH  10  12
ATOM     12  C   UNL     1      22.417   0.682 192.365  0.00  0.00    +0.000 A 
ATOM     13  C   UNL     1      22.149  -0.673 192.142  0.00  0.00    +0.000 A 
ATOM     14  C   UNL     1      21.813   1.320 193.456  0.00  0.00    +0.000 A 
ATOM     15  C   UNL     1      21.308  -1.377 193.006  0.00  0.00    +0.000 A 
ATOM     16  C   UNL     1      20.972   0.612 194.322  0.00  0.00    +0.000 A 
ATOM     17  C   UNL     1      20.720  -0.743 194.103  0.00  0.00    +0.000 A 
BRANCH  17  18
ATOM     18  O   UNL     1      19.925  -1.547 194.870  0.00  0.00    +0.000 OA
ATOM     19  C   UNL     1      20.579  -2.381 195.818  0.00  0.00    +0.000 C 
ENDBRANCH  17  18
ENDBRANCH  10  12
BRANCH  11  20
ATOM     20  O   UNL     1      26.016   3.959 187.984  0.00  0.00    +0.000 OA
ATOM     21  H   UNL     1      25.862   4.918 188.136  0.00  0.00    +0.000 HD
ENDBRANCH  11  20
BRANCH   4  22
ATOM     22  C   UNL     1      27.191   1.559 193.015  0.00  0.00    +0.000 C 
BRANCH  22  23
ATOM     23  C   UNL     1      27.294   0.060 192.917  0.00  0.00    +0.000 C 
ATOM     24  C   UNL     1      26.530  -0.878 193.513  0.00  0.00    +0.000 C 
ATOM     25  C   UNL     1      25.369  -0.609 194.428  0.00  0.00    +0.000 C 
ATOM     26  C   UNL     1      26.803  -2.341 193.279  0.00  0.00    +0.000 C 
ENDBRANCH  22  23
ENDBRANCH   4  22
BRANCH   5  27
ATOM     27  O   UNL     1      21.579   1.773 189.831  0.00  0.00    +0.000 OA
BRANCH  27  33
ATOM     28  O   UNL     1      19.816   2.685 191.124  0.00  0.00    +0.000 OA
ATOM     29  C   UNL     1      19.001   2.292 188.386  0.00  0.00    +0.000 C 
ATOM     30  C   UNL     1      18.048   2.030 189.559  0.00  0.00    +0.000 C 
ATOM     31  C   UNL     1      20.061   3.328 188.757  0.00  0.00    +0.000 C 
ATOM     32  C   UNL     1      18.856   1.667 190.811  0.00  0.00    +0.000 C 
ATOM     33  C   UNL     1      20.762   2.925 190.072  0.00  0.00    +0.000 C 
ATOM     34  C   UNL     1      17.953   1.501 192.029  0.00  0.00    +0.000 C 
BRANCH  29  35
ATOM     35  O   UNL     1      18.224   2.757 187.267  0.00  0.00    +0.000 OA
ATOM     36  H   UNL     1      18.610   2.304 186.488  0.00  0.00    +0.000 HD
ENDBRANCH  29  35
BRANCH  30  37
ATOM     37  O   UNL     1      17.150   0.974 189.197  0.00  0.00    +0.000 OA
ATOM     38  H   UNL     1      16.549   0.875 189.964  0.00  0.00    +0.000 HD
ENDBRANCH  30  37
BRANCH  31  39
ATOM     39  O   UNL     1      19.402   4.608 188.859  0.00  0.00    +0.000 OA
ATOM     40  H   UNL     1      18.809   4.688 188.089  0.00  0.00    +0.000 HD
ENDBRANCH  31  39
ENDBRANCH  27  33
ENDBRANCH   5  27
BRANCH   3  41
ATOM     41  O   UNL     1      29.129   2.937 191.409  0.00  0.00    +0.000 OA
BRANCH  41  47
ATOM     42  O   UNL     1      30.523   3.805 189.705  0.00  0.00    +0.000 OA
ATOM     43  C   UNL     1      31.668   5.681 191.529  0.00  0.00    +0.000 C 
ATOM     44  C   UNL     1      32.309   5.384 190.171  0.00  0.00    +0.000 C 
ATOM     45  C   UNL     1      30.828   4.498 192.009  0.00  0.00    +0.000 C 
ATOM     46  C   UNL     1      31.224   4.945 189.178  0.00  0.00    +0.000 C 
ATOM     47  C   UNL     1      29.823   4.101 190.912  0.00  0.00    +0.000 C 
BRANCH  44  48
ATOM     48  O   UNL     1      32.995   6.551 189.713  0.00  0.00    +0.000 OA
ATOM     49  H   UNL     1      33.181   7.072 190.522  0.00  0.00    +0.000 HD
ENDBRANCH  44  48
BRANCH  45  50
ATOM     50  O   UNL     1      30.173   4.871 193.232  0.00  0.00    +0.000 OA
ATOM     51  H   UNL     1      29.234   5.016 193.000  0.00  0.00    +0.000 HD
ENDBRANCH  45  50
BRANCH  43  52
ATOM     52  O   UNL     1      32.705   5.975 192.480  0.00  0.00    +0.000 OA
ATOM     53  H   UNL     1      32.293   6.583 193.126  0.00  0.00    +0.000 HD
ENDBRANCH  43  52
BRANCH  46  54
ATOM     54  C   UNL     1      31.834   4.557 187.825  0.00  0.00    +0.000 C 
BRANCH  54  55
ATOM     55  O   UNL     1      33.255   4.448 187.949  0.00  0.00    +0.000 OA
ATOM     56  H   UNL     1      33.430   3.671 188.506  0.00  0.00    +0.000 HD
ENDBRANCH  54  55
ENDBRANCH  46  54
ENDBRANCH  41  47
ENDBRANCH   3  41
TORSDOF 17
ENDMDL
MODEL 4
REMARK VINA RESULT:      -8.1      2.682      4.759
REMARK  Name = 
REMARK  21 active torsions:
REMARK  status: ('A' for Active; 'I' for Inactive)
REMARK    1  A    between atoms: O_3  and  C_22
REMARK    2  A    between atoms: O_3  and  C_28
REMARK    3  A    between atoms: O_4  and  C_25
REMARK    4  A    between atoms: O_4  and  C_30
REMARK    5  A    between atoms: O_5  and  C_16
REMARK    6  A    between atoms: O_6  and  C_17
REMARK    7  A    between atoms: O_7  and  C_18
REMARK    8  A    between atoms: O_8  and  C_20
REMARK    9  A    between atoms: O_9  and  C_21
REMARK   10  A    between atoms: O_10  and  C_23
REMARK   11  A    between atoms: O_11  and  C_26
REMARK   12  A    between atoms: O_13  and  C_36
REMARK   13  A    between atoms: O_15  and  C_45
REMARK   14  A    between atoms: O_15  and  C_48
REMARK   15  A    between atoms: C_19  and  C_26
REMARK   16  A    between atoms: C_24  and  C_27
REMARK   17  A    between atoms: C_29  and  C_37
REMARK   18  A    between atoms: C_35  and  C_38
REMARK   19  A    between atoms: C_37  and  C_39
REMARK   20  A    between atoms: C_42  and  C_46
REMARK   21  A    between atoms: C_42  and  C_47
REMARK                            x       y       z     vdW  Elec       q    Type
REMARK                         _______ _______ _______ _____ _____    ______ ____
ROOT
ATOM      1  O   UNL     1      26.899   1.994 189.091  0.00  0.00    +0.000 OA
ATOM      2  O   UNL     1      25.392   0.471 192.539  0.00  0.00    +0.000 OA
ATOM      3  C   UNL     1      29.910   0.365 190.382  0.00  0.00    +0.000 A 
ATOM      4  C   UNL     1      29.058   1.098 189.537  0.00  0.00    +0.000 A 
ATOM      5  C   UNL     1      25.006   1.755 190.575  0.00  0.00    +0.000 A 
ATOM      6  C   UNL     1      27.716   1.275 189.930  0.00  0.00    +0.000 A 
ATOM      7  C   UNL     1      27.246   0.728 191.124  0.00  0.00    +0.000 A 
ATOM      8  C   UNL     1      25.843   0.948 191.499  0.00  0.00    +0.000 A 
ATOM      9  C   UNL     1      29.428  -0.218 191.558  0.00  0.00    +0.000 A 
ATOM     10  C   UNL     1      25.593   2.241 189.467  0.00  0.00    +0.000 A 
ATOM     11  C   UNL     1      28.103  -0.023 191.933  0.00  0.00    +0.000 A 
ENDROOT
BRANCH  10  12
ATOM     12  C   UNL     1      24.865   3.071 188.495  0.00  0.00    +0.000 A 
ATOM     13  C   UNL     1      25.101   4.449 188.438  0.00  0.00    +0.000 A 
ATOM     14  C   UNL     1      23.922   2.510 187.625  0.00  0.00    +0.000 A 
ATOM     15  C   UNL     1      24.417   5.244 187.515  0.00  0.00    +0.000 A 
ATOM     16  C   UNL     1      23.240   3.308 186.699  0.00  0.00    +0.000 A 
ATOM     17  C   UNL     1      23.490   4.679 186.637  0.00  0.00    +0.000 A 
BRANCH  17  18
ATOM     18  O   UNL     1      22.898   5.567 185.782  0.00  0.00    +0.000 OA
ATOM     19  C   UNL     1      22.508   5.069 184.508  0.00  0.00    +0.000 C 
ENDBRANCH  17  18
ENDBRANCH  10  12
BRANCH  11  20
ATOM     20  O   UNL     1      27.709  -0.608 193.105  0.00  0.00    +0.000 OA
ATOM     21  H   UNL     1      27.034  -0.030 193.527  0.00  0.00    +0.000 HD
ENDBRANCH  11  20
BRANCH   4  22
ATOM     22  C   UNL     1      29.566   1.722 188.251  0.00  0.00    +0.000 C 
BRANCH  22  23
ATOM     23  C   UNL     1      30.227   3.056 188.483  0.00  0.00    +0.000 C 
ATOM     24  C   UNL     1      31.178   3.665 187.746  0.00  0.00    +0.000 C 
ATOM     25  C   UNL     1      31.794   3.119 186.488  0.00  0.00    +0.000 C 
ATOM     26  C   UNL     1      31.709   5.014 188.156  0.00  0.00    +0.000 C 
ENDBRANCH  22  23
ENDBRANCH   4  22
BRANCH   5  27
ATOM     27  O   UNL     1      23.698   2.039 190.921  0.00  0.00    +0.000 OA
BRANCH  27  33
ATOM     28  O   UNL     1      21.922   1.058 189.697  0.00  0.00    +0.000 OA
ATOM     29  C   UNL     1      21.069   1.807 192.348  0.00  0.00    +0.000 C 
ATOM     30  C   UNL     1      20.154   1.969 191.128  0.00  0.00    +0.000 C 
ATOM     31  C   UNL     1      22.088   0.688 192.129  0.00  0.00    +0.000 C 
ATOM     32  C   UNL     1      21.003   2.147 189.864  0.00  0.00    +0.000 C 
ATOM     33  C   UNL     1      22.834   0.903 190.795  0.00  0.00    +0.000 C 
ATOM     34  C   UNL     1      20.135   2.207 188.611  0.00  0.00    +0.000 C 
BRANCH  29  35
ATOM     35  O   UNL     1      20.247   1.511 193.493  0.00  0.00    +0.000 OA
ATOM     36  H   UNL     1      19.553   0.906 193.155  0.00  0.00    +0.000 HD
ENDBRANCH  29  35
BRANCH  30  37
ATOM     37  O   UNL     1      19.297   3.098 191.340  0.00  0.00    +0.000 OA
ATOM     38  H   UNL     1      18.387   2.744 191.281  0.00  0.00    +0.000 HD
ENDBRANCH  30  37
BRANCH  31  39
ATOM     39  O   UNL     1      21.372  -0.564 192.159  0.00  0.00    +0.000 OA
ATOM     40  H   UNL     1      20.965  -0.685 191.281  0.00  0.00    +0.000 HD
ENDBRANCH  31  39
ENDBRANCH  27  33
ENDBRANCH   5  27
BRANCH   3  41
ATOM     41  O   UNL     1      31.205   0.135 189.992  0.00  0.00    +0.000 OA
BRANCH  41  47
ATOM     42  O   UNL     1      32.432   1.856 191.057  0.00  0.00    +0.000 OA
ATOM     43  C   UNL     1      34.541   0.034 191.681  0.00  0.00    +0.000 C 
ATOM     44  C   UNL     1      34.728   1.550 191.786  0.00  0.00    +0.000 C 
ATOM     45  C   UNL     1      33.445  -0.314 190.676  0.00  0.00    +0.000 C 
ATOM     46  C   UNL     1      33.376   2.214 192.081  0.00  0.00    +0.000 C 
ATOM     47  C   UNL     1      32.158   0.456 191.027  0.00  0.00    +0.000 C 
BRANCH  44  48
ATOM     48  O   UNL     1      35.684   1.833 192.810  0.00  0.00    +0.000 OA
ATOM     49  H   UNL     1      35.151   2.060 193.600  0.00  0.00    +0.000 HD
ENDBRANCH  44  48
BRANCH  45  50
ATOM     50  O   UNL     1      33.244  -1.737 190.696  0.00  0.00    +0.000 OA
ATOM     51  H   UNL     1      32.730  -1.946 189.890  0.00  0.00    +0.000 HD
ENDBRANCH  45  50
BRANCH  43  52
ATOM     52  O   UNL     1      35.786  -0.564 191.288  0.00  0.00    +0.000 OA
ATOM     53  H   UNL     1      36.458  -0.167 191.879  0.00  0.00    +0.000 HD
ENDBRANCH  43  52
BRANCH  46  54
ATOM     54  C   UNL     1      33.504   3.743 192.111  0.00  0.00    +0.000 C 
BRANCH  54  55
ATOM     55  O   UNL     1      34.665   4.145 191.380  0.00  0.00    +0.000 OA
ATOM     56  H   UNL     1      34.614   5.110 191.279  0.00  0.00    +0.000 HD
ENDBRANCH  54  55
ENDBRANCH  46  54
ENDBRANCH  41  47
ENDBRANCH   3  41
TORSDOF 17
ENDMDL
MODEL 5
REMARK VINA RESULT:      -7.9      2.517     10.301
REMARK  Name = 
REMARK  21 active torsions:
REMARK  status: ('A' for Active; 'I' for Inactive)
REMARK    1  A    between atoms: O_3  and  C_22
REMARK    2  A    between atoms: O_3  and  C_28
REMARK    3  A    between atoms: O_4  and  C_25
REMARK    4  A    between atoms: O_4  and  C_30
REMARK    5  A    between atoms: O_5  and  C_16
REMARK    6  A    between atoms: O_6  and  C_17
REMARK    7  A    between atoms: O_7  and  C_18
REMARK    8  A    between atoms: O_8  and  C_20
REMARK    9  A    between atoms: O_9  and  C_21
REMARK   10  A    between atoms: O_10  and  C_23
REMARK   11  A    between atoms: O_11  and  C_26
REMARK   12  A    between atoms: O_13  and  C_36
REMARK   13  A    between atoms: O_15  and  C_45
REMARK   14  A    between atoms: O_15  and  C_48
REMARK   15  A    between atoms: C_19  and  C_26
REMARK   16  A    between atoms: C_24  and  C_27
REMARK   17  A    between atoms: C_29  and  C_37
REMARK   18  A    between atoms: C_35  and  C_38
REMARK   19  A    between atoms: C_37  and  C_39
REMARK   20  A    between atoms: C_42  and  C_46
REMARK   21  A    between atoms: C_42  and  C_47
REMARK                            x       y       z     vdW  Elec       q    Type
REMARK                         _______ _______ _______ _____ _____    ______ ____
ROOT
ATOM      1  O   UNL     1      21.956   0.386 192.204  0.00  0.00    +0.000 OA
ATOM      2  O   UNL     1      25.477   0.346 194.224  0.00  0.00    +0.000 OA
ATOM      3  C   UNL     1      20.825  -1.140 195.331  0.00  0.00    +0.000 A 
ATOM      4  C   UNL     1      20.798  -0.613 194.028  0.00  0.00    +0.000 A 
ATOM      5  C   UNL     1      24.325   0.865 192.210  0.00  0.00    +0.000 A 
ATOM      6  C   UNL     1      22.002  -0.126 193.479  0.00  0.00    +0.000 A 
ATOM      7  C   UNL     1      23.185  -0.159 194.216  0.00  0.00    +0.000 A 
ATOM      8  C   UNL     1      24.418   0.349 193.599  0.00  0.00    +0.000 A 
ATOM      9  C   UNL     1      22.003  -1.134 196.085  0.00  0.00    +0.000 A 
ATOM     10  C   UNL     1      23.124   0.819 191.606  0.00  0.00    +0.000 A 
ATOM     11  C   UNL     1      23.181  -0.658 195.521  0.00  0.00    +0.000 A 
ENDROOT
BRANCH  10  12
ATOM     12  C   UNL     1      22.922   1.282 190.225  0.00  0.00    +0.000 A 
ATOM     13  C   UNL     1      23.494   0.575 189.161  0.00  0.00    +0.000 A 
ATOM     14  C   UNL     1      22.174   2.433 189.948  0.00  0.00    +0.000 A 
ATOM     15  C   UNL     1      23.304   1.005 187.846  0.00  0.00    +0.000 A 
ATOM     16  C   UNL     1      21.983   2.861 188.629  0.00  0.00    +0.000 A 
ATOM     17  C   UNL     1      22.543   2.144 187.571  0.00  0.00    +0.000 A 
BRANCH  17  18
ATOM     18  O   UNL     1      22.431   2.450 186.244  0.00  0.00    +0.000 OA
ATOM     19  C   UNL     1      21.268   3.164 185.846  0.00  0.00    +0.000 C 
ENDBRANCH  17  18
ENDBRANCH  10  12
BRANCH  11  20
ATOM     20  O   UNL     1      24.297  -0.703 196.312  0.00  0.00    +0.000 OA
ATOM     21  H   UNL     1      24.987  -0.134 195.904  0.00  0.00    +0.000 HD
ENDBRANCH  11  20
BRANCH   4  22
ATOM     22  C   UNL     1      19.523  -0.599 193.207  0.00  0.00    +0.000 C 
BRANCH  22  23
ATOM     23  C   UNL     1      19.078   0.798 192.862  0.00  0.00    +0.000 C 
ATOM     24  C   UNL     1      18.753   1.306 191.657  0.00  0.00    +0.000 C 
ATOM     25  C   UNL     1      18.763   0.551 190.357  0.00  0.00    +0.000 C 
ATOM     26  C   UNL     1      18.326   2.745 191.528  0.00  0.00    +0.000 C 
ENDBRANCH  22  23
ENDBRANCH   4  22
BRANCH   5  27
ATOM     27  O   UNL     1      25.473   1.294 191.569  0.00  0.00    +0.000 OA
BRANCH  27  33
ATOM     28  O   UNL     1      25.385   3.513 190.743  0.00  0.00    +0.000 OA
ATOM     29  C   UNL     1      28.104   2.564 190.885  0.00  0.00    +0.000 C 
ATOM     30  C   UNL     1      27.616   3.449 189.732  0.00  0.00    +0.000 C 
ATOM     31  C   UNL     1      27.280   2.802 192.150  0.00  0.00    +0.000 C 
ATOM     32  C   UNL     1      26.108   3.254 189.532  0.00  0.00    +0.000 C 
ATOM     33  C   UNL     1      25.774   2.669 191.837  0.00  0.00    +0.000 C 
ATOM     34  C   UNL     1      25.559   4.194 188.463  0.00  0.00    +0.000 C 
BRANCH  29  35
ATOM     35  O   UNL     1      29.490   2.867 191.133  0.00  0.00    +0.000 OA
ATOM     36  H   UNL     1      29.945   1.999 191.109  0.00  0.00    +0.000 HD
ENDBRANCH  29  35
BRANCH  30  37
ATOM     37  O   UNL     1      28.344   3.106 188.547  0.00  0.00    +0.000 OA
ATOM     38  H   UNL     1      28.433   3.945 188.049  0.00  0.00    +0.000 HD
ENDBRANCH  30  37
BRANCH  31  39
ATOM     39  O   UNL     1      27.621   4.111 192.652  0.00  0.00    +0.000 OA
ATOM     40  H   UNL     1      27.046   4.753 192.195  0.00  0.00    +0.000 HD
ENDBRANCH  31  39
ENDBRANCH  27  33
ENDBRANCH   5  27
BRANCH   3  41
ATOM     41  O   UNL     1      19.655  -1.570 195.904  0.00  0.00    +0.000 OA
BRANCH  41  47
ATOM     42  O   UNL     1      19.285  -2.040 198.193  0.00  0.00    +0.000 OA
ATOM     43  C   UNL     1      17.808   0.385 198.504  0.00  0.00    +0.000 C 
ATOM     44  C   UNL     1      17.765  -0.725 199.557  0.00  0.00    +0.000 C 
ATOM     45  C   UNL     1      18.152  -0.180 197.127  0.00  0.00    +0.000 C 
ATOM     46  C   UNL     1      19.078  -1.519 199.518  0.00  0.00    +0.000 C 
ATOM     47  C   UNL     1      19.445  -1.011 197.218  0.00  0.00    +0.000 C 
BRANCH  44  48
ATOM     48  O   UNL     1      17.546  -0.141 200.843  0.00  0.00    +0.000 OA
ATOM     49  H   UNL     1      17.505  -0.897 201.464  0.00  0.00    +0.000 HD
ENDBRANCH  44  48
BRANCH  45  50
ATOM     50  O   UNL     1      18.278   0.915 196.204  0.00  0.00    +0.000 OA
ATOM     51  H   UNL     1      17.772   1.654 196.596  0.00  0.00    +0.000 HD
ENDBRANCH  45  50
BRANCH  43  52
ATOM     52  O   UNL     1      16.532   1.044 198.468  0.00  0.00    +0.000 OA
ATOM     53  H   UNL     1      16.731   1.993 198.599  0.00  0.00    +0.000 HD
ENDBRANCH  43  52
BRANCH  46  54
ATOM     54  C   UNL     1      19.045  -2.695 200.503  0.00  0.00    +0.000 C 
BRANCH  54  55
ATOM     55  O   UNL     1      18.317  -3.785 199.930  0.00  0.00    +0.000 OA
ATOM     56  H   UNL     1      17.898  -4.262 200.665  0.00  0.00    +0.000 HD
ENDBRANCH  54  55
ENDBRANCH  46  54
ENDBRANCH  41  47
ENDBRANCH   3  41
TORSDOF 17
ENDMDL
MODEL 6
REMARK VINA RESULT:      -7.8      3.053      5.875
REMARK  Name = 
REMARK  21 active torsions:
REMARK  status: ('A' for Active; 'I' for Inactive)
REMARK    1  A    between atoms: O_3  and  C_22
REMARK    2  A    between atoms: O_3  and  C_28
REMARK    3  A    between atoms: O_4  and  C_25
REMARK    4  A    between atoms: O_4  and  C_30
REMARK    5  A    between atoms: O_5  and  C_16
REMARK    6  A    between atoms: O_6  and  C_17
REMARK    7  A    between atoms: O_7  and  C_18
REMARK    8  A    between atoms: O_8  and  C_20
REMARK    9  A    between atoms: O_9  and  C_21
REMARK   10  A    between atoms: O_10  and  C_23
REMARK   11  A    between atoms: O_11  and  C_26
REMARK   12  A    between atoms: O_13  and  C_36
REMARK   13  A    between atoms: O_15  and  C_45
REMARK   14  A    between atoms: O_15  and  C_48
REMARK   15  A    between atoms: C_19  and  C_26
REMARK   16  A    between atoms: C_24  and  C_27
REMARK   17  A    between atoms: C_29  and  C_37
REMARK   18  A    between atoms: C_35  and  C_38
REMARK   19  A    between atoms: C_37  and  C_39
REMARK   20  A    between atoms: C_42  and  C_46
REMARK   21  A    between atoms: C_42  and  C_47
REMARK                            x       y       z     vdW  Elec       q    Type
REMARK                         _______ _______ _______ _____ _____    ______ ____
ROOT
ATOM      1  O   UNL     1      25.160   2.472 189.987  0.00  0.00    +0.000 OA
ATOM      2  O   UNL     1      22.628  -0.197 191.703  0.00  0.00    +0.000 OA
ATOM      3  C   UNL     1      27.402   1.076 192.519  0.00  0.00    +0.000 A 
ATOM      4  C   UNL     1      26.934   1.864 191.452  0.00  0.00    +0.000 A 
ATOM      5  C   UNL     1      22.946   1.507 190.075  0.00  0.00    +0.000 A 
ATOM      6  C   UNL     1      25.600   1.693 191.031  0.00  0.00    +0.000 A 
ATOM      7  C   UNL     1      24.770   0.759 191.651  0.00  0.00    +0.000 A 
ATOM      8  C   UNL     1      23.384   0.624 191.186  0.00  0.00    +0.000 A 
ATOM      9  C   UNL     1      26.583   0.111 193.113  0.00  0.00    +0.000 A 
ATOM     10  C   UNL     1      23.843   2.379 189.581  0.00  0.00    +0.000 A 
ATOM     11  C   UNL     1      25.267  -0.035 192.688  0.00  0.00    +0.000 A 
ENDROOT
BRANCH  10  12
ATOM     12  C   UNL     1      23.510   3.315 188.497  0.00  0.00    +0.000 A 
ATOM     13  C   UNL     1      23.186   2.825 187.227  0.00  0.00    +0.000 A 
ATOM     14  C   UNL     1      23.524   4.700 188.705  0.00  0.00    +0.000 A 
ATOM     15  C   UNL     1      22.865   3.707 186.192  0.00  0.00    +0.000 A 
ATOM     16  C   UNL     1      23.199   5.582 187.667  0.00  0.00    +0.000 A 
ATOM     17  C   UNL     1      22.862   5.088 186.407  0.00  0.00    +0.000 A 
BRANCH  17  18
ATOM     18  O   UNL     1      22.524   5.836 185.314  0.00  0.00    +0.000 OA
ATOM     19  C   UNL     1      22.521   5.170 184.057  0.00  0.00    +0.000 C 
ENDBRANCH  17  18
ENDBRANCH  10  12
BRANCH  11  20
ATOM     20  O   UNL     1      24.521  -0.986 193.330  0.00  0.00    +0.000 OA
ATOM     21  H   UNL     1      23.571  -0.747 193.239  0.00  0.00    +0.000 HD
ENDBRANCH  11  20
BRANCH   4  22
ATOM     22  C   UNL     1      27.818   2.903 190.790  0.00  0.00    +0.000 C 
BRANCH  22  23
ATOM     23  C   UNL     1      28.644   2.324 189.671  0.00  0.00    +0.000 C 
ATOM     24  C   UNL     1      29.584   2.928 188.917  0.00  0.00    +0.000 C 
ATOM     25  C   UNL     1      30.022   4.360 189.047  0.00  0.00    +0.000 C 
ATOM     26  C   UNL     1      30.302   2.161 187.838  0.00  0.00    +0.000 C 
ENDBRANCH  22  23
ENDBRANCH   4  22
BRANCH   5  27
ATOM     27  O   UNL     1      21.631   1.457 189.649  0.00  0.00    +0.000 OA
BRANCH  27  33
ATOM     28  O   UNL     1      20.224   2.296 191.361  0.00  0.00    +0.000 OA
ATOM     29  C   UNL     1      18.752   1.877 188.917  0.00  0.00    +0.000 C 
ATOM     30  C   UNL     1      18.141   1.575 190.291  0.00  0.00    +0.000 C 
ATOM     31  C   UNL     1      19.832   2.954 189.018  0.00  0.00    +0.000 C 
ATOM     32  C   UNL     1      19.255   1.241 191.291  0.00  0.00    +0.000 C 
ATOM     33  C   UNL     1      20.860   2.576 190.105  0.00  0.00    +0.000 C 
ATOM     34  C   UNL     1      18.700   1.037 192.697  0.00  0.00    +0.000 C 
BRANCH  29  35
ATOM     35  O   UNL     1      17.697   2.314 188.039  0.00  0.00    +0.000 OA
ATOM     36  H   UNL     1      18.132   2.445 187.170  0.00  0.00    +0.000 HD
ENDBRANCH  29  35
BRANCH  30  37
ATOM     37  O   UNL     1      17.220   0.486 190.157  0.00  0.00    +0.000 OA
ATOM     38  H   UNL     1      16.333   0.885 190.267  0.00  0.00    +0.000 HD
ENDBRANCH  30  37
BRANCH  31  39
ATOM     39  O   UNL     1      19.173   4.206 189.301  0.00  0.00    +0.000 OA
ATOM     40  H   UNL     1      19.837   4.912 189.191  0.00  0.00    +0.000 HD
ENDBRANCH  31  39
ENDBRANCH  27  33
ENDBRANCH   5  27
BRANCH   3  41
ATOM     41  O   UNL     1      28.712   1.188 192.910  0.00  0.00    +0.000 OA
BRANCH  41  47
ATOM     42  O   UNL     1      29.595  -0.000 194.756  0.00  0.00    +0.000 OA
ATOM     43  C   UNL     1      31.229  -1.576 193.023  0.00  0.00    +0.000 C 
ATOM     44  C   UNL     1      31.465  -1.534 194.535  0.00  0.00    +0.000 C 
ATOM     45  C   UNL     1      30.536  -0.304 192.541  0.00  0.00    +0.000 C 
ATOM     46  C   UNL     1      30.141  -1.235 195.251  0.00  0.00    +0.000 C 
ATOM     47  C   UNL     1      29.260  -0.065 193.370  0.00  0.00    +0.000 C 
BRANCH  44  48
ATOM     48  O   UNL     1      32.017  -2.783 194.957  0.00  0.00    +0.000 OA
ATOM     49  H   UNL     1      32.203  -2.672 195.912  0.00  0.00    +0.000 HD
ENDBRANCH  44  48
BRANCH  45  50
ATOM     50  O   UNL     1      30.251  -0.443 191.140  0.00  0.00    +0.000 OA
ATOM     51  H   UNL     1      29.413   0.039 190.988  0.00  0.00    +0.000 HD
ENDBRANCH  45  50
BRANCH  43  52
ATOM     52  O   UNL     1      32.493  -1.738 192.358  0.00  0.00    +0.000 OA
ATOM     53  H   UNL     1      33.007  -2.343 192.931  0.00  0.00    +0.000 HD
ENDBRANCH  43  52
BRANCH  46  54
ATOM     54  C   UNL     1      30.347  -1.102 196.766  0.00  0.00    +0.000 C 
BRANCH  54  55
ATOM     55  O   UNL     1      30.362  -2.399 197.367  0.00  0.00    +0.000 OA
ATOM     56  H   UNL     1      31.157  -2.853 197.040  0.00  0.00    +0.000 HD
ENDBRANCH  54  55
ENDBRANCH  46  54
ENDBRANCH  41  47
ENDBRANCH   3  41
TORSDOF 17
ENDMDL
MODEL 7
REMARK VINA RESULT:      -7.5      3.130      6.469
REMARK  Name = 
REMARK  21 active torsions:
REMARK  status: ('A' for Active; 'I' for Inactive)
REMARK    1  A    between atoms: O_3  and  C_22
REMARK    2  A    between atoms: O_3  and  C_28
REMARK    3  A    between atoms: O_4  and  C_25
REMARK    4  A    between atoms: O_4  and  C_30
REMARK    5  A    between atoms: O_5  and  C_16
REMARK    6  A    between atoms: O_6  and  C_17
REMARK    7  A    between atoms: O_7  and  C_18
REMARK    8  A    between atoms: O_8  and  C_20
REMARK    9  A    between atoms: O_9  and  C_21
REMARK   10  A    between atoms: O_10  and  C_23
REMARK   11  A    between atoms: O_11  and  C_26
REMARK   12  A    between atoms: O_13  and  C_36
REMARK   13  A    between atoms: O_15  and  C_45
REMARK   14  A    between atoms: O_15  and  C_48
REMARK   15  A    between atoms: C_19  and  C_26
REMARK   16  A    between atoms: C_24  and  C_27
REMARK   17  A    between atoms: C_29  and  C_37
REMARK   18  A    between atoms: C_35  and  C_38
REMARK   19  A    between atoms: C_37  and  C_39
REMARK   20  A    between atoms: C_42  and  C_46
REMARK   21  A    between atoms: C_42  and  C_47
REMARK                            x       y       z     vdW  Elec       q    Type
REMARK                         _______ _______ _______ _____ _____    ______ ____
ROOT
ATOM      1  O   UNL     1      24.718   2.519 191.834  0.00  0.00    +0.000 OA
ATOM      2  O   UNL     1      26.097   3.325 188.102  0.00  0.00    +0.000 OA
ATOM      3  C   UNL     1      28.296   2.742 192.564  0.00  0.00    +0.000 A 
ATOM      4  C   UNL     1      26.913   2.573 192.752  0.00  0.00    +0.000 A 
ATOM      5  C   UNL     1      24.226   2.849 189.491  0.00  0.00    +0.000 A 
ATOM      6  C   UNL     1      26.066   2.687 191.630  0.00  0.00    +0.000 A 
ATOM      7  C   UNL     1      26.590   2.969 190.369  0.00  0.00    +0.000 A 
ATOM      8  C   UNL     1      25.672   3.067 189.227  0.00  0.00    +0.000 A 
ATOM      9  C   UNL     1      28.816   3.066 191.306  0.00  0.00    +0.000 A 
ATOM     10  C   UNL     1      23.859   2.563 190.752  0.00  0.00    +0.000 A 
ATOM     11  C   UNL     1      27.965   3.164 190.211  0.00  0.00    +0.000 A 
ENDROOT
BRANCH  10  12
ATOM     12  C   UNL     1      22.459   2.307 191.122  0.00  0.00    +0.000 A 
ATOM     13  C   UNL     1      21.856   1.093 190.775  0.00  0.00    +0.000 A 
ATOM     14  C   UNL     1      21.704   3.265 191.810  0.00  0.00    +0.000 A 
ATOM     15  C   UNL     1      20.528   0.840 191.126  0.00  0.00    +0.000 A 
ATOM     16  C   UNL     1      20.374   3.008 192.163  0.00  0.00    +0.000 A 
ATOM     17  C   UNL     1      19.782   1.791 191.827  0.00  0.00    +0.000 A 
BRANCH  17  18
ATOM     18  O   UNL     1      18.499   1.414 192.113  0.00  0.00    +0.000 OA
ATOM     19  C   UNL     1      17.563   1.461 191.043  0.00  0.00    +0.000 C 
ENDBRANCH  17  18
ENDBRANCH  10  12
BRANCH  11  20
ATOM     20  O   UNL     1      28.548   3.465 189.011  0.00  0.00    +0.000 OA
ATOM     21  H   UNL     1      28.180   4.319 188.694  0.00  0.00    +0.000 HD
ENDBRANCH  11  20
BRANCH   4  22
ATOM     22  C   UNL     1      26.336   2.237 194.114  0.00  0.00    +0.000 C 
BRANCH  22  23
ATOM     23  C   UNL     1      26.287   0.752 194.365  0.00  0.00    +0.000 C 
ATOM     24  C   UNL     1      25.210  -0.057 194.426  0.00  0.00    +0.000 C 
ATOM     25  C   UNL     1      23.781   0.371 194.243  0.00  0.00    +0.000 C 
ATOM     26  C   UNL     1      25.381  -1.531 194.689  0.00  0.00    +0.000 C 
ENDBRANCH  22  23
ENDBRANCH   4  22
BRANCH   5  27
ATOM     27  O   UNL     1      23.335   2.870 188.434  0.00  0.00    +0.000 OA
BRANCH  27  33
ATOM     28  O   UNL     1      21.869   4.731 188.470  0.00  0.00    +0.000 OA
ATOM     29  C   UNL     1      21.836   3.431 185.895  0.00  0.00    +0.000 C 
ATOM     30  C   UNL     1      20.562   4.005 186.527  0.00  0.00    +0.000 C 
ATOM     31  C   UNL     1      23.080   4.163 186.399  0.00  0.00    +0.000 C 
ATOM     32  C   UNL     1      20.699   4.011 188.055  0.00  0.00    +0.000 C 
ATOM     33  C   UNL     1      23.091   4.194 187.943  0.00  0.00    +0.000 C 
ATOM     34  C   UNL     1      19.497   4.672 188.721  0.00  0.00    +0.000 C 
BRANCH  29  35
ATOM     35  O   UNL     1      21.730   3.562 184.465  0.00  0.00    +0.000 OA
ATOM     36  H   UNL     1      20.914   3.073 184.229  0.00  0.00    +0.000 HD
ENDBRANCH  29  35
BRANCH  30  37
ATOM     37  O   UNL     1      19.443   3.214 186.110  0.00  0.00    +0.000 OA
ATOM     38  H   UNL     1      19.608   2.322 186.478  0.00  0.00    +0.000 HD
ENDBRANCH  30  37
BRANCH  31  39
ATOM     39  O   UNL     1      23.068   5.487 185.826  0.00  0.00    +0.000 OA
ATOM     40  H   UNL     1      23.937   5.889 186.013  0.00  0.00    +0.000 HD
ENDBRANCH  31  39
ENDBRANCH  27  33
ENDBRANCH   5  27
BRANCH   3  41
ATOM     41  O   UNL     1      29.131   2.689 193.650  0.00  0.00    +0.000 OA
BRANCH  41  47
ATOM     42  O   UNL     1      29.852   0.452 193.927  0.00  0.00    +0.000 OA
ATOM     43  C   UNL     1      32.558   1.310 194.240  0.00  0.00    +0.000 C 
ATOM     44  C   UNL     1      32.113  -0.105 194.618  0.00  0.00    +0.000 C 
ATOM     45  C   UNL     1      31.388   2.289 194.310  0.00  0.00    +0.000 C 
ATOM     46  C   UNL     1      30.908  -0.509 193.756  0.00  0.00    +0.000 C 
ATOM     47  C   UNL     1      30.215   1.753 193.468  0.00  0.00    +0.000 C 
BRANCH  44  48
ATOM     48  O   UNL     1      33.210  -1.003 194.436  0.00  0.00    +0.000 OA
ATOM     49  H   UNL     1      33.498  -0.871 193.509  0.00  0.00    +0.000 HD
ENDBRANCH  44  48
BRANCH  45  50
ATOM     50  O   UNL     1      31.840   3.574 193.850  0.00  0.00    +0.000 OA
ATOM     51  H   UNL     1      32.602   3.395 193.264  0.00  0.00    +0.000 HD
ENDBRANCH  45  50
BRANCH  43  52
ATOM     52  O   UNL     1      33.607   1.723 195.131  0.00  0.00    +0.000 OA
ATOM     53  H   UNL     1      33.972   2.539 194.735  0.00  0.00    +0.000 HD
ENDBRANCH  43  52
BRANCH  46  54
ATOM     54  C   UNL     1      30.378  -1.891 194.160  0.00  0.00    +0.000 C 
BRANCH  54  55
ATOM     55  O   UNL     1      31.226  -2.910 193.623  0.00  0.00    +0.000 OA
ATOM     56  H   UNL     1      31.953  -2.458 193.163  0.00  0.00    +0.000 HD
ENDBRANCH  54  55
ENDBRANCH  46  54
ENDBRANCH  41  47
ENDBRANCH   3  41
TORSDOF 17
ENDMDL
MODEL 8
REMARK VINA RESULT:      -7.5      2.084      2.930
REMARK  Name = 
REMARK  21 active torsions:
REMARK  status: ('A' for Active; 'I' for Inactive)
REMARK    1  A    between atoms: O_3  and  C_22
REMARK    2  A    between atoms: O_3  and  C_28
REMARK    3  A    between atoms: O_4  and  C_25
REMARK    4  A    between atoms: O_4  and  C_30
REMARK    5  A    between atoms: O_5  and  C_16
REMARK    6  A    between atoms: O_6  and  C_17
REMARK    7  A    between atoms: O_7  and  C_18
REMARK    8  A    between atoms: O_8  and  C_20
REMARK    9  A    between atoms: O_9  and  C_21
REMARK   10  A    between atoms: O_10  and  C_23
REMARK   11  A    between atoms: O_11  and  C_26
REMARK   12  A    between atoms: O_13  and  C_36
REMARK   13  A    between atoms: O_15  and  C_45
REMARK   14  A    between atoms: O_15  and  C_48
REMARK   15  A    between atoms: C_19  and  C_26
REMARK   16  A    between atoms: C_24  and  C_27
REMARK   17  A    between atoms: C_29  and  C_37
REMARK   18  A    between atoms: C_35  and  C_38
REMARK   19  A    between atoms: C_37  and  C_39
REMARK   20  A    between atoms: C_42  and  C_46
REMARK   21  A    between atoms: C_42  and  C_47
REMARK                            x       y       z     vdW  Elec       q    Type
REMARK                         _______ _______ _______ _____ _____    ______ ____
ROOT
ATOM      1  O   UNL     1      25.402   0.632 190.927  0.00  0.00    +0.000 OA
ATOM      2  O   UNL     1      27.536  -1.147 193.887  0.00  0.00    +0.000 OA
ATOM      3  C   UNL     1      28.761   0.975 189.519  0.00  0.00    +0.000 A 
ATOM      4  C   UNL     1      27.364   1.065 189.652  0.00  0.00    +0.000 A 
ATOM      5  C   UNL     1      25.409  -0.444 193.091  0.00  0.00    +0.000 A 
ATOM      6  C   UNL     1      26.768   0.535 190.815  0.00  0.00    +0.000 A 
ATOM      7  C   UNL     1      27.546  -0.070 191.802  0.00  0.00    +0.000 A 
ATOM      8  C   UNL     1      26.883  -0.597 193.001  0.00  0.00    +0.000 A 
ATOM      9  C   UNL     1      29.536   0.332 190.489  0.00  0.00    +0.000 A 
ATOM     10  C   UNL     1      24.784   0.179 192.077  0.00  0.00    +0.000 A 
ATOM     11  C   UNL     1      28.929  -0.175 191.633  0.00  0.00    +0.000 A 
ENDROOT
BRANCH  10  12
ATOM     12  C   UNL     1      23.330   0.405 192.072  0.00  0.00    +0.000 A 
ATOM     13  C   UNL     1      22.454  -0.684 192.129  0.00  0.00    +0.000 A 
ATOM     14  C   UNL     1      22.797   1.698 191.998  0.00  0.00    +0.000 A 
ATOM     15  C   UNL     1      21.073  -0.478 192.130  0.00  0.00    +0.000 A 
ATOM     16  C   UNL     1      21.413   1.902 192.002  0.00  0.00    +0.000 A 
ATOM     17  C   UNL     1      20.544   0.813 192.073  0.00  0.00    +0.000 A 
BRANCH  17  18
ATOM     18  O   UNL     1      19.178   0.873 192.087  0.00  0.00    +0.000 OA
ATOM     19  C   UNL     1      18.577   1.971 191.412  0.00  0.00    +0.000 C 
ENDBRANCH  17  18
ENDBRANCH  10  12
BRANCH  11  20
ATOM     20  O   UNL     1      29.754  -0.773 192.546  0.00  0.00    +0.000 OA
ATOM     21  H   UNL     1      30.628  -0.324 192.515  0.00  0.00    +0.000 HD
ENDBRANCH  11  20
BRANCH   4  22
ATOM     22  C   UNL     1      26.512   1.747 188.599  0.00  0.00    +0.000 C 
BRANCH  22  23
ATOM     23  C   UNL     1      25.813   2.971 189.131  0.00  0.00    +0.000 C 
ATOM     24  C   UNL     1      24.509   3.303 189.042  0.00  0.00    +0.000 C 
ATOM     25  C   UNL     1      23.441   2.484 188.371  0.00  0.00    +0.000 C 
ATOM     26  C   UNL     1      24.008   4.586 189.651  0.00  0.00    +0.000 C 
ENDBRANCH  22  23
ENDBRANCH   4  22
BRANCH   5  27
ATOM     27  O   UNL     1      24.752  -0.869 194.232  0.00  0.00    +0.000 OA
BRANCH  27  33
ATOM     28  O   UNL     1      25.169  -0.798 196.563  0.00  0.00    +0.000 OA
ATOM     29  C   UNL     1      22.579   0.303 195.936  0.00  0.00    +0.000 C 
ATOM     30  C   UNL     1      22.813  -0.549 197.189  0.00  0.00    +0.000 C 
ATOM     31  C   UNL     1      23.865   1.000 195.494  0.00  0.00    +0.000 C 
ATOM     32  C   UNL     1      23.986  -1.509 196.951  0.00  0.00    +0.000 C 
ATOM     33  C   UNL     1      25.009  -0.027 195.363  0.00  0.00    +0.000 C 
ATOM     34  C   UNL     1      24.322  -2.303 198.209  0.00  0.00    +0.000 C 
BRANCH  29  35
ATOM     35  O   UNL     1      21.564   1.280 196.237  0.00  0.00    +0.000 OA
ATOM     36  H   UNL     1      21.133   1.466 195.376  0.00  0.00    +0.000 HD
ENDBRANCH  29  35
BRANCH  30  37
ATOM     37  O   UNL     1      21.610  -1.265 197.493  0.00  0.00    +0.000 OA
ATOM     38  H   UNL     1      21.248  -0.832 198.292  0.00  0.00    +0.000 HD
ENDBRANCH  30  37
BRANCH  31  39
ATOM     39  O   UNL     1      24.160   2.026 196.466  0.00  0.00    +0.000 OA
ATOM     40  H   UNL     1      23.737   1.759 197.303  0.00  0.00    +0.000 HD
ENDBRANCH  31  39
ENDBRANCH  27  33
ENDBRANCH   5  27
BRANCH   3  41
ATOM     41  O   UNL     1      29.355   1.436 188.371  0.00  0.00    +0.000 OA
BRANCH  41  47
ATOM     42  O   UNL     1      30.098   3.327 189.585  0.00  0.00    +0.000 OA
ATOM     43  C   UNL     1      31.934   4.003 187.504  0.00  0.00    +0.000 C 
ATOM     44  C   UNL     1      31.569   4.996 188.611  0.00  0.00    +0.000 C 
ATOM     45  C   UNL     1      30.817   2.982 187.295  0.00  0.00    +0.000 C 
ATOM     46  C   UNL     1      31.180   4.226 189.881  0.00  0.00    +0.000 C 
ATOM     47  C   UNL     1      30.462   2.321 188.640  0.00  0.00    +0.000 C 
BRANCH  44  48
ATOM     48  O   UNL     1      32.680   5.863 188.845  0.00  0.00    +0.000 OA
ATOM     49  H   UNL     1      32.319   6.770 188.761  0.00  0.00    +0.000 HD
ENDBRANCH  44  48
BRANCH  45  50
ATOM     50  O   UNL     1      31.256   2.020 186.321  0.00  0.00    +0.000 OA
ATOM     51  H   UNL     1      32.203   2.209 186.166  0.00  0.00    +0.000 HD
ENDBRANCH  45  50
BRANCH  43  52
ATOM     52  O   UNL     1      32.180   4.729 186.289  0.00  0.00    +0.000 OA
ATOM     53  H   UNL     1      32.045   5.669 186.523  0.00  0.00    +0.000 HD
ENDBRANCH  43  52
BRANCH  46  54
ATOM     54  C   UNL     1      30.727   5.183 190.992  0.00  0.00    +0.000 C 
BRANCH  54  55
ATOM     55  O   UNL     1      31.869   5.771 191.618  0.00  0.00    +0.000 OA
ATOM     56  H   UNL     1      31.787   6.734 191.508  0.00  0.00    +0.000 HD
ENDBRANCH  54  55
ENDBRANCH  46  54
ENDBRANCH  41  47
ENDBRANCH   3  41
TORSDOF 17
ENDMDL
MODEL 9
REMARK VINA RESULT:      -7.4      3.862     10.304
REMARK  Name = 
REMARK  21 active torsions:
REMARK  status: ('A' for Active; 'I' for Inactive)
REMARK    1  A    between atoms: O_3  and  C_22
REMARK    2  A    between atoms: O_3  and  C_28
REMARK    3  A    between atoms: O_4  and  C_25
REMARK    4  A    between atoms: O_4  and  C_30
REMARK    5  A    between atoms: O_5  and  C_16
REMARK    6  A    between atoms: O_6  and  C_17
REMARK    7  A    between atoms: O_7  and  C_18
REMARK    8  A    between atoms: O_8  and  C_20
REMARK    9  A    between atoms: O_9  and  C_21
REMARK   10  A    between atoms: O_10  and  C_23
REMARK   11  A    between atoms: O_11  and  C_26
REMARK   12  A    between atoms: O_13  and  C_36
REMARK   13  A    between atoms: O_15  and  C_45
REMARK   14  A    between atoms: O_15  and  C_48
REMARK   15  A    between atoms: C_19  and  C_26
REMARK   16  A    between atoms: C_24  and  C_27
REMARK   17  A    between atoms: C_29  and  C_37
REMARK   18  A    between atoms: C_35  and  C_38
REMARK   19  A    between atoms: C_37  and  C_39
REMARK   20  A    between atoms: C_42  and  C_46
REMARK   21  A    between atoms: C_42  and  C_47
REMARK                            x       y       z     vdW  Elec       q    Type
REMARK                         _______ _______ _______ _____ _____    ______ ____
ROOT
ATOM      1  O   UNL     1      20.309   0.827 194.491  0.00  0.00    +0.000 OA
ATOM      2  O   UNL     1      24.247  -0.149 194.339  0.00  0.00    +0.000 OA
ATOM      3  C   UNL     1      20.893   0.180 198.044  0.00  0.00    +0.000 A 
ATOM      4  C   UNL     1      20.233   0.516 196.849  0.00  0.00    +0.000 A 
ATOM      5  C   UNL     1      22.286   0.473 193.146  0.00  0.00    +0.000 A 
ATOM      6  C   UNL     1      20.971   0.494 195.648  0.00  0.00    +0.000 A 
ATOM      7  C   UNL     1      22.324   0.156 195.650  0.00  0.00    +0.000 A 
ATOM      8  C   UNL     1      23.051   0.135 194.374  0.00  0.00    +0.000 A 
ATOM      9  C   UNL     1      22.259  -0.120 198.051  0.00  0.00    +0.000 A 
ATOM     10  C   UNL     1      20.980   0.760 193.285  0.00  0.00    +0.000 A 
ATOM     11  C   UNL     1      22.967  -0.145 196.854  0.00  0.00    +0.000 A 
ENDROOT
BRANCH  10  12
ATOM     12  C   UNL     1      20.123   1.087 192.135  0.00  0.00    +0.000 A 
ATOM     13  C   UNL     1      20.023   2.411 191.692  0.00  0.00    +0.000 A 
ATOM     14  C   UNL     1      19.387   0.095 191.474  0.00  0.00    +0.000 A 
ATOM     15  C   UNL     1      19.215   2.729 190.598  0.00  0.00    +0.000 A 
ATOM     16  C   UNL     1      18.581   0.416 190.376  0.00  0.00    +0.000 A 
ATOM     17  C   UNL     1      18.496   1.735 189.930  0.00  0.00    +0.000 A 
BRANCH  17  18
ATOM     18  O   UNL     1      17.751   2.181 188.874  0.00  0.00    +0.000 OA
ATOM     19  C   UNL     1      18.457   2.807 187.810  0.00  0.00    +0.000 C 
ENDBRANCH  17  18
ENDBRANCH  10  12
BRANCH  11  20
ATOM     20  O   UNL     1      24.294  -0.465 196.938  0.00  0.00    +0.000 OA
ATOM     21  H   UNL     1      24.793   0.125 196.329  0.00  0.00    +0.000 HD
ENDBRANCH  11  20
BRANCH   4  22
ATOM     22  C   UNL     1      18.755   0.857 196.832  0.00  0.00    +0.000 C 
BRANCH  22  23
ATOM     23  C   UNL     1      17.887  -0.337 197.133  0.00  0.00    +0.000 C 
ATOM     24  C   UNL     1      16.691  -0.374 197.753  0.00  0.00    +0.000 C 
ATOM     25  C   UNL     1      15.944   0.816 198.288  0.00  0.00    +0.000 C 
ATOM     26  C   UNL     1      15.980  -1.687 197.954  0.00  0.00    +0.000 C 
ENDBRANCH  22  23
ENDBRANCH   4  22
BRANCH   5  27
ATOM     27  O   UNL     1      22.915   0.404 191.917  0.00  0.00    +0.000 OA
BRANCH  27  33
ATOM     28  O   UNL     1      22.962   2.064 190.228  0.00  0.00    +0.000 OA
ATOM     29  C   UNL     1      25.470   0.648 190.362  0.00  0.00    +0.000 C 
ATOM     30  C   UNL     1      24.860   1.086 189.025  0.00  0.00    +0.000 C 
ATOM     31  C   UNL     1      25.008   1.554 191.503  0.00  0.00    +0.000 C 
ATOM     32  C   UNL     1      23.335   1.184 189.159  0.00  0.00    +0.000 C 
ATOM     33  C   UNL     1      23.469   1.661 191.508  0.00  0.00    +0.000 C 
ATOM     34  C   UNL     1      22.696   1.719 187.882  0.00  0.00    +0.000 C 
BRANCH  29  35
ATOM     35  O   UNL     1      26.904   0.694 190.242  0.00  0.00    +0.000 OA
ATOM     36  H   UNL     1      27.138  -0.103 189.721  0.00  0.00    +0.000 HD
ENDBRANCH  29  35
BRANCH  30  37
ATOM     37  O   UNL     1      25.233   0.141 188.015  0.00  0.00    +0.000 OA
ATOM     38  H   UNL     1      25.823  -0.496 188.466  0.00  0.00    +0.000 HD
ENDBRANCH  30  37
BRANCH  31  39
ATOM     39  O   UNL     1      25.645   2.837 191.325  0.00  0.00    +0.000 OA
ATOM     40  H   UNL     1      25.992   3.109 192.194  0.00  0.00    +0.000 HD
ENDBRANCH  31  39
ENDBRANCH  27  33
ENDBRANCH   5  27
BRANCH   3  41
ATOM     41  O   UNL     1      20.207   0.247 199.230  0.00  0.00    +0.000 OA
BRANCH  41  47
ATOM     42  O   UNL     1      21.404   2.114 200.056  0.00  0.00    +0.000 OA
ATOM     43  C   UNL     1      19.178   2.887 201.671  0.00  0.00    +0.000 C 
ATOM     44  C   UNL     1      20.575   3.477 201.888  0.00  0.00    +0.000 C 
ATOM     45  C   UNL     1      19.261   1.509 201.018  0.00  0.00    +0.000 C 
ATOM     46  C   UNL     1      21.349   3.459 200.562  0.00  0.00    +0.000 C 
ATOM     47  C   UNL     1      20.113   1.594 199.738  0.00  0.00    +0.000 C 
BRANCH  44  48
ATOM     48  O   UNL     1      20.446   4.805 202.400  0.00  0.00    +0.000 OA
ATOM     49  H   UNL     1      20.615   4.725 203.362  0.00  0.00    +0.000 HD
ENDBRANCH  44  48
BRANCH  45  50
ATOM     50  O   UNL     1      17.926   1.052 200.748  0.00  0.00    +0.000 OA
ATOM     51  H   UNL     1      17.917   0.793 199.805  0.00  0.00    +0.000 HD
ENDBRANCH  45  50
BRANCH  43  52
ATOM     52  O   UNL     1      18.507   2.799 202.939  0.00  0.00    +0.000 OA
ATOM     53  H   UNL     1      18.574   1.858 203.197  0.00  0.00    +0.000 HD
ENDBRANCH  43  52
BRANCH  46  54
ATOM     54  C   UNL     1      22.784   3.965 200.752  0.00  0.00    +0.000 C 
BRANCH  54  55
ATOM     55  O   UNL     1      22.841   5.369 200.484  0.00  0.00    +0.000 OA
ATOM     56  H   UNL     1      23.180   5.469 199.579  0.00  0.00    +0.000 HD
ENDBRANCH  54  55
ENDBRANCH  46  54
ENDBRANCH  41  47
ENDBRANCH   3  41
TORSDOF 17
ENDMDL
