REMARK  Name = 
REMARK  21 active torsions:
REMARK  status: ('A' for Active; 'I' for Inactive)
REMARK    1  A    between atoms: O_3  and  C_22
REMARK    2  A    between atoms: O_3  and  C_28
REMARK    3  A    between atoms: O_4  and  C_25
REMARK    4  A    between atoms: O_4  and  C_30
REMARK    5  A    between atoms: O_5  and  C_16
REMARK    6  A    between atoms: O_6  and  C_17
REMARK    7  A    between atoms: O_7  and  C_18
REMARK    8  A    between atoms: O_8  and  C_20
REMARK    9  A    between atoms: O_9  and  C_21
REMARK   10  A    between atoms: O_10  and  C_23
REMARK   11  A    between atoms: O_11  and  C_26
REMARK   12  A    between atoms: O_13  and  C_36
REMARK   13  A    between atoms: O_15  and  C_45
REMARK   14  A    between atoms: O_15  and  C_48
REMARK   15  A    between atoms: C_19  and  C_26
REMARK   16  A    between atoms: C_24  and  C_27
REMARK   17  A    between atoms: C_29  and  C_37
REMARK   18  A    between atoms: C_35  and  C_38
REMARK   19  A    between atoms: C_37  and  C_39
REMARK   20  A    between atoms: C_42  and  C_46
REMARK   21  A    between atoms: C_42  and  C_47
REMARK                            x       y       z     vdW  Elec       q    Type
REMARK                         _______ _______ _______ _____ _____    ______ ____
ROOT
ATOM      1  O   UNL     1      -0.224   0.597  -0.561  0.00  0.00    +0.000 OA
ATOM      2  O   UNL     1      -1.219  -3.250   0.272  0.00  0.00    +0.000 OA
ATOM      3  C   UNL     1       3.013  -0.995  -1.173  0.00  0.00    +0.000 A 
ATOM      4  C   UNL     1       2.024  -0.001  -1.063  0.00  0.00    +0.000 A 
ATOM      5  C   UNL     1      -1.911  -0.978   0.158  0.00  0.00    +0.000 A 
ATOM      6  C   UNL     1       0.729  -0.388  -0.662  0.00  0.00    +0.000 A 
ATOM      7  C   UNL     1       0.437  -1.725  -0.391  0.00  0.00    +0.000 A 
ATOM      8  C   UNL     1      -0.923  -2.080   0.035  0.00  0.00    +0.000 A 
ATOM      9  C   UNL     1       2.709  -2.340  -0.941  0.00  0.00    +0.000 A 
ATOM     10  C   UNL     1      -1.490   0.270  -0.114  0.00  0.00    +0.000 A 
ATOM     11  C   UNL     1       1.428  -2.699  -0.537  0.00  0.00    +0.000 A 
ENDROOT
BRANCH  10  12
ATOM     12  C   UNL     1      -2.377   1.438  -0.003  0.00  0.00    +0.000 A 
ATOM     13  C   UNL     1      -2.688   2.189  -1.142  0.00  0.00    +0.000 A 
ATOM     14  C   UNL     1      -2.913   1.827   1.231  0.00  0.00    +0.000 A 
ATOM     15  C   UNL     1      -3.533   3.297  -1.046  0.00  0.00    +0.000 A 
ATOM     16  C   UNL     1      -3.762   2.936   1.324  0.00  0.00    +0.000 A 
ATOM     17  C   UNL     1      -4.080   3.673   0.183  0.00  0.00    +0.000 A 
BRANCH  17  18
ATOM     18  O   UNL     1      -4.894   4.770   0.135  0.00  0.00    +0.000 OA
ATOM     19  C   UNL     1      -5.564   5.125   1.338  0.00  0.00    +0.000 C 
ENDBRANCH  17  18
ENDBRANCH  10  12
BRANCH  11  20
ATOM     20  O   UNL     1       1.211  -4.031  -0.310  0.00  0.00    +0.000 OA
ATOM     21  H   UNL     1       0.284  -4.145  -0.003  0.00  0.00    +0.000 HD
ENDBRANCH  11  20
BRANCH   4  22
ATOM     22  C   UNL     1       2.338   1.459  -1.327  0.00  0.00    +0.000 C 
BRANCH  22  23
ATOM     23  C   UNL     1       2.490   2.252  -0.055  0.00  0.00    +0.000 C 
ATOM     24  C   UNL     1       1.790   3.328   0.356  0.00  0.00    +0.000 C 
ATOM     25  C   UNL     1       0.665   3.981  -0.398  0.00  0.00    +0.000 C 
ATOM     26  C   UNL     1       2.103   3.979   1.678  0.00  0.00    +0.000 C 
ENDBRANCH  22  23
ENDBRANCH   4  22
BRANCH   5  27
ATOM     27  O   UNL     1      -3.185  -1.259   0.617  0.00  0.00    +0.000 OA
BRANCH  27  33
ATOM     28  O   UNL     1      -4.715  -1.267  -1.192  0.00  0.00    +0.000 OA
ATOM     29  C   UNL     1      -5.941  -2.286   1.211  0.00  0.00    +0.000 C 
ATOM     30  C   UNL     1      -6.711  -1.401   0.223  0.00  0.00    +0.000 C 
ATOM     31  C   UNL     1      -4.817  -3.048   0.509  0.00  0.00    +0.000 C 
ATOM     32  C   UNL     1      -5.731  -0.497  -0.535  0.00  0.00    +0.000 C 
ATOM     33  C   UNL     1      -3.934  -2.071  -0.296  0.00  0.00    +0.000 C 
ATOM     34  C   UNL     1      -6.443   0.326  -1.604  0.00  0.00    +0.000 C 
BRANCH  29  35
ATOM     35  O   UNL     1      -6.869  -3.211   1.808  0.00  0.00    +0.000 OA
ATOM     36  H   UNL     1      -6.934  -3.950   1.167  0.00  0.00    +0.000 HD
ENDBRANCH  29  35
BRANCH  30  37
ATOM     37  O   UNL     1      -7.674  -0.628   0.949  0.00  0.00    +0.000 OA
ATOM     38  H   UNL     1      -8.103  -1.261   1.560  0.00  0.00    +0.000 HD
ENDBRANCH  30  37
BRANCH  31  39
ATOM     39  O   UNL     1      -5.429  -4.050  -0.330  0.00  0.00    +0.000 OA
ATOM     40  H   UNL     1      -4.709  -4.513  -0.797  0.00  0.00    +0.000 HD
ENDBRANCH  31  39
ENDBRANCH  27  33
ENDBRANCH   5  27
BRANCH   3  41
ATOM     41  O   UNL     1       4.265  -0.648  -1.613  0.00  0.00    +0.000 OA
BRANCH  41  47
ATOM     42  O   UNL     1       5.133   0.087   0.462  0.00  0.00    +0.000 OA
ATOM     43  C   UNL     1       7.763  -0.733  -0.292  0.00  0.00    +0.000 C 
ATOM     44  C   UNL     1       7.519   0.190   0.905  0.00  0.00    +0.000 C 
ATOM     45  C   UNL     1       6.630  -0.621  -1.310  0.00  0.00    +0.000 C 
ATOM     46  C   UNL     1       6.126  -0.086   1.488  0.00  0.00    +0.000 C 
ATOM     47  C   UNL     1       5.279  -0.848  -0.606  0.00  0.00    +0.000 C 
BRANCH  44  48
ATOM     48  O   UNL     1       8.544  -0.025   1.877  0.00  0.00    +0.000 OA
ATOM     49  H   UNL     1       9.383  -0.013   1.371  0.00  0.00    +0.000 HD
ENDBRANCH  44  48
BRANCH  45  50
ATOM     50  O   UNL     1       6.861  -1.579  -2.356  0.00  0.00    +0.000 OA
ATOM     51  H   UNL     1       6.083  -1.524  -2.946  0.00  0.00    +0.000 HD
ENDBRANCH  45  50
BRANCH  43  52
ATOM     52  O   UNL     1       9.017  -0.385  -0.901  0.00  0.00    +0.000 OA
ATOM     53  H   UNL     1       9.044  -0.893  -1.737  0.00  0.00    +0.000 HD
ENDBRANCH  43  52
BRANCH  46  54
ATOM     54  C   UNL     1       5.807   0.876   2.640  0.00  0.00    +0.000 C 
BRANCH  54  55
ATOM     55  O   UNL     1       4.589   0.481   3.276  0.00  0.00    +0.000 OA
ATOM     56  H   UNL     1       4.392   1.153   3.950  0.00  0.00    +0.000 HD
ENDBRANCH  54  55
ENDBRANCH  46  54
ENDBRANCH  41  47
ENDBRANCH   3  41
TORSDOF 17
