MODEL 1
REMARK VINA RESULT:      -7.8      0.000      0.000
REMARK  Name = 
REMARK  9 active torsions:
REMARK  status: ('A' for Active; 'I' for Inactive)
REMARK    1  A    between atoms: O_1  and  N_7
REMARK    2  A    between atoms: O_1  and  C_20
REMARK    3  A    between atoms: O_2  and  C_14
REMARK    4  A    between atoms: O_3  and  C_18
REMARK    5  A    between atoms: O_4  and  C_25
REMARK    6  A    between atoms: C_8  and  C_10
REMARK    7  A    between atoms: C_17  and  C_18
REMARK    8  A    between atoms: C_17  and  C_20
REMARK    9  A    between atoms: C_18  and  C_25
REMARK                            x       y       z     vdW  Elec       q    Type
REMARK                         _______ _______ _______ _____ _____    ______ ____
ROOT
ATOM      1  N   UNL     1      22.519   2.333 187.903  0.00  0.00    +0.000 NA
ATOM      2  N   UNL     1      21.619   0.778 190.961  0.00  0.00    +0.000 NA
ATOM      3  C   UNL     1      22.823   1.657 188.983  0.00  0.00    +0.000 C 
ATOM      4  C   UNL     1      21.580   1.323 189.787  0.00  0.00    +0.000 C 
ATOM      5  C   UNL     1      20.484   1.830 188.974  0.00  0.00    +0.000 A 
ATOM      6  C   UNL     1      21.117   2.429 187.885  0.00  0.00    +0.000 A 
ATOM      7  C   UNL     1      19.108   1.820 189.118  0.00  0.00    +0.000 A 
ATOM      8  C   UNL     1      20.368   3.044 186.897  0.00  0.00    +0.000 A 
ATOM      9  C   UNL     1      18.350   2.439 188.121  0.00  0.00    +0.000 A 
ATOM     10  C   UNL     1      18.975   3.048 187.019  0.00  0.00    +0.000 A 
ENDROOT
BRANCH   3  12
ATOM     11  N   UNL     1      26.249   0.478 189.150  0.00  0.00    +0.000 N 
ATOM     12  C   UNL     1      24.199   1.339 189.288  0.00  0.00    +0.000 A 
ATOM     13  C   UNL     1      24.976   1.803 190.402  0.00  0.00    +0.000 A 
ATOM     14  C   UNL     1      26.247   1.239 190.294  0.00  0.00    +0.000 A 
ATOM     15  C   UNL     1      25.033   0.545 188.521  0.00  0.00    +0.000 A 
ATOM     16  C   UNL     1      24.713   2.643 191.506  0.00  0.00    +0.000 A 
ATOM     17  C   UNL     1      27.265   1.470 191.226  0.00  0.00    +0.000 A 
ATOM     18  C   UNL     1      25.719   2.887 192.448  0.00  0.00    +0.000 A 
ATOM     19  C   UNL     1      26.976   2.307 192.308  0.00  0.00    +0.000 A 
ATOM     20  H   UNL     1      27.055  -0.030 188.817  0.00  0.00    +0.000 HD
BRANCH  15  21
ATOM     21  O   UNL     1      24.815  -0.058 187.357  0.00  0.00    +0.000 OA
ATOM     22  H   UNL     1      24.721   0.597 186.646  0.00  0.00    +0.000 HD
ENDBRANCH  15  21
ENDBRANCH   3  12
BRANCH   2  23
ATOM     23  O   UNL     1      20.345   0.618 191.512  0.00  0.00    +0.000 OA
BRANCH  23  24
ATOM     24  C   UNL     1      20.393   1.020 192.878  0.00  0.00    +0.000 C 
BRANCH  24  25
ATOM     25  C   UNL     1      19.345   0.250 193.669  0.00  0.00    +0.000 C 
BRANCH  25  26
ATOM     26  C   UNL     1      19.539  -1.266 193.653  0.00  0.00    +0.000 C 
BRANCH  26  27
ATOM     27  O   UNL     1      19.136  -1.748 192.361  0.00  0.00    +0.000 OA
ATOM     28  H   UNL     1      18.877  -2.678 192.518  0.00  0.00    +0.000 HD
ENDBRANCH  26  27
BRANCH  26  29
ATOM     29  C   UNL     1      20.983  -1.713 193.901  0.00  0.00    +0.000 C 
BRANCH  29  30
ATOM     30  O   UNL     1      21.556  -2.088 192.643  0.00  0.00    +0.000 OA
ATOM     31  H   UNL     1      21.134  -2.927 192.385  0.00  0.00    +0.000 HD
ENDBRANCH  29  30
ENDBRANCH  26  29
ENDBRANCH  25  26
ENDBRANCH  24  25
ENDBRANCH  23  24
ENDBRANCH   2  23
TORSDOF 9
ENDMDL
MODEL 2
REMARK VINA RESULT:      -7.6      2.548      5.950
REMARK  Name = 
REMARK  9 active torsions:
REMARK  status: ('A' for Active; 'I' for Inactive)
REMARK    1  A    between atoms: O_1  and  N_7
REMARK    2  A    between atoms: O_1  and  C_20
REMARK    3  A    between atoms: O_2  and  C_14
REMARK    4  A    between atoms: O_3  and  C_18
REMARK    5  A    between atoms: O_4  and  C_25
REMARK    6  A    between atoms: C_8  and  C_10
REMARK    7  A    between atoms: C_17  and  C_18
REMARK    8  A    between atoms: C_17  and  C_20
REMARK    9  A    between atoms: C_18  and  C_25
REMARK                            x       y       z     vdW  Elec       q    Type
REMARK                         _______ _______ _______ _____ _____    ______ ____
ROOT
ATOM      1  N   UNL     1      20.472   3.738 189.858  0.00  0.00    +0.000 NA
ATOM      2  N   UNL     1      22.997   1.578 191.100  0.00  0.00    +0.000 NA
ATOM      3  C   UNL     1      20.864   2.741 190.612  0.00  0.00    +0.000 C 
ATOM      4  C   UNL     1      22.371   2.570 190.551  0.00  0.00    +0.000 C 
ATOM      5  C   UNL     1      22.821   3.674 189.714  0.00  0.00    +0.000 A 
ATOM      6  C   UNL     1      21.640   4.309 189.327  0.00  0.00    +0.000 A 
ATOM      7  C   UNL     1      24.067   4.104 189.294  0.00  0.00    +0.000 A 
ATOM      8  C   UNL     1      21.686   5.412 188.493  0.00  0.00    +0.000 A 
ATOM      9  C   UNL     1      24.115   5.219 188.453  0.00  0.00    +0.000 A 
ATOM     10  C   UNL     1      22.934   5.867 188.054  0.00  0.00    +0.000 A 
ENDROOT
BRANCH   3  12
ATOM     11  N   UNL     1      18.111   0.727 191.844  0.00  0.00    +0.000 N 
ATOM     12  C   UNL     1      19.904   1.955 191.350  0.00  0.00    +0.000 A 
ATOM     13  C   UNL     1      19.961   1.581 192.735  0.00  0.00    +0.000 A 
ATOM     14  C   UNL     1      18.822   0.827 193.016  0.00  0.00    +0.000 A 
ATOM     15  C   UNL     1      18.758   1.380 190.827  0.00  0.00    +0.000 A 
ATOM     16  C   UNL     1      20.871   1.827 193.786  0.00  0.00    +0.000 A 
ATOM     17  C   UNL     1      18.546   0.305 194.285  0.00  0.00    +0.000 A 
ATOM     18  C   UNL     1      20.613   1.314 195.062  0.00  0.00    +0.000 A 
ATOM     19  C   UNL     1      19.466   0.564 195.306  0.00  0.00    +0.000 A 
ATOM     20  H   UNL     1      17.247   0.214 191.755  0.00  0.00    +0.000 HD
BRANCH  15  21
ATOM     21  O   UNL     1      18.295   1.367 189.582  0.00  0.00    +0.000 OA
ATOM     22  H   UNL     1      18.778   2.004 189.032  0.00  0.00    +0.000 HD
ENDBRANCH  15  21
ENDBRANCH   3  12
BRANCH   2  23
ATOM     23  O   UNL     1      24.372   1.622 190.861  0.00  0.00    +0.000 OA
BRANCH  23  24
ATOM     24  C   UNL     1      25.049   1.533 192.112  0.00  0.00    +0.000 C 
BRANCH  24  25
ATOM     25  C   UNL     1      26.552   1.515 191.874  0.00  0.00    +0.000 C 
BRANCH  25  26
ATOM     26  C   UNL     1      27.080   0.195 191.311  0.00  0.00    +0.000 C 
BRANCH  26  27
ATOM     27  O   UNL     1      26.022  -0.772 191.391  0.00  0.00    +0.000 OA
ATOM     28  H   UNL     1      25.917  -1.096 190.474  0.00  0.00    +0.000 HD
ENDBRANCH  26  27
BRANCH  26  29
ATOM     29  C   UNL     1      27.541   0.279 189.852  0.00  0.00    +0.000 C 
BRANCH  29  30
ATOM     30  O   UNL     1      26.381   0.251 189.015  0.00  0.00    +0.000 OA
ATOM     31  H   UNL     1      25.636   0.560 189.562  0.00  0.00    +0.000 HD
ENDBRANCH  29  30
ENDBRANCH  26  29
ENDBRANCH  25  26
ENDBRANCH  24  25
ENDBRANCH  23  24
ENDBRANCH   2  23
TORSDOF 9
ENDMDL
MODEL 3
REMARK VINA RESULT:      -7.6      2.241      5.553
REMARK  Name = 
REMARK  9 active torsions:
REMARK  status: ('A' for Active; 'I' for Inactive)
REMARK    1  A    between atoms: O_1  and  N_7
REMARK    2  A    between atoms: O_1  and  C_20
REMARK    3  A    between atoms: O_2  and  C_14
REMARK    4  A    between atoms: O_3  and  C_18
REMARK    5  A    between atoms: O_4  and  C_25
REMARK    6  A    between atoms: C_8  and  C_10
REMARK    7  A    between atoms: C_17  and  C_18
REMARK    8  A    between atoms: C_17  and  C_20
REMARK    9  A    between atoms: C_18  and  C_25
REMARK                            x       y       z     vdW  Elec       q    Type
REMARK                         _______ _______ _______ _____ _____    ______ ____
ROOT
ATOM      1  N   UNL     1      20.644   1.705 188.453  0.00  0.00    +0.000 NA
ATOM      2  N   UNL     1      24.089   2.253 189.091  0.00  0.00    +0.000 NA
ATOM      3  C   UNL     1      21.700   1.609 189.220  0.00  0.00    +0.000 C 
ATOM      4  C   UNL     1      22.893   2.312 188.598  0.00  0.00    +0.000 C 
ATOM      5  C   UNL     1      22.358   2.914 187.385  0.00  0.00    +0.000 A 
ATOM      6  C   UNL     1      21.028   2.495 187.357  0.00  0.00    +0.000 A 
ATOM      7  C   UNL     1      22.908   3.706 186.393  0.00  0.00    +0.000 A 
ATOM      8  C   UNL     1      20.203   2.871 186.311  0.00  0.00    +0.000 A 
ATOM      9  C   UNL     1      22.077   4.087 185.336  0.00  0.00    +0.000 A 
ATOM     10  C   UNL     1      20.734   3.672 185.295  0.00  0.00    +0.000 A 
ENDROOT
BRANCH   3  12
ATOM     11  N   UNL     1      22.195  -0.431 192.178  0.00  0.00    +0.000 N 
ATOM     12  C   UNL     1      21.639   0.888 190.470  0.00  0.00    +0.000 A 
ATOM     13  C   UNL     1      20.573   0.895 191.431  0.00  0.00    +0.000 A 
ATOM     14  C   UNL     1      20.944   0.052 192.479  0.00  0.00    +0.000 A 
ATOM     15  C   UNL     1      22.637   0.078 190.984  0.00  0.00    +0.000 A 
ATOM     16  C   UNL     1      19.314   1.530 191.503  0.00  0.00    +0.000 A 
ATOM     17  C   UNL     1      20.129  -0.186 193.591  0.00  0.00    +0.000 A 
ATOM     18  C   UNL     1      18.485   1.304 192.607  0.00  0.00    +0.000 A 
ATOM     19  C   UNL     1      18.888   0.457 193.635  0.00  0.00    +0.000 A 
ATOM     20  H   UNL     1      22.715  -1.053 192.779  0.00  0.00    +0.000 HD
BRANCH  15  21
ATOM     21  O   UNL     1      23.849  -0.195 190.515  0.00  0.00    +0.000 OA
ATOM     22  H   UNL     1      23.965  -1.153 190.406  0.00  0.00    +0.000 HD
ENDBRANCH  15  21
ENDBRANCH   3  12
BRANCH   2  23
ATOM     23  O   UNL     1      25.018   2.943 188.309  0.00  0.00    +0.000 OA
BRANCH  23  24
ATOM     24  C   UNL     1      25.883   3.671 189.176  0.00  0.00    +0.000 C 
BRANCH  24  25
ATOM     25  C   UNL     1      27.198   2.920 189.327  0.00  0.00    +0.000 C 
BRANCH  25  26
ATOM     26  C   UNL     1      27.195   1.872 190.440  0.00  0.00    +0.000 C 
BRANCH  26  27
ATOM     27  O   UNL     1      25.961   2.001 191.163  0.00  0.00    +0.000 OA
ATOM     28  H   UNL     1      25.712   2.941 191.053  0.00  0.00    +0.000 HD
ENDBRANCH  26  27
BRANCH  26  29
ATOM     29  C   UNL     1      27.307   0.429 189.939  0.00  0.00    +0.000 C 
BRANCH  29  30
ATOM     30  O   UNL     1      26.304   0.225 188.938  0.00  0.00    +0.000 OA
ATOM     31  H   UNL     1      25.896   1.094 188.773  0.00  0.00    +0.000 HD
ENDBRANCH  29  30
ENDBRANCH  26  29
ENDBRANCH  25  26
ENDBRANCH  24  25
ENDBRANCH  23  24
ENDBRANCH   2  23
TORSDOF 9
ENDMDL
MODEL 4
REMARK VINA RESULT:      -7.6      2.279      6.524
REMARK  Name = 
REMARK  9 active torsions:
REMARK  status: ('A' for Active; 'I' for Inactive)
REMARK    1  A    between atoms: O_1  and  N_7
REMARK    2  A    between atoms: O_1  and  C_20
REMARK    3  A    between atoms: O_2  and  C_14
REMARK    4  A    between atoms: O_3  and  C_18
REMARK    5  A    between atoms: O_4  and  C_25
REMARK    6  A    between atoms: C_8  and  C_10
REMARK    7  A    between atoms: C_17  and  C_18
REMARK    8  A    between atoms: C_17  and  C_20
REMARK    9  A    between atoms: C_18  and  C_25
REMARK                            x       y       z     vdW  Elec       q    Type
REMARK                         _______ _______ _______ _____ _____    ______ ____
ROOT
ATOM      1  N   UNL     1      18.654   1.342 192.607  0.00  0.00    +0.000 NA
ATOM      2  N   UNL     1      21.900   0.682 191.337  0.00  0.00    +0.000 NA
ATOM      3  C   UNL     1      19.518   1.302 191.624  0.00  0.00    +0.000 C 
ATOM      4  C   UNL     1      20.840   0.711 192.080  0.00  0.00    +0.000 C 
ATOM      5  C   UNL     1      20.597   0.325 193.464  0.00  0.00    +0.000 A 
ATOM      6  C   UNL     1      19.291   0.747 193.710  0.00  0.00    +0.000 A 
ATOM      7  C   UNL     1      21.373  -0.290 194.430  0.00  0.00    +0.000 A 
ATOM      8  C   UNL     1      18.722   0.556 194.957  0.00  0.00    +0.000 A 
ATOM      9  C   UNL     1      20.801  -0.484 195.690  0.00  0.00    +0.000 A 
ATOM     10  C   UNL     1      19.485  -0.063 195.952  0.00  0.00    +0.000 A 
ENDROOT
BRANCH   3  12
ATOM     11  N   UNL     1      18.121   2.067 188.365  0.00  0.00    +0.000 N 
ATOM     12  C   UNL     1      19.167   1.802 190.315  0.00  0.00    +0.000 A 
ATOM     13  C   UNL     1      19.793   2.872 189.592  0.00  0.00    +0.000 A 
ATOM     14  C   UNL     1      19.126   3.004 188.374  0.00  0.00    +0.000 A 
ATOM     15  C   UNL     1      18.118   1.350 189.534  0.00  0.00    +0.000 A 
ATOM     16  C   UNL     1      20.878   3.736 189.853  0.00  0.00    +0.000 A 
ATOM     17  C   UNL     1      19.484   3.952 187.408  0.00  0.00    +0.000 A 
ATOM     18  C   UNL     1      21.251   4.690 188.899  0.00  0.00    +0.000 A 
ATOM     19  C   UNL     1      20.562   4.794 187.694  0.00  0.00    +0.000 A 
ATOM     20  H   UNL     1      17.467   1.954 187.606  0.00  0.00    +0.000 HD
BRANCH  15  21
ATOM     21  O   UNL     1      17.194   0.428 189.784  0.00  0.00    +0.000 OA
ATOM     22  H   UNL     1      17.600  -0.450 189.857  0.00  0.00    +0.000 HD
ENDBRANCH  15  21
ENDBRANCH   3  12
BRANCH   2  23
ATOM     23  O   UNL     1      22.997   0.131 192.003  0.00  0.00    +0.000 OA
BRANCH  23  24
ATOM     24  C   UNL     1      24.018  -0.134 191.044  0.00  0.00    +0.000 C 
BRANCH  24  25
ATOM     25  C   UNL     1      24.352   1.147 190.295  0.00  0.00    +0.000 C 
BRANCH  25  26
ATOM     26  C   UNL     1      24.534   0.961 188.788  0.00  0.00    +0.000 C 
BRANCH  26  27
ATOM     27  O   UNL     1      25.785   0.290 188.575  0.00  0.00    +0.000 OA
ATOM     28  H   UNL     1      26.033  -0.048 189.459  0.00  0.00    +0.000 HD
ENDBRANCH  26  27
BRANCH  26  29
ATOM     29  C   UNL     1      23.428   0.134 188.124  0.00  0.00    +0.000 C 
BRANCH  29  30
ATOM     30  O   UNL     1      22.210   0.885 188.188  0.00  0.00    +0.000 OA
ATOM     31  H   UNL     1      21.719   0.551 188.960  0.00  0.00    +0.000 HD
ENDBRANCH  29  30
ENDBRANCH  26  29
ENDBRANCH  25  26
ENDBRANCH  24  25
ENDBRANCH  23  24
ENDBRANCH   2  23
TORSDOF 9
ENDMDL
MODEL 5
REMARK VINA RESULT:      -7.6      2.146      5.490
REMARK  Name = 
REMARK  9 active torsions:
REMARK  status: ('A' for Active; 'I' for Inactive)
REMARK    1  A    between atoms: O_1  and  N_7
REMARK    2  A    between atoms: O_1  and  C_20
REMARK    3  A    between atoms: O_2  and  C_14
REMARK    4  A    between atoms: O_3  and  C_18
REMARK    5  A    between atoms: O_4  and  C_25
REMARK    6  A    between atoms: C_8  and  C_10
REMARK    7  A    between atoms: C_17  and  C_18
REMARK    8  A    between atoms: C_17  and  C_20
REMARK    9  A    between atoms: C_18  and  C_25
REMARK                            x       y       z     vdW  Elec       q    Type
REMARK                         _______ _______ _______ _____ _____    ______ ____
ROOT
ATOM      1  N   UNL     1      20.586   1.737 189.931  0.00  0.00    +0.000 NA
ATOM      2  N   UNL     1      23.828   2.520 191.139  0.00  0.00    +0.000 NA
ATOM      3  C   UNL     1      21.592   1.530 190.744  0.00  0.00    +0.000 C 
ATOM      4  C   UNL     1      22.675   2.575 190.553  0.00  0.00    +0.000 C 
ATOM      5  C   UNL     1      22.118   3.486 189.562  0.00  0.00    +0.000 A 
ATOM      6  C   UNL     1      20.890   2.915 189.228  0.00  0.00    +0.000 A 
ATOM      7  C   UNL     1      22.577   4.653 188.976  0.00  0.00    +0.000 A 
ATOM      8  C   UNL     1      20.079   3.515 188.281  0.00  0.00    +0.000 A 
ATOM      9  C   UNL     1      21.760   5.260 188.020  0.00  0.00    +0.000 A 
ATOM     10  C   UNL     1      20.520   4.696 187.674  0.00  0.00    +0.000 A 
ENDROOT
BRANCH   3  12
ATOM     11  N   UNL     1      22.155  -1.486 192.680  0.00  0.00    +0.000 N 
ATOM     12  C   UNL     1      21.582   0.408 191.654  0.00  0.00    +0.000 A 
ATOM     13  C   UNL     1      20.647   0.149 192.712  0.00  0.00    +0.000 A 
ATOM     14  C   UNL     1      21.024  -1.046 193.325  0.00  0.00    +0.000 A 
ATOM     15  C   UNL     1      22.517  -0.612 191.687  0.00  0.00    +0.000 A 
ATOM     16  C   UNL     1      19.501   0.814 193.199  0.00  0.00    +0.000 A 
ATOM     17  C   UNL     1      20.321  -1.608 194.396  0.00  0.00    +0.000 A 
ATOM     18  C   UNL     1      18.785   0.267 194.270  0.00  0.00    +0.000 A 
ATOM     19  C   UNL     1      19.190  -0.927 194.858  0.00  0.00    +0.000 A 
ATOM     20  H   UNL     1      22.655  -2.324 192.934  0.00  0.00    +0.000 HD
BRANCH  15  21
ATOM     21  O   UNL     1      23.619  -0.792 190.967  0.00  0.00    +0.000 OA
ATOM     22  H   UNL     1      23.545  -1.594 190.425  0.00  0.00    +0.000 HD
ENDBRANCH  15  21
ENDBRANCH   3  12
BRANCH   2  23
ATOM     23  O   UNL     1      24.665   3.573 190.761  0.00  0.00    +0.000 OA
BRANCH  23  24
ATOM     24  C   UNL     1      25.900   3.025 190.308  0.00  0.00    +0.000 C 
BRANCH  24  25
ATOM     25  C   UNL     1      25.813   2.749 188.814  0.00  0.00    +0.000 C 
BRANCH  25  26
ATOM     26  C   UNL     1      25.619   1.275 188.460  0.00  0.00    +0.000 C 
BRANCH  26  27
ATOM     27  O   UNL     1      25.618   0.525 189.685  0.00  0.00    +0.000 OA
ATOM     28  H   UNL     1      25.012   1.019 190.272  0.00  0.00    +0.000 HD
ENDBRANCH  26  27
BRANCH  26  29
ATOM     29  C   UNL     1      24.312   0.978 187.717  0.00  0.00    +0.000 C 
BRANCH  29  30
ATOM     30  O   UNL     1      23.776  -0.247 188.229  0.00  0.00    +0.000 OA
ATOM     31  H   UNL     1      24.425  -0.586 188.871  0.00  0.00    +0.000 HD
ENDBRANCH  29  30
ENDBRANCH  26  29
ENDBRANCH  25  26
ENDBRANCH  24  25
ENDBRANCH  23  24
ENDBRANCH   2  23
TORSDOF 9
ENDMDL
MODEL 6
REMARK VINA RESULT:      -7.6      2.267      5.650
REMARK  Name = 
REMARK  9 active torsions:
REMARK  status: ('A' for Active; 'I' for Inactive)
REMARK    1  A    between atoms: O_1  and  N_7
REMARK    2  A    between atoms: O_1  and  C_20
REMARK    3  A    between atoms: O_2  and  C_14
REMARK    4  A    between atoms: O_3  and  C_18
REMARK    5  A    between atoms: O_4  and  C_25
REMARK    6  A    between atoms: C_8  and  C_10
REMARK    7  A    between atoms: C_17  and  C_18
REMARK    8  A    between atoms: C_17  and  C_20
REMARK    9  A    between atoms: C_18  and  C_25
REMARK                            x       y       z     vdW  Elec       q    Type
REMARK                         _______ _______ _______ _____ _____    ______ ____
ROOT
ATOM      1  N   UNL     1      19.310   1.740 188.872  0.00  0.00    +0.000 NA
ATOM      2  N   UNL     1      22.032   3.024 190.749  0.00  0.00    +0.000 NA
ATOM      3  C   UNL     1      19.968   1.879 189.995  0.00  0.00    +0.000 C 
ATOM      4  C   UNL     1      21.146   2.821 189.826  0.00  0.00    +0.000 C 
ATOM      5  C   UNL     1      21.034   3.287 188.451  0.00  0.00    +0.000 A 
ATOM      6  C   UNL     1      19.936   2.591 187.945  0.00  0.00    +0.000 A 
ATOM      7  C   UNL     1      21.766   4.176 187.684  0.00  0.00    +0.000 A 
ATOM      8  C   UNL     1      19.541   2.775 186.631  0.00  0.00    +0.000 A 
ATOM      9  C   UNL     1      21.369   4.364 186.358  0.00  0.00    +0.000 A 
ATOM     10  C   UNL     1      20.265   3.668 185.834  0.00  0.00    +0.000 A 
ENDROOT
BRANCH   3  12
ATOM     11  N   UNL     1      18.319   0.436 192.886  0.00  0.00    +0.000 N 
ATOM     12  C   UNL     1      19.556   1.166 191.182  0.00  0.00    +0.000 A 
ATOM     13  C   UNL     1      20.319   0.214 191.938  0.00  0.00    +0.000 A 
ATOM     14  C   UNL     1      19.525  -0.214 193.001  0.00  0.00    +0.000 A 
ATOM     15  C   UNL     1      18.313   1.252 191.785  0.00  0.00    +0.000 A 
ATOM     16  C   UNL     1      21.623  -0.317 191.826  0.00  0.00    +0.000 A 
ATOM     17  C   UNL     1      19.961  -1.142 193.954  0.00  0.00    +0.000 A 
ATOM     18  C   UNL     1      22.077  -1.246 192.768  0.00  0.00    +0.000 A 
ATOM     19  C   UNL     1      21.256  -1.651 193.817  0.00  0.00    +0.000 A 
ATOM     20  H   UNL     1      17.545   0.297 193.517  0.00  0.00    +0.000 HD
BRANCH  15  21
ATOM     21  O   UNL     1      17.231   1.935 191.428  0.00  0.00    +0.000 OA
ATOM     22  H   UNL     1      16.426   1.468 191.706  0.00  0.00    +0.000 HD
ENDBRANCH  15  21
ENDBRANCH   3  12
BRANCH   2  23
ATOM     23  O   UNL     1      23.040   3.896 190.331  0.00  0.00    +0.000 OA
BRANCH  23  24
ATOM     24  C   UNL     1      24.219   3.611 191.079  0.00  0.00    +0.000 C 
BRANCH  24  25
ATOM     25  C   UNL     1      25.356   3.275 190.124  0.00  0.00    +0.000 C 
BRANCH  25  26
ATOM     26  C   UNL     1      25.563   1.777 189.902  0.00  0.00    +0.000 C 
BRANCH  26  27
ATOM     27  O   UNL     1      24.282   1.136 190.004  0.00  0.00    +0.000 OA
ATOM     28  H   UNL     1      23.896   1.219 189.109  0.00  0.00    +0.000 HD
ENDBRANCH  26  27
BRANCH  26  29
ATOM     29  C   UNL     1      26.166   1.426 188.538  0.00  0.00    +0.000 C 
BRANCH  29  30
ATOM     30  O   UNL     1      25.490   0.269 188.036  0.00  0.00    +0.000 OA
ATOM     31  H   UNL     1      25.179  -0.230 188.813  0.00  0.00    +0.000 HD
ENDBRANCH  29  30
ENDBRANCH  26  29
ENDBRANCH  25  26
ENDBRANCH  24  25
ENDBRANCH  23  24
ENDBRANCH   2  23
TORSDOF 9
ENDMDL
MODEL 7
REMARK VINA RESULT:      -7.5      2.636      5.741
REMARK  Name = 
REMARK  9 active torsions:
REMARK  status: ('A' for Active; 'I' for Inactive)
REMARK    1  A    between atoms: O_1  and  N_7
REMARK    2  A    between atoms: O_1  and  C_20
REMARK    3  A    between atoms: O_2  and  C_14
REMARK    4  A    between atoms: O_3  and  C_18
REMARK    5  A    between atoms: O_4  and  C_25
REMARK    6  A    between atoms: C_8  and  C_10
REMARK    7  A    between atoms: C_17  and  C_18
REMARK    8  A    between atoms: C_17  and  C_20
REMARK    9  A    between atoms: C_18  and  C_25
REMARK                            x       y       z     vdW  Elec       q    Type
REMARK                         _______ _______ _______ _____ _____    ______ ____
ROOT
ATOM      1  N   UNL     1      19.478   3.527 190.192  0.00  0.00    +0.000 NA
ATOM      2  N   UNL     1      22.374   1.526 190.628  0.00  0.00    +0.000 NA
ATOM      3  C   UNL     1      20.138   2.577 190.807  0.00  0.00    +0.000 C 
ATOM      4  C   UNL     1      21.558   2.469 190.281  0.00  0.00    +0.000 C 
ATOM      5  C   UNL     1      21.665   3.559 189.320  0.00  0.00    +0.000 A 
ATOM      6  C   UNL     1      20.391   4.127 189.308  0.00  0.00    +0.000 A 
ATOM      7  C   UNL     1      22.693   4.027 188.522  0.00  0.00    +0.000 A 
ATOM      8  C   UNL     1      20.116   5.199 188.477  0.00  0.00    +0.000 A 
ATOM      9  C   UNL     1      22.418   5.109 187.683  0.00  0.00    +0.000 A 
ATOM     10  C   UNL     1      21.139   5.691 187.659  0.00  0.00    +0.000 A 
ENDROOT
BRANCH   3  12
ATOM     11  N   UNL     1      18.021   0.485 192.880  0.00  0.00    +0.000 N 
ATOM     12  C   UNL     1      19.498   1.779 191.826  0.00  0.00    +0.000 A 
ATOM     13  C   UNL     1      19.996   1.475 193.138  0.00  0.00    +0.000 A 
ATOM     14  C   UNL     1      19.046   0.677 193.775  0.00  0.00    +0.000 A 
ATOM     15  C   UNL     1      18.287   1.122 191.695  0.00  0.00    +0.000 A 
ATOM     16  C   UNL     1      21.165   1.817 193.852  0.00  0.00    +0.000 A 
ATOM     17  C   UNL     1      19.202   0.203 195.083  0.00  0.00    +0.000 A 
ATOM     18  C   UNL     1      21.339   1.352 195.161  0.00  0.00    +0.000 A 
ATOM     19  C   UNL     1      20.369   0.557 195.765  0.00  0.00    +0.000 A 
ATOM     20  H   UNL     1      17.205  -0.075 193.074  0.00  0.00    +0.000 HD
BRANCH  15  21
ATOM     21  O   UNL     1      17.469   1.026 190.652  0.00  0.00    +0.000 OA
ATOM     22  H   UNL     1      17.920   0.604 189.904  0.00  0.00    +0.000 HD
ENDBRANCH  15  21
ENDBRANCH   3  12
BRANCH   2  23
ATOM     23  O   UNL     1      23.603   1.621 189.969  0.00  0.00    +0.000 OA
BRANCH  23  24
ATOM     24  C   UNL     1      24.589   0.963 190.760  0.00  0.00    +0.000 C 
BRANCH  24  25
ATOM     25  C   UNL     1      24.521   1.482 192.188  0.00  0.00    +0.000 C 
BRANCH  25  26
ATOM     26  C   UNL     1      25.205   2.834 192.395  0.00  0.00    +0.000 C 
BRANCH  26  27
ATOM     27  O   UNL     1      24.704   3.737 191.398  0.00  0.00    +0.000 OA
ATOM     28  H   UNL     1      24.559   3.175 190.611  0.00  0.00    +0.000 HD
ENDBRANCH  26  27
BRANCH  26  29
ATOM     29  C   UNL     1      24.955   3.455 193.773  0.00  0.00    +0.000 C 
BRANCH  29  30
ATOM     30  O   UNL     1      23.993   4.504 193.621  0.00  0.00    +0.000 OA
ATOM     31  H   UNL     1      24.106   5.097 194.386  0.00  0.00    +0.000 HD
ENDBRANCH  29  30
ENDBRANCH  26  29
ENDBRANCH  25  26
ENDBRANCH  24  25
ENDBRANCH  23  24
ENDBRANCH   2  23
TORSDOF 9
ENDMDL
MODEL 8
REMARK VINA RESULT:      -7.5      2.358      5.765
REMARK  Name = 
REMARK  9 active torsions:
REMARK  status: ('A' for Active; 'I' for Inactive)
REMARK    1  A    between atoms: O_1  and  N_7
REMARK    2  A    between atoms: O_1  and  C_20
REMARK    3  A    between atoms: O_2  and  C_14
REMARK    4  A    between atoms: O_3  and  C_18
REMARK    5  A    between atoms: O_4  and  C_25
REMARK    6  A    between atoms: C_8  and  C_10
REMARK    7  A    between atoms: C_17  and  C_18
REMARK    8  A    between atoms: C_17  and  C_20
REMARK    9  A    between atoms: C_18  and  C_25
REMARK                            x       y       z     vdW  Elec       q    Type
REMARK                         _______ _______ _______ _____ _____    ______ ____
ROOT
ATOM      1  N   UNL     1      19.524   2.347 190.351  0.00  0.00    +0.000 NA
ATOM      2  N   UNL     1      22.982   1.838 189.746  0.00  0.00    +0.000 NA
ATOM      3  C   UNL     1      20.750   2.163 190.772  0.00  0.00    +0.000 C 
ATOM      4  C   UNL     1      21.729   2.136 189.612  0.00  0.00    +0.000 C 
ATOM      5  C   UNL     1      20.905   2.420 188.445  0.00  0.00    +0.000 A 
ATOM      6  C   UNL     1      19.611   2.514 188.958  0.00  0.00    +0.000 A 
ATOM      7  C   UNL     1      21.181   2.567 187.098  0.00  0.00    +0.000 A 
ATOM      8  C   UNL     1      18.544   2.763 188.112  0.00  0.00    +0.000 A 
ATOM      9  C   UNL     1      20.106   2.819 186.242  0.00  0.00    +0.000 A 
ATOM     10  C   UNL     1      18.797   2.915 186.745  0.00  0.00    +0.000 A 
ENDROOT
BRANCH   3  12
ATOM     11  N   UNL     1      22.034   2.116 194.164  0.00  0.00    +0.000 N 
ATOM     12  C   UNL     1      21.027   1.997 192.180  0.00  0.00    +0.000 A 
ATOM     13  C   UNL     1      20.211   1.334 193.158  0.00  0.00    +0.000 A 
ATOM     14  C   UNL     1      20.874   1.415 194.383  0.00  0.00    +0.000 A 
ATOM     15  C   UNL     1      22.132   2.493 192.849  0.00  0.00    +0.000 A 
ATOM     16  C   UNL     1      18.973   0.657 193.114  0.00  0.00    +0.000 A 
ATOM     17  C   UNL     1      20.365   0.858 195.563  0.00  0.00    +0.000 A 
ATOM     18  C   UNL     1      18.448   0.095 194.283  0.00  0.00    +0.000 A 
ATOM     19  C   UNL     1      19.136   0.195 195.489  0.00  0.00    +0.000 A 
ATOM     20  H   UNL     1      22.699   2.340 194.889  0.00  0.00    +0.000 HD
BRANCH  15  21
ATOM     21  O   UNL     1      23.139   3.240 192.410  0.00  0.00    +0.000 OA
ATOM     22  H   UNL     1      22.904   4.181 192.440  0.00  0.00    +0.000 HD
ENDBRANCH  15  21
ENDBRANCH   3  12
BRANCH   2  23
ATOM     23  O   UNL     1      23.659   1.837 188.524  0.00  0.00    +0.000 OA
BRANCH  23  24
ATOM     24  C   UNL     1      24.631   0.796 188.551  0.00  0.00    +0.000 C 
BRANCH  24  25
ATOM     25  C   UNL     1      25.437   0.889 189.838  0.00  0.00    +0.000 C 
BRANCH  25  26
ATOM     26  C   UNL     1      26.558   1.928 189.800  0.00  0.00    +0.000 C 
BRANCH  26  27
ATOM     27  O   UNL     1      26.607   2.474 188.473  0.00  0.00    +0.000 OA
ATOM     28  H   UNL     1      26.588   3.443 188.607  0.00  0.00    +0.000 HD
ENDBRANCH  26  27
BRANCH  26  29
ATOM     29  C   UNL     1      26.369   3.085 190.787  0.00  0.00    +0.000 C 
BRANCH  29  30
ATOM     30  O   UNL     1      25.162   3.774 190.441  0.00  0.00    +0.000 OA
ATOM     31  H   UNL     1      25.236   4.669 190.818  0.00  0.00    +0.000 HD
ENDBRANCH  29  30
ENDBRANCH  26  29
ENDBRANCH  25  26
ENDBRANCH  24  25
ENDBRANCH  23  24
ENDBRANCH   2  23
TORSDOF 9
ENDMDL
MODEL 9
REMARK VINA RESULT:      -7.4      2.152      5.952
REMARK  Name = 
REMARK  9 active torsions:
REMARK  status: ('A' for Active; 'I' for Inactive)
REMARK    1  A    between atoms: O_1  and  N_7
REMARK    2  A    between atoms: O_1  and  C_20
REMARK    3  A    between atoms: O_2  and  C_14
REMARK    4  A    between atoms: O_3  and  C_18
REMARK    5  A    between atoms: O_4  and  C_25
REMARK    6  A    between atoms: C_8  and  C_10
REMARK    7  A    between atoms: C_17  and  C_18
REMARK    8  A    between atoms: C_17  and  C_20
REMARK    9  A    between atoms: C_18  and  C_25
REMARK                            x       y       z     vdW  Elec       q    Type
REMARK                         _______ _______ _______ _____ _____    ______ ____
ROOT
ATOM      1  N   UNL     1      19.805   1.027 191.509  0.00  0.00    +0.000 NA
ATOM      2  N   UNL     1      23.187   1.803 192.245  0.00  0.00    +0.000 NA
ATOM      3  C   UNL     1      21.035   1.276 191.135  0.00  0.00    +0.000 C 
ATOM      4  C   UNL     1      21.952   1.424 192.336  0.00  0.00    +0.000 C 
ATOM      5  C   UNL     1      21.093   1.138 193.477  0.00  0.00    +0.000 A 
ATOM      6  C   UNL     1      19.835   0.930 192.911  0.00  0.00    +0.000 A 
ATOM      7  C   UNL     1      21.312   1.073 194.841  0.00  0.00    +0.000 A 
ATOM      8  C   UNL     1      18.747   0.647 193.718  0.00  0.00    +0.000 A 
ATOM      9  C   UNL     1      20.216   0.786 195.658  0.00  0.00    +0.000 A 
ATOM     10  C   UNL     1      18.942   0.576 195.102  0.00  0.00    +0.000 A 
ENDROOT
BRANCH   3  12
ATOM     11  N   UNL     1      22.433   1.175 187.790  0.00  0.00    +0.000 N 
ATOM     12  C   UNL     1      21.368   1.396 189.735  0.00  0.00    +0.000 A 
ATOM     13  C   UNL     1      20.628   2.087 188.717  0.00  0.00    +0.000 A 
ATOM     14  C   UNL     1      21.325   1.941 187.518  0.00  0.00    +0.000 A 
ATOM     15  C   UNL     1      22.463   0.820 189.114  0.00  0.00    +0.000 A 
ATOM     16  C   UNL     1      19.433   2.838 188.705  0.00  0.00    +0.000 A 
ATOM     17  C   UNL     1      20.891   2.502 186.311  0.00  0.00    +0.000 A 
ATOM     18  C   UNL     1      18.983   3.407 187.509  0.00  0.00    +0.000 A 
ATOM     19  C   UNL     1      19.704   3.241 186.330  0.00  0.00    +0.000 A 
ATOM     20  H   UNL     1      23.106   0.896 187.093  0.00  0.00    +0.000 HD
BRANCH  15  21
ATOM     21  O   UNL     1      23.407   0.023 189.601  0.00  0.00    +0.000 OA
ATOM     22  H   UNL     1      23.682   0.320 190.484  0.00  0.00    +0.000 HD
ENDBRANCH  15  21
ENDBRANCH   3  12
BRANCH   2  23
ATOM     23  O   UNL     1      23.802   1.907 193.495  0.00  0.00    +0.000 OA
BRANCH  23  24
ATOM     24  C   UNL     1      25.213   1.854 193.307  0.00  0.00    +0.000 C 
BRANCH  24  25
ATOM     25  C   UNL     1      25.525   1.840 191.818  0.00  0.00    +0.000 C 
BRANCH  25  26
ATOM     26  C   UNL     1      26.356   0.640 191.364  0.00  0.00    +0.000 C 
BRANCH  26  27
ATOM     27  O   UNL     1      25.481  -0.496 191.283  0.00  0.00    +0.000 OA
ATOM     28  H   UNL     1      24.644  -0.133 190.927  0.00  0.00    +0.000 HD
ENDBRANCH  26  27
BRANCH  26  29
ATOM     29  C   UNL     1      27.027   0.825 189.999  0.00  0.00    +0.000 C 
BRANCH  29  30
ATOM     30  O   UNL     1      26.210   0.191 189.010  0.00  0.00    +0.000 OA
ATOM     31  H   UNL     1      25.985   0.876 188.355  0.00  0.00    +0.000 HD
ENDBRANCH  29  30
ENDBRANCH  26  29
ENDBRANCH  25  26
ENDBRANCH  24  25
ENDBRANCH  23  24
ENDBRANCH   2  23
TORSDOF 9
ENDMDL
