MODEL 1
REMARK VINA RESULT:      -7.7      0.000      0.000
REMARK  Name = 
REMARK  6 active torsions:
REMARK  status: ('A' for Active; 'I' for Inactive)
REMARK    1  A    between atoms: O_3  and  C_16
REMARK    2  A    between atoms: O_4  and  C_17
REMARK    3  A    between atoms: O_4  and  C_22
REMARK    4  A    between atoms: O_5  and  C_19
REMARK    5  A    between atoms: O_5  and  C_23
REMARK    6  A    between atoms: O_6  and  C_21
REMARK                            x       y       z     vdW  Elec       q    Type
REMARK                         _______ _______ _______ _____ _____    ______ ____
ROOT
ATOM      1  O   UNL     1      22.738   5.386 187.934  0.00  0.00    +0.000 OA
ATOM      2  O   UNL     1      20.962   2.230 189.505  0.00  0.00    +0.000 OA
ATOM      3  C   UNL     1      20.600   4.496 188.626  0.00  0.00    +0.000 C 
ATOM      4  C   UNL     1      21.999   4.916 189.090  0.00  0.00    +0.000 C 
ATOM      5  C   UNL     1      20.884   4.233 187.187  0.00  0.00    +0.000 A 
ATOM      6  C   UNL     1      20.071   3.343 189.454  0.00  0.00    +0.000 C 
ATOM      7  C   UNL     1      22.773   3.815 189.781  0.00  0.00    +0.000 A 
ATOM      8  C   UNL     1      22.106   4.804 186.864  0.00  0.00    +0.000 A 
ATOM      9  C   UNL     1      22.226   2.530 189.938  0.00  0.00    +0.000 A 
ATOM     10  C   UNL     1      20.115   3.608 186.220  0.00  0.00    +0.000 A 
ATOM     11  C   UNL     1      24.066   4.084 190.268  0.00  0.00    +0.000 A 
ATOM     12  C   UNL     1      22.590   4.770 185.572  0.00  0.00    +0.000 A 
ATOM     13  C   UNL     1      22.990   1.515 190.532  0.00  0.00    +0.000 A 
ATOM     14  C   UNL     1      20.601   3.555 184.906  0.00  0.00    +0.000 A 
ATOM     15  C   UNL     1      21.838   4.135 184.575  0.00  0.00    +0.000 A 
ATOM     16  C   UNL     1      24.804   3.091 190.907  0.00  0.00    +0.000 A 
ATOM     17  C   UNL     1      24.258   1.823 191.038  0.00  0.00    +0.000 A 
ENDROOT
BRANCH  12  18
ATOM     18  O   UNL     1      23.792   5.345 185.268  0.00  0.00    +0.000 OA
ATOM     19  H   UNL     1      23.665   6.298 185.430  0.00  0.00    +0.000 HD
ENDBRANCH  12  18
BRANCH  13  20
ATOM     20  O   UNL     1      22.591   0.215 190.736  0.00  0.00    +0.000 OA
ATOM     21  C   UNL     1      21.789   0.021 191.900  0.00  0.00    +0.000 C 
ENDBRANCH  13  20
BRANCH  15  22
ATOM     22  O   UNL     1      22.409   4.150 183.326  0.00  0.00    +0.000 OA
ATOM     23  C   UNL     1      21.551   3.865 182.227  0.00  0.00    +0.000 C 
ENDBRANCH  15  22
BRANCH  17  24
ATOM     24  O   UNL     1      25.001   0.861 191.669  0.00  0.00    +0.000 OA
ATOM     25  H   UNL     1      25.176   0.190 190.981  0.00  0.00    +0.000 HD
ENDBRANCH  17  24
TORSDOF 4
ENDMDL
MODEL 2
REMARK VINA RESULT:      -7.3      1.971      2.675
REMARK  Name = 
REMARK  6 active torsions:
REMARK  status: ('A' for Active; 'I' for Inactive)
REMARK    1  A    between atoms: O_3  and  C_16
REMARK    2  A    between atoms: O_4  and  C_17
REMARK    3  A    between atoms: O_4  and  C_22
REMARK    4  A    between atoms: O_5  and  C_19
REMARK    5  A    between atoms: O_5  and  C_23
REMARK    6  A    between atoms: O_6  and  C_21
REMARK                            x       y       z     vdW  Elec       q    Type
REMARK                         _______ _______ _______ _____ _____    ______ ____
ROOT
ATOM      1  O   UNL     1      22.034   3.769 189.937  0.00  0.00    +0.000 OA
ATOM      2  O   UNL     1      19.580   0.938 191.181  0.00  0.00    +0.000 OA
ATOM      3  C   UNL     1      19.722   3.277 190.443  0.00  0.00    +0.000 C 
ATOM      4  C   UNL     1      21.140   3.388 191.014  0.00  0.00    +0.000 C 
ATOM      5  C   UNL     1      20.049   3.047 189.008  0.00  0.00    +0.000 A 
ATOM      6  C   UNL     1      18.925   2.206 191.158  0.00  0.00    +0.000 C 
ATOM      7  C   UNL     1      21.639   2.118 191.669  0.00  0.00    +0.000 A 
ATOM      8  C   UNL     1      21.377   3.384 188.795  0.00  0.00    +0.000 A 
ATOM      9  C   UNL     1      20.846   0.959 191.705  0.00  0.00    +0.000 A 
ATOM     10  C   UNL     1      19.242   2.642 187.958  0.00  0.00    +0.000 A 
ATOM     11  C   UNL     1      22.922   2.099 192.246  0.00  0.00    +0.000 A 
ATOM     12  C   UNL     1      21.934   3.330 187.533  0.00  0.00    +0.000 A 
ATOM     13  C   UNL     1      21.357  -0.219 192.269  0.00  0.00    +0.000 A 
ATOM     14  C   UNL     1      19.799   2.569 186.673  0.00  0.00    +0.000 A 
ATOM     15  C   UNL     1      21.144   2.913 186.453  0.00  0.00    +0.000 A 
ATOM     16  C   UNL     1      23.409   0.946 192.855  0.00  0.00    +0.000 A 
ATOM     17  C   UNL     1      22.623  -0.195 192.866  0.00  0.00    +0.000 A 
ENDROOT
BRANCH  12  18
ATOM     18  O   UNL     1      23.242   3.674 187.338  0.00  0.00    +0.000 OA
ATOM     19  H   UNL     1      23.213   4.478 186.787  0.00  0.00    +0.000 HD
ENDBRANCH  12  18
BRANCH  13  20
ATOM     20  O   UNL     1      20.702  -1.424 192.359  0.00  0.00    +0.000 OA
ATOM     21  C   UNL     1      19.770  -1.510 193.435  0.00  0.00    +0.000 C 
ENDBRANCH  13  20
BRANCH  15  22
ATOM     22  O   UNL     1      21.792   2.887 185.243  0.00  0.00    +0.000 OA
ATOM     23  C   UNL     1      21.512   3.955 184.344  0.00  0.00    +0.000 C 
ENDBRANCH  15  22
BRANCH  17  24
ATOM     24  O   UNL     1      23.121  -1.319 193.469  0.00  0.00    +0.000 OA
ATOM     25  H   UNL     1      22.393  -1.643 194.034  0.00  0.00    +0.000 HD
ENDBRANCH  17  24
TORSDOF 4
ENDMDL
MODEL 3
REMARK VINA RESULT:      -7.3      2.235      6.444
REMARK  Name = 
REMARK  6 active torsions:
REMARK  status: ('A' for Active; 'I' for Inactive)
REMARK    1  A    between atoms: O_3  and  C_16
REMARK    2  A    between atoms: O_4  and  C_17
REMARK    3  A    between atoms: O_4  and  C_22
REMARK    4  A    between atoms: O_5  and  C_19
REMARK    5  A    between atoms: O_5  and  C_23
REMARK    6  A    between atoms: O_6  and  C_21
REMARK                            x       y       z     vdW  Elec       q    Type
REMARK                         _______ _______ _______ _____ _____    ______ ____
ROOT
ATOM      1  O   UNL     1      24.683   3.132 190.824  0.00  0.00    +0.000 OA
ATOM      2  O   UNL     1      23.231   1.457 187.558  0.00  0.00    +0.000 OA
ATOM      3  C   UNL     1      24.567   1.062 189.581  0.00  0.00    +0.000 C 
ATOM      4  C   UNL     1      25.052   2.516 189.564  0.00  0.00    +0.000 C 
ATOM      5  C   UNL     1      23.485   1.172 190.598  0.00  0.00    +0.000 A 
ATOM      6  C   UNL     1      24.176   0.598 188.193  0.00  0.00    +0.000 C 
ATOM      7  C   UNL     1      24.503   3.333 188.414  0.00  0.00    +0.000 A 
ATOM      8  C   UNL     1      23.643   2.365 191.288  0.00  0.00    +0.000 A 
ATOM      9  C   UNL     1      23.612   2.771 187.484  0.00  0.00    +0.000 A 
ATOM     10  C   UNL     1      22.483   0.281 190.944  0.00  0.00    +0.000 A 
ATOM     11  C   UNL     1      24.888   4.679 188.281  0.00  0.00    +0.000 A 
ATOM     12  C   UNL     1      22.812   2.698 192.339  0.00  0.00    +0.000 A 
ATOM     13  C   UNL     1      23.077   3.569 186.463  0.00  0.00    +0.000 A 
ATOM     14  C   UNL     1      21.623   0.613 192.000  0.00  0.00    +0.000 A 
ATOM     15  C   UNL     1      21.783   1.819 192.703  0.00  0.00    +0.000 A 
ATOM     16  C   UNL     1      24.400   5.457 187.235  0.00  0.00    +0.000 A 
ATOM     17  C   UNL     1      23.507   4.894 186.336  0.00  0.00    +0.000 A 
ENDROOT
BRANCH  12  18
ATOM     18  O   UNL     1      22.987   3.873 193.014  0.00  0.00    +0.000 OA
ATOM     19  H   UNL     1      22.164   4.375 192.867  0.00  0.00    +0.000 HD
ENDBRANCH  12  18
BRANCH  13  20
ATOM     20  O   UNL     1      22.188   3.158 185.497  0.00  0.00    +0.000 OA
ATOM     21  C   UNL     1      20.817   3.255 185.877  0.00  0.00    +0.000 C 
ENDBRANCH  13  20
BRANCH  15  22
ATOM     22  O   UNL     1      21.009   2.244 193.755  0.00  0.00    +0.000 OA
ATOM     23  C   UNL     1      20.651   1.265 194.723  0.00  0.00    +0.000 C 
ENDBRANCH  15  22
BRANCH  17  24
ATOM     24  O   UNL     1      23.038   5.676 185.314  0.00  0.00    +0.000 OA
ATOM     25  H   UNL     1      22.800   5.047 184.607  0.00  0.00    +0.000 HD
ENDBRANCH  17  24
TORSDOF 4
ENDMDL
MODEL 4
REMARK VINA RESULT:      -7.1      3.208      7.113
REMARK  Name = 
REMARK  6 active torsions:
REMARK  status: ('A' for Active; 'I' for Inactive)
REMARK    1  A    between atoms: O_3  and  C_16
REMARK    2  A    between atoms: O_4  and  C_17
REMARK    3  A    between atoms: O_4  and  C_22
REMARK    4  A    between atoms: O_5  and  C_19
REMARK    5  A    between atoms: O_5  and  C_23
REMARK    6  A    between atoms: O_6  and  C_21
REMARK                            x       y       z     vdW  Elec       q    Type
REMARK                         _______ _______ _______ _____ _____    ______ ____
ROOT
ATOM      1  O   UNL     1      21.615   1.194 193.311  0.00  0.00    +0.000 OA
ATOM      2  O   UNL     1      21.222   2.895 189.770  0.00  0.00    +0.000 OA
ATOM      3  C   UNL     1      22.361   3.041 191.942  0.00  0.00    +0.000 C 
ATOM      4  C   UNL     1      21.158   2.392 192.635  0.00  0.00    +0.000 C 
ATOM      5  C   UNL     1      23.249   1.851 191.818  0.00  0.00    +0.000 A 
ATOM      6  C   UNL     1      21.948   3.739 190.663  0.00  0.00    +0.000 C 
ATOM      7  C   UNL     1      20.021   2.050 191.697  0.00  0.00    +0.000 A 
ATOM      8  C   UNL     1      22.774   0.853 192.657  0.00  0.00    +0.000 A 
ATOM      9  C   UNL     1      20.116   2.301 190.318  0.00  0.00    +0.000 A 
ATOM     10  C   UNL     1      24.411   1.670 191.088  0.00  0.00    +0.000 A 
ATOM     11  C   UNL     1      18.852   1.465 192.218  0.00  0.00    +0.000 A 
ATOM     12  C   UNL     1      23.445  -0.345 192.793  0.00  0.00    +0.000 A 
ATOM     13  C   UNL     1      19.068   1.921 189.467  0.00  0.00    +0.000 A 
ATOM     14  C   UNL     1      25.095   0.451 191.206  0.00  0.00    +0.000 A 
ATOM     15  C   UNL     1      24.619  -0.559 192.058  0.00  0.00    +0.000 A 
ATOM     16  C   UNL     1      17.789   1.137 191.381  0.00  0.00    +0.000 A 
ATOM     17  C   UNL     1      17.905   1.374 190.020  0.00  0.00    +0.000 A 
ENDROOT
BRANCH  12  18
ATOM     18  O   UNL     1      22.969  -1.314 193.631  0.00  0.00    +0.000 OA
ATOM     19  H   UNL     1      22.222  -1.718 193.152  0.00  0.00    +0.000 HD
ENDBRANCH  12  18
BRANCH  13  20
ATOM     20  O   UNL     1      19.031   2.091 188.103  0.00  0.00    +0.000 OA
ATOM     21  C   UNL     1      18.790   3.432 187.682  0.00  0.00    +0.000 C 
ENDBRANCH  13  20
BRANCH  15  22
ATOM     22  O   UNL     1      25.207  -1.784 192.258  0.00  0.00    +0.000 OA
ATOM     23  C   UNL     1      26.429  -1.796 192.986  0.00  0.00    +0.000 C 
ENDBRANCH  15  22
BRANCH  17  24
ATOM     24  O   UNL     1      16.848   1.044 189.213  0.00  0.00    +0.000 OA
ATOM     25  H   UNL     1      16.605   0.137 189.479  0.00  0.00    +0.000 HD
ENDBRANCH  17  24
TORSDOF 4
ENDMDL
MODEL 5
REMARK VINA RESULT:      -6.9      3.855      7.171
REMARK  Name = 
REMARK  6 active torsions:
REMARK  status: ('A' for Active; 'I' for Inactive)
REMARK    1  A    between atoms: O_3  and  C_16
REMARK    2  A    between atoms: O_4  and  C_17
REMARK    3  A    between atoms: O_4  and  C_22
REMARK    4  A    between atoms: O_5  and  C_19
REMARK    5  A    between atoms: O_5  and  C_23
REMARK    6  A    between atoms: O_6  and  C_21
REMARK                            x       y       z     vdW  Elec       q    Type
REMARK                         _______ _______ _______ _____ _____    ______ ____
ROOT
ATOM      1  O   UNL     1      20.008   0.711 190.817  0.00  0.00    +0.000 OA
ATOM      2  O   UNL     1      23.337   2.676 191.617  0.00  0.00    +0.000 OA
ATOM      3  C   UNL     1      20.887   2.744 191.783  0.00  0.00    +0.000 C 
ATOM      4  C   UNL     1      20.761   1.910 190.504  0.00  0.00    +0.000 C 
ATOM      5  C   UNL     1      20.694   1.673 192.800  0.00  0.00    +0.000 A 
ATOM      6  C   UNL     1      22.195   3.508 191.814  0.00  0.00    +0.000 C 
ATOM      7  C   UNL     1      22.089   1.535 189.883  0.00  0.00    +0.000 A 
ATOM      8  C   UNL     1      20.157   0.558 192.173  0.00  0.00    +0.000 A 
ATOM      9  C   UNL     1      23.303   1.920 190.476  0.00  0.00    +0.000 A 
ATOM     10  C   UNL     1      20.905   1.685 194.168  0.00  0.00    +0.000 A 
ATOM     11  C   UNL     1      22.104   0.782 188.694  0.00  0.00    +0.000 A 
ATOM     12  C   UNL     1      19.813  -0.569 192.893  0.00  0.00    +0.000 A 
ATOM     13  C   UNL     1      24.517   1.509 189.907  0.00  0.00    +0.000 A 
ATOM     14  C   UNL     1      20.573   0.541 194.909  0.00  0.00    +0.000 A 
ATOM     15  C   UNL     1      20.026  -0.588 194.278  0.00  0.00    +0.000 A 
ATOM     16  C   UNL     1      23.309   0.421 188.099  0.00  0.00    +0.000 A 
ATOM     17  C   UNL     1      24.499   0.791 188.705  0.00  0.00    +0.000 A 
ENDROOT
BRANCH  12  18
ATOM     18  O   UNL     1      19.277  -1.656 192.261  0.00  0.00    +0.000 OA
ATOM     19  H   UNL     1      19.736  -1.702 191.403  0.00  0.00    +0.000 HD
ENDBRANCH  12  18
BRANCH  13  20
ATOM     20  O   UNL     1      25.774   1.797 190.385  0.00  0.00    +0.000 OA
ATOM     21  C   UNL     1      26.235   3.111 190.075  0.00  0.00    +0.000 C 
ENDBRANCH  13  20
BRANCH  15  22
ATOM     22  O   UNL     1      19.657  -1.756 194.899  0.00  0.00    +0.000 OA
ATOM     23  C   UNL     1      20.670  -2.440 195.628  0.00  0.00    +0.000 C 
ENDBRANCH  15  22
BRANCH  17  24
ATOM     24  O   UNL     1      25.674   0.425 188.104  0.00  0.00    +0.000 OA
ATOM     25  H   UNL     1      25.444  -0.350 187.557  0.00  0.00    +0.000 HD
ENDBRANCH  17  24
TORSDOF 4
ENDMDL
MODEL 6
REMARK VINA RESULT:      -6.7     28.425     31.792
REMARK  Name = 
REMARK  6 active torsions:
REMARK  status: ('A' for Active; 'I' for Inactive)
REMARK    1  A    between atoms: O_3  and  C_16
REMARK    2  A    between atoms: O_4  and  C_17
REMARK    3  A    between atoms: O_4  and  C_22
REMARK    4  A    between atoms: O_5  and  C_19
REMARK    5  A    between atoms: O_5  and  C_23
REMARK    6  A    between atoms: O_6  and  C_21
REMARK                            x       y       z     vdW  Elec       q    Type
REMARK                         _______ _______ _______ _____ _____    ______ ____
ROOT
ATOM      1  O   UNL     1      41.309  -6.222 167.248  0.00  0.00    +0.000 OA
ATOM      2  O   UNL     1      43.169  -6.772 163.810  0.00  0.00    +0.000 OA
ATOM      3  C   UNL     1      42.157  -7.908 165.738  0.00  0.00    +0.000 C 
ATOM      4  C   UNL     1      42.527  -6.731 166.647  0.00  0.00    +0.000 C 
ATOM      5  C   UNL     1      40.728  -7.581 165.476  0.00  0.00    +0.000 A 
ATOM      6  C   UNL     1      43.084  -7.992 164.544  0.00  0.00    +0.000 C 
ATOM      7  C   UNL     1      43.254  -5.611 165.935  0.00  0.00    +0.000 A 
ATOM      8  C   UNL     1      40.310  -6.636 166.402  0.00  0.00    +0.000 A 
ATOM      9  C   UNL     1      43.522  -5.679 164.557  0.00  0.00    +0.000 A 
ATOM     10  C   UNL     1      39.841  -8.107 164.551  0.00  0.00    +0.000 A 
ATOM     11  C   UNL     1      43.661  -4.481 166.667  0.00  0.00    +0.000 A 
ATOM     12  C   UNL     1      39.003  -6.196 166.434  0.00  0.00    +0.000 A 
ATOM     13  C   UNL     1      44.148  -4.601 163.915  0.00  0.00    +0.000 A 
ATOM     14  C   UNL     1      38.513  -7.658 164.563  0.00  0.00    +0.000 A 
ATOM     15  C   UNL     1      38.087  -6.704 165.502  0.00  0.00    +0.000 A 
ATOM     16  C   UNL     1      44.331  -3.434 166.040  0.00  0.00    +0.000 A 
ATOM     17  C   UNL     1      44.573  -3.507 164.677  0.00  0.00    +0.000 A 
ENDROOT
BRANCH  12  18
ATOM     18  O   UNL     1      38.606  -5.272 167.359  0.00  0.00    +0.000 OA
ATOM     19  H   UNL     1      38.691  -4.411 166.909  0.00  0.00    +0.000 HD
ENDBRANCH  12  18
BRANCH  13  20
ATOM     20  O   UNL     1      44.457  -4.524 162.577  0.00  0.00    +0.000 OA
ATOM     21  C   UNL     1      43.383  -4.089 161.747  0.00  0.00    +0.000 C 
ENDBRANCH  13  20
BRANCH  15  22
ATOM     22  O   UNL     1      36.815  -6.198 165.613  0.00  0.00    +0.000 OA
ATOM     23  C   UNL     1      35.743  -7.122 165.460  0.00  0.00    +0.000 C 
ENDBRANCH  15  22
BRANCH  17  24
ATOM     24  O   UNL     1      45.232  -2.466 164.079  0.00  0.00    +0.000 OA
ATOM     25  H   UNL     1      44.585  -1.736 164.064  0.00  0.00    +0.000 HD
ENDBRANCH  17  24
TORSDOF 4
ENDMDL
MODEL 7
REMARK VINA RESULT:      -6.5      2.377      4.169
REMARK  Name = 
REMARK  6 active torsions:
REMARK  status: ('A' for Active; 'I' for Inactive)
REMARK    1  A    between atoms: O_3  and  C_16
REMARK    2  A    between atoms: O_4  and  C_17
REMARK    3  A    between atoms: O_4  and  C_22
REMARK    4  A    between atoms: O_5  and  C_19
REMARK    5  A    between atoms: O_5  and  C_23
REMARK    6  A    between atoms: O_6  and  C_21
REMARK                            x       y       z     vdW  Elec       q    Type
REMARK                         _______ _______ _______ _____ _____    ______ ____
ROOT
ATOM      1  O   UNL     1      24.024   1.530 188.354  0.00  0.00    +0.000 OA
ATOM      2  O   UNL     1      25.780   3.541 191.263  0.00  0.00    +0.000 OA
ATOM      3  C   UNL     1      26.093   2.589 189.020  0.00  0.00    +0.000 C 
ATOM      4  C   UNL     1      25.090   1.474 189.335  0.00  0.00    +0.000 C 
ATOM      5  C   UNL     1      25.208   3.509 188.252  0.00  0.00    +0.000 A 
ATOM      6  C   UNL     1      26.731   3.127 190.283  0.00  0.00    +0.000 C 
ATOM      7  C   UNL     1      24.508   1.549 190.730  0.00  0.00    +0.000 A 
ATOM      8  C   UNL     1      24.064   2.818 187.880  0.00  0.00    +0.000 A 
ATOM      9  C   UNL     1      24.866   2.582 191.613  0.00  0.00    +0.000 A 
ATOM     10  C   UNL     1      25.407   4.819 187.852  0.00  0.00    +0.000 A 
ATOM     11  C   UNL     1      23.587   0.570 191.145  0.00  0.00    +0.000 A 
ATOM     12  C   UNL     1      23.094   3.412 187.098  0.00  0.00    +0.000 A 
ATOM     13  C   UNL     1      24.267   2.657 192.878  0.00  0.00    +0.000 A 
ATOM     14  C   UNL     1      24.422   5.439 187.069  0.00  0.00    +0.000 A 
ATOM     15  C   UNL     1      23.265   4.741 186.687  0.00  0.00    +0.000 A 
ATOM     16  C   UNL     1      23.033   0.613 192.421  0.00  0.00    +0.000 A 
ATOM     17  C   UNL     1      23.381   1.648 193.274  0.00  0.00    +0.000 A 
ENDROOT
BRANCH  12  18
ATOM     18  O   UNL     1      21.977   2.714 186.732  0.00  0.00    +0.000 OA
ATOM     19  H   UNL     1      21.799   2.986 185.813  0.00  0.00    +0.000 HD
ENDBRANCH  12  18
BRANCH  13  20
ATOM     20  O   UNL     1      24.510   3.615 193.834  0.00  0.00    +0.000 OA
ATOM     21  C   UNL     1      25.756   3.469 194.513  0.00  0.00    +0.000 C 
ENDBRANCH  13  20
BRANCH  15  22
ATOM     22  O   UNL     1      22.241   5.241 185.919  0.00  0.00    +0.000 OA
ATOM     23  C   UNL     1      22.447   5.257 184.511  0.00  0.00    +0.000 C 
ENDBRANCH  15  22
BRANCH  17  24
ATOM     24  O   UNL     1      22.825   1.672 194.525  0.00  0.00    +0.000 OA
ATOM     25  H   UNL     1      22.609   0.741 194.721  0.00  0.00    +0.000 HD
ENDBRANCH  17  24
TORSDOF 4
ENDMDL
MODEL 8
REMARK VINA RESULT:      -6.3     30.095     33.357
REMARK  Name = 
REMARK  6 active torsions:
REMARK  status: ('A' for Active; 'I' for Inactive)
REMARK    1  A    between atoms: O_3  and  C_16
REMARK    2  A    between atoms: O_4  and  C_17
REMARK    3  A    between atoms: O_4  and  C_22
REMARK    4  A    between atoms: O_5  and  C_19
REMARK    5  A    between atoms: O_5  and  C_23
REMARK    6  A    between atoms: O_6  and  C_21
REMARK                            x       y       z     vdW  Elec       q    Type
REMARK                         _______ _______ _______ _____ _____    ______ ____
ROOT
ATOM      1  O   UNL     1      40.141  -8.053 162.865  0.00  0.00    +0.000 OA
ATOM      2  O   UNL     1      42.805  -9.119 165.577  0.00  0.00    +0.000 OA
ATOM      3  C   UNL     1      41.376  -9.933 163.752  0.00  0.00    +0.000 C 
ATOM      4  C   UNL     1      40.337  -8.850 164.061  0.00  0.00    +0.000 C 
ATOM      5  C   UNL     1      42.074  -9.288 162.606  0.00  0.00    +0.000 A 
ATOM      6  C   UNL     1      42.204 -10.265 164.976  0.00  0.00    +0.000 C 
ATOM      7  C   UNL     1      40.713  -7.952 165.220  0.00  0.00    +0.000 A 
ATOM      8  C   UNL     1      41.288  -8.246 162.135  0.00  0.00    +0.000 A 
ATOM      9  C   UNL     1      41.928  -8.119 165.905  0.00  0.00    +0.000 A 
ATOM     10  C   UNL     1      43.264  -9.617 161.978  0.00  0.00    +0.000 A 
ATOM     11  C   UNL     1      39.830  -6.928 165.611  0.00  0.00    +0.000 A 
ATOM     12  C   UNL     1      41.663  -7.512 161.029  0.00  0.00    +0.000 A 
ATOM     13  C   UNL     1      42.274  -7.236 166.937  0.00  0.00    +0.000 A 
ATOM     14  C   UNL     1      43.664  -8.869 160.862  0.00  0.00    +0.000 A 
ATOM     15  C   UNL     1      42.868  -7.816 160.381  0.00  0.00    +0.000 A 
ATOM     16  C   UNL     1      40.148  -6.085 166.672  0.00  0.00    +0.000 A 
ATOM     17  C   UNL     1      41.359  -6.250 167.326  0.00  0.00    +0.000 A 
ENDROOT
BRANCH  12  18
ATOM     18  O   UNL     1      40.873  -6.494 160.573  0.00  0.00    +0.000 OA
ATOM     19  H   UNL     1      39.958  -6.814 160.685  0.00  0.00    +0.000 HD
ENDBRANCH  12  18
BRANCH  13  20
ATOM     20  O   UNL     1      43.430  -7.271 167.680  0.00  0.00    +0.000 OA
ATOM     21  C   UNL     1      44.593  -6.830 166.982  0.00  0.00    +0.000 C 
ENDBRANCH  13  20
BRANCH  15  22
ATOM     22  O   UNL     1      43.154  -7.024 159.296  0.00  0.00    +0.000 OA
ATOM     23  C   UNL     1      43.135  -7.654 158.020  0.00  0.00    +0.000 C 
ENDBRANCH  15  22
BRANCH  17  24
ATOM     24  O   UNL     1      41.653  -5.410 168.367  0.00  0.00    +0.000 OA
ATOM     25  H   UNL     1      42.601  -5.558 168.547  0.00  0.00    +0.000 HD
ENDBRANCH  17  24
TORSDOF 4
ENDMDL
MODEL 9
REMARK VINA RESULT:      -6.3     28.310     31.708
REMARK  Name = 
REMARK  6 active torsions:
REMARK  status: ('A' for Active; 'I' for Inactive)
REMARK    1  A    between atoms: O_3  and  C_16
REMARK    2  A    between atoms: O_4  and  C_17
REMARK    3  A    between atoms: O_4  and  C_22
REMARK    4  A    between atoms: O_5  and  C_19
REMARK    5  A    between atoms: O_5  and  C_23
REMARK    6  A    between atoms: O_6  and  C_21
REMARK                            x       y       z     vdW  Elec       q    Type
REMARK                         _______ _______ _______ _____ _____    ______ ____
ROOT
ATOM      1  O   UNL     1      42.466  -7.559 165.012  0.00  0.00    +0.000 OA
ATOM      2  O   UNL     1      38.932  -5.925 164.360  0.00  0.00    +0.000 OA
ATOM      3  C   UNL     1      41.203  -6.199 163.464  0.00  0.00    +0.000 C 
ATOM      4  C   UNL     1      41.770  -6.294 164.884  0.00  0.00    +0.000 C 
ATOM      5  C   UNL     1      41.144  -7.648 163.122  0.00  0.00    +0.000 A 
ATOM      6  C   UNL     1      39.902  -5.424 163.442  0.00  0.00    +0.000 C 
ATOM      7  C   UNL     1      40.724  -6.172 165.972  0.00  0.00    +0.000 A 
ATOM      8  C   UNL     1      41.919  -8.351 164.033  0.00  0.00    +0.000 A 
ATOM      9  C   UNL     1      39.364  -6.012 165.657  0.00  0.00    +0.000 A 
ATOM     10  C   UNL     1      40.523  -8.297 162.069  0.00  0.00    +0.000 A 
ATOM     11  C   UNL     1      41.123  -6.226 167.320  0.00  0.00    +0.000 A 
ATOM     12  C   UNL     1      42.097  -9.714 163.916  0.00  0.00    +0.000 A 
ATOM     13  C   UNL     1      38.412  -5.959 166.686  0.00  0.00    +0.000 A 
ATOM     14  C   UNL     1      40.685  -9.685 161.946  0.00  0.00    +0.000 A 
ATOM     15  C   UNL     1      41.472 -10.399 162.865  0.00  0.00    +0.000 A 
ATOM     16  C   UNL     1      40.185  -6.118 168.342  0.00  0.00    +0.000 A 
ATOM     17  C   UNL     1      38.845  -5.980 168.017  0.00  0.00    +0.000 A 
ENDROOT
BRANCH  12  18
ATOM     18  O   UNL     1      42.871 -10.391 164.816  0.00  0.00    +0.000 OA
ATOM     19  H   UNL     1      43.139  -9.722 165.473  0.00  0.00    +0.000 HD
ENDBRANCH  12  18
BRANCH  13  20
ATOM     20  O   UNL     1      37.054  -5.819 166.526  0.00  0.00    +0.000 OA
ATOM     21  C   UNL     1      36.389  -7.000 166.079  0.00  0.00    +0.000 C 
ENDBRANCH  13  20
BRANCH  15  22
ATOM     22  O   UNL     1      41.707 -11.752 162.840  0.00  0.00    +0.000 OA
ATOM     23  C   UNL     1      41.319 -12.447 161.660  0.00  0.00    +0.000 C 
ENDBRANCH  15  22
BRANCH  17  24
ATOM     24  O   UNL     1      37.938  -5.876 169.037  0.00  0.00    +0.000 OA
ATOM     25  H   UNL     1      37.100  -6.207 168.661  0.00  0.00    +0.000 HD
ENDBRANCH  17  24
TORSDOF 4
ENDMDL
