REMARK  Name = 
REMARK  6 active torsions:
REMARK  status: ('A' for Active; 'I' for Inactive)
REMARK    1  A    between atoms: O_3  and  C_16
REMARK    2  A    between atoms: O_4  and  C_17
REMARK    3  A    between atoms: O_4  and  C_22
REMARK    4  A    between atoms: O_5  and  C_19
REMARK    5  A    between atoms: O_5  and  C_23
REMARK    6  A    between atoms: O_6  and  C_21
REMARK                            x       y       z     vdW  Elec       q    Type
REMARK                         _______ _______ _______ _____ _____    ______ ____
ROOT
ATOM      1  O   UNL     1      -0.690   1.595   1.403  0.00  0.00    +0.000 OA
ATOM      2  O   UNL     1       1.386  -1.618   0.427  0.00  0.00    +0.000 OA
ATOM      3  C   UNL     1      -0.248  -0.701   2.016  0.00  0.00    +0.000 C 
ATOM      4  C   UNL     1       0.356   0.698   1.855  0.00  0.00    +0.000 C 
ATOM      5  C   UNL     1      -1.416  -0.575   1.100  0.00  0.00    +0.000 A 
ATOM      6  C   UNL     1       0.770  -1.778   1.704  0.00  0.00    +0.000 C 
ATOM      7  C   UNL     1       1.528   0.754   0.899  0.00  0.00    +0.000 A 
ATOM      8  C   UNL     1      -1.623   0.769   0.826  0.00  0.00    +0.000 A 
ATOM      9  C   UNL     1       1.971  -0.396   0.224  0.00  0.00    +0.000 A 
ATOM     10  C   UNL     1      -2.271  -1.541   0.597  0.00  0.00    +0.000 A 
ATOM     11  C   UNL     1       2.179   1.982   0.680  0.00  0.00    +0.000 A 
ATOM     12  C   UNL     1      -2.686   1.184   0.050  0.00  0.00    +0.000 A 
ATOM     13  C   UNL     1       3.023  -0.301  -0.698  0.00  0.00    +0.000 A 
ATOM     14  C   UNL     1      -3.347  -1.134  -0.205  0.00  0.00    +0.000 A 
ATOM     15  C   UNL     1      -3.561   0.227  -0.481  0.00  0.00    +0.000 A 
ATOM     16  C   UNL     1       3.259   2.066  -0.194  0.00  0.00    +0.000 A 
ATOM     17  C   UNL     1       3.673   0.927  -0.867  0.00  0.00    +0.000 A 
ENDROOT
BRANCH  12  18
ATOM     18  O   UNL     1      -2.881   2.513  -0.203  0.00  0.00    +0.000 OA
ATOM     19  H   UNL     1      -3.669   2.549  -0.776  0.00  0.00    +0.000 HD
ENDBRANCH  12  18
BRANCH  13  20
ATOM     20  O   UNL     1       3.548  -1.335  -1.437  0.00  0.00    +0.000 OA
ATOM     21  C   UNL     1       2.573  -2.199  -2.018  0.00  0.00    +0.000 C 
ENDBRANCH  13  20
BRANCH  15  22
ATOM     22  O   UNL     1      -4.581   0.741  -1.244  0.00  0.00    +0.000 OA
ATOM     23  C   UNL     1      -5.484  -0.196  -1.820  0.00  0.00    +0.000 C 
ENDBRANCH  15  22
BRANCH  17  24
ATOM     24  O   UNL     1       4.737   1.031  -1.723  0.00  0.00    +0.000 OA
ATOM     25  H   UNL     1       4.874   0.126  -2.062  0.00  0.00    +0.000 HD
ENDBRANCH  17  24
TORSDOF 4
