MODEL 1
REMARK VINA RESULT:      -8.3      0.000      0.000
REMARK  Name = IPA3.pdbqt.pdb
REMARK  5 active torsions:
REMARK  status: ('A' for Active; 'I' for Inactive)
REMARK    1  A    between atoms: S_1  and  S_2
REMARK    2  A    between atoms: S_1  and  C_15
REMARK    3  A    between atoms: S_2  and  C_3
REMARK    4  A    between atoms: C_10  and  O_13
REMARK    5  A    between atoms: C_22  and  O_25
REMARK                            x       y       z     vdW  Elec       q    Type
REMARK                         _______ _______ _______ _____ _____    ______ ____
ROOT
ATOM      1  S   UNL     1      20.396   2.202 190.471  0.00  0.00    +0.000 S 
ENDROOT
BRANCH   1   2
ATOM      2  C   UNL     1      22.168   2.356 190.742  0.00  0.00    +0.000 A 
ATOM      3  C   UNL     1      23.099   1.821 189.818  0.00  0.00    +0.000 A 
ATOM      4  C   UNL     1      24.482   1.994 190.063  0.00  0.00    +0.000 A 
ATOM      5  C   UNL     1      22.727   1.132 188.651  0.00  0.00    +0.000 A 
ATOM      6  C   UNL     1      24.921   2.664 191.202  0.00  0.00    +0.000 A 
ATOM      7  C   UNL     1      25.427   1.502 189.163  0.00  0.00    +0.000 A 
ATOM      8  C   UNL     1      24.006   3.173 192.115  0.00  0.00    +0.000 A 
ATOM      9  C   UNL     1      22.643   3.021 191.884  0.00  0.00    +0.000 A 
ATOM     10  C   UNL     1      25.026   0.831 188.012  0.00  0.00    +0.000 A 
ATOM     11  C   UNL     1      23.675   0.644 187.755  0.00  0.00    +0.000 A 
BRANCH   9  12
ATOM     12  O   UNL     1      21.801   3.558 192.822  0.00  0.00    +0.000 OA
ATOM     13  H   UNL     1      21.306   2.825 193.231  0.00  0.00    +0.000 HD
ENDBRANCH   9  12
ENDBRANCH   1   2
BRANCH   1  14
ATOM     14  S   UNL     1      19.922   4.072 189.747  0.00  0.00    +0.000 S 
BRANCH  14  15
ATOM     15  C   UNL     1      20.524   3.971 188.056  0.00  0.00    +0.000 A 
ATOM     16  C   UNL     1      21.805   4.460 187.705  0.00  0.00    +0.000 A 
ATOM     17  C   UNL     1      22.245   4.332 186.367  0.00  0.00    +0.000 A 
ATOM     18  C   UNL     1      22.686   5.061 188.623  0.00  0.00    +0.000 A 
ATOM     19  C   UNL     1      21.423   3.752 185.405  0.00  0.00    +0.000 A 
ATOM     20  C   UNL     1      23.510   4.781 185.989  0.00  0.00    +0.000 A 
ATOM     21  C   UNL     1      20.158   3.287 185.747  0.00  0.00    +0.000 A 
ATOM     22  C   UNL     1      19.716   3.396 187.061  0.00  0.00    +0.000 A 
ATOM     23  C   UNL     1      24.363   5.363 186.924  0.00  0.00    +0.000 A 
ATOM     24  C   UNL     1      23.950   5.506 188.243  0.00  0.00    +0.000 A 
BRANCH  22  25
ATOM     25  O   UNL     1      18.464   2.907 187.325  0.00  0.00    +0.000 OA
ATOM     26  H   UNL     1      18.569   2.024 187.725  0.00  0.00    +0.000 HD
ENDBRANCH  22  25
ENDBRANCH  14  15
ENDBRANCH   1  14
TORSDOF 5
ENDMDL
MODEL 2
REMARK VINA RESULT:      -8.3      1.092      5.201
REMARK  Name = IPA3.pdbqt.pdb
REMARK  5 active torsions:
REMARK  status: ('A' for Active; 'I' for Inactive)
REMARK    1  A    between atoms: S_1  and  S_2
REMARK    2  A    between atoms: S_1  and  C_15
REMARK    3  A    between atoms: S_2  and  C_3
REMARK    4  A    between atoms: C_10  and  O_13
REMARK    5  A    between atoms: C_22  and  O_25
REMARK                            x       y       z     vdW  Elec       q    Type
REMARK                         _______ _______ _______ _____ _____    ______ ____
ROOT
ATOM      1  S   UNL     1      19.196   3.180 190.831  0.00  0.00    +0.000 S 
ENDROOT
BRANCH   1   2
ATOM      2  C   UNL     1      19.326   3.189 189.037  0.00  0.00    +0.000 A 
ATOM      3  C   UNL     1      20.319   3.954 188.378  0.00  0.00    +0.000 A 
ATOM      4  C   UNL     1      20.397   3.905 186.966  0.00  0.00    +0.000 A 
ATOM      5  C   UNL     1      21.252   4.760 189.053  0.00  0.00    +0.000 A 
ATOM      6  C   UNL     1      19.500   3.131 186.235  0.00  0.00    +0.000 A 
ATOM      7  C   UNL     1      21.377   4.627 186.286  0.00  0.00    +0.000 A 
ATOM      8  C   UNL     1      18.517   2.394 186.882  0.00  0.00    +0.000 A 
ATOM      9  C   UNL     1      18.433   2.422 188.270  0.00  0.00    +0.000 A 
ATOM     10  C   UNL     1      22.292   5.410 186.983  0.00  0.00    +0.000 A 
ATOM     11  C   UNL     1      22.230   5.478 188.368  0.00  0.00    +0.000 A 
BRANCH   9  12
ATOM     12  O   UNL     1      17.445   1.662 188.837  0.00  0.00    +0.000 OA
ATOM     13  H   UNL     1      17.413   0.813 188.361  0.00  0.00    +0.000 HD
ENDBRANCH   9  12
ENDBRANCH   1   2
BRANCH   1  14
ATOM     14  S   UNL     1      20.349   1.544 191.323  0.00  0.00    +0.000 S 
BRANCH  14  15
ATOM     15  C   UNL     1      22.012   2.207 191.154  0.00  0.00    +0.000 A 
ATOM     16  C   UNL     1      22.812   1.899 190.027  0.00  0.00    +0.000 A 
ATOM     17  C   UNL     1      24.103   2.468 189.927  0.00  0.00    +0.000 A 
ATOM     18  C   UNL     1      22.389   1.059 188.980  0.00  0.00    +0.000 A 
ATOM     19  C   UNL     1      24.587   3.304 190.929  0.00  0.00    +0.000 A 
ATOM     20  C   UNL     1      24.910   2.205 188.821  0.00  0.00    +0.000 A 
ATOM     21  C   UNL     1      23.806   3.593 192.043  0.00  0.00    +0.000 A 
ATOM     22  C   UNL     1      22.531   3.050 192.151  0.00  0.00    +0.000 A 
ATOM     23  C   UNL     1      24.459   1.377 187.796  0.00  0.00    +0.000 A 
ATOM     24  C   UNL     1      23.197   0.801 187.876  0.00  0.00    +0.000 A 
BRANCH  22  25
ATOM     25  O   UNL     1      21.818   3.388 193.270  0.00  0.00    +0.000 OA
ATOM     26  H   UNL     1      21.854   4.358 193.363  0.00  0.00    +0.000 HD
ENDBRANCH  22  25
ENDBRANCH  14  15
ENDBRANCH   1  14
TORSDOF 5
ENDMDL
MODEL 3
REMARK VINA RESULT:      -8.2      2.061      4.739
REMARK  Name = IPA3.pdbqt.pdb
REMARK  5 active torsions:
REMARK  status: ('A' for Active; 'I' for Inactive)
REMARK    1  A    between atoms: S_1  and  S_2
REMARK    2  A    between atoms: S_1  and  C_15
REMARK    3  A    between atoms: S_2  and  C_3
REMARK    4  A    between atoms: C_10  and  O_13
REMARK    5  A    between atoms: C_22  and  O_25
REMARK                            x       y       z     vdW  Elec       q    Type
REMARK                         _______ _______ _______ _____ _____    ______ ____
ROOT
ATOM      1  S   UNL     1      21.516   0.976 190.543  0.00  0.00    +0.000 S 
ENDROOT
BRANCH   1   2
ATOM      2  C   UNL     1      20.222   1.622 189.473  0.00  0.00    +0.000 A 
ATOM      3  C   UNL     1      20.522   2.127 188.184  0.00  0.00    +0.000 A 
ATOM      4  C   UNL     1      19.465   2.598 187.370  0.00  0.00    +0.000 A 
ATOM      5  C   UNL     1      21.823   2.175 187.652  0.00  0.00    +0.000 A 
ATOM      6  C   UNL     1      18.153   2.583 187.836  0.00  0.00    +0.000 A 
ATOM      7  C   UNL     1      19.720   3.080 186.086  0.00  0.00    +0.000 A 
ATOM      8  C   UNL     1      17.863   2.104 189.107  0.00  0.00    +0.000 A 
ATOM      9  C   UNL     1      18.890   1.626 189.916  0.00  0.00    +0.000 A 
ATOM     10  C   UNL     1      21.019   3.106 185.585  0.00  0.00    +0.000 A 
ATOM     11  C   UNL     1      22.072   2.655 186.369  0.00  0.00    +0.000 A 
BRANCH   9  12
ATOM     12  O   UNL     1      18.526   1.160 191.151  0.00  0.00    +0.000 OA
ATOM     13  H   UNL     1      18.940   1.736 191.819  0.00  0.00    +0.000 HD
ENDBRANCH   9  12
ENDBRANCH   1   2
BRANCH   1  14
ATOM     14  S   UNL     1      22.245   2.700 191.403  0.00  0.00    +0.000 S 
BRANCH  14  15
ATOM     15  C   UNL     1      23.797   2.918 190.522  0.00  0.00    +0.000 A 
ATOM     16  C   UNL     1      23.939   3.912 189.525  0.00  0.00    +0.000 A 
ATOM     17  C   UNL     1      25.190   4.063 188.880  0.00  0.00    +0.000 A 
ATOM     18  C   UNL     1      22.902   4.781 189.140  0.00  0.00    +0.000 A 
ATOM     19  C   UNL     1      26.258   3.234 189.209  0.00  0.00    +0.000 A 
ATOM     20  C   UNL     1      25.373   5.047 187.909  0.00  0.00    +0.000 A 
ATOM     21  C   UNL     1      26.113   2.247 190.177  0.00  0.00    +0.000 A 
ATOM     22  C   UNL     1      24.894   2.094 190.827  0.00  0.00    +0.000 A 
ATOM     23  C   UNL     1      24.329   5.897 187.557  0.00  0.00    +0.000 A 
ATOM     24  C   UNL     1      23.090   5.763 188.171  0.00  0.00    +0.000 A 
BRANCH  22  25
ATOM     25  O   UNL     1      24.829   1.108 191.776  0.00  0.00    +0.000 OA
ATOM     26  H   UNL     1      24.851   1.538 192.651  0.00  0.00    +0.000 HD
ENDBRANCH  22  25
ENDBRANCH  14  15
ENDBRANCH   1  14
TORSDOF 5
ENDMDL
MODEL 4
REMARK VINA RESULT:      -8.0      2.284      4.208
REMARK  Name = IPA3.pdbqt.pdb
REMARK  5 active torsions:
REMARK  status: ('A' for Active; 'I' for Inactive)
REMARK    1  A    between atoms: S_1  and  S_2
REMARK    2  A    between atoms: S_1  and  C_15
REMARK    3  A    between atoms: S_2  and  C_3
REMARK    4  A    between atoms: C_10  and  O_13
REMARK    5  A    between atoms: C_22  and  O_25
REMARK                            x       y       z     vdW  Elec       q    Type
REMARK                         _______ _______ _______ _____ _____    ______ ____
ROOT
ATOM      1  S   UNL     1      21.933   3.407 192.236  0.00  0.00    +0.000 S 
ENDROOT
BRANCH   1   2
ATOM      2  C   UNL     1      20.689   2.360 191.467  0.00  0.00    +0.000 A 
ATOM      3  C   UNL     1      20.046   2.748 190.266  0.00  0.00    +0.000 A 
ATOM      4  C   UNL     1      19.095   1.877 189.685  0.00  0.00    +0.000 A 
ATOM      5  C   UNL     1      20.310   3.958 189.600  0.00  0.00    +0.000 A 
ATOM      6  C   UNL     1      18.783   0.664 190.294  0.00  0.00    +0.000 A 
ATOM      7  C   UNL     1      18.460   2.215 188.491  0.00  0.00    +0.000 A 
ATOM      8  C   UNL     1      19.402   0.292 191.480  0.00  0.00    +0.000 A 
ATOM      9  C   UNL     1      20.347   1.133 192.059  0.00  0.00    +0.000 A 
ATOM     10  C   UNL     1      18.749   3.417 187.851  0.00  0.00    +0.000 A 
ATOM     11  C   UNL     1      19.674   4.291 188.406  0.00  0.00    +0.000 A 
BRANCH   9  12
ATOM     12  O   UNL     1      20.923   0.695 193.222  0.00  0.00    +0.000 OA
ATOM     13  H   UNL     1      21.708   1.247 193.391  0.00  0.00    +0.000 HD
ENDBRANCH   9  12
ENDBRANCH   1   2
BRANCH   1  14
ATOM     14  S   UNL     1      23.673   2.430 191.723  0.00  0.00    +0.000 S 
BRANCH  14  15
ATOM     15  C   UNL     1      23.435   2.165 189.961  0.00  0.00    +0.000 A 
ATOM     16  C   UNL     1      23.543   3.233 189.039  0.00  0.00    +0.000 A 
ATOM     17  C   UNL     1      23.375   2.968 187.659  0.00  0.00    +0.000 A 
ATOM     18  C   UNL     1      23.823   4.560 189.414  0.00  0.00    +0.000 A 
ATOM     19  C   UNL     1      23.091   1.679 187.217  0.00  0.00    +0.000 A 
ATOM     20  C   UNL     1      23.496   3.992 186.720  0.00  0.00    +0.000 A 
ATOM     21  C   UNL     1      22.970   0.633 188.125  0.00  0.00    +0.000 A 
ATOM     22  C   UNL     1      23.143   0.877 189.483  0.00  0.00    +0.000 A 
ATOM     23  C   UNL     1      23.783   5.293 187.124  0.00  0.00    +0.000 A 
ATOM     24  C   UNL     1      23.945   5.579 188.474  0.00  0.00    +0.000 A 
BRANCH  22  25
ATOM     25  O   UNL     1      23.019  -0.204 190.316  0.00  0.00    +0.000 OA
ATOM     26  H   UNL     1      23.766  -0.804 190.135  0.00  0.00    +0.000 HD
ENDBRANCH  22  25
ENDBRANCH  14  15
ENDBRANCH   1  14
TORSDOF 5
ENDMDL
MODEL 5
REMARK VINA RESULT:      -7.2      2.692      4.525
REMARK  Name = IPA3.pdbqt.pdb
REMARK  5 active torsions:
REMARK  status: ('A' for Active; 'I' for Inactive)
REMARK    1  A    between atoms: S_1  and  S_2
REMARK    2  A    between atoms: S_1  and  C_15
REMARK    3  A    between atoms: S_2  and  C_3
REMARK    4  A    between atoms: C_10  and  O_13
REMARK    5  A    between atoms: C_22  and  O_25
REMARK                            x       y       z     vdW  Elec       q    Type
REMARK                         _______ _______ _______ _____ _____    ______ ____
ROOT
ATOM      1  S   UNL     1      23.184   3.382 191.372  0.00  0.00    +0.000 S 
ENDROOT
BRANCH   1   2
ATOM      2  C   UNL     1      22.196   2.351 192.465  0.00  0.00    +0.000 A 
ATOM      3  C   UNL     1      20.812   2.158 192.236  0.00  0.00    +0.000 A 
ATOM      4  C   UNL     1      20.084   1.315 193.109  0.00  0.00    +0.000 A 
ATOM      5  C   UNL     1      20.110   2.751 191.171  0.00  0.00    +0.000 A 
ATOM      6  C   UNL     1      20.715   0.699 194.187  0.00  0.00    +0.000 A 
ATOM      7  C   UNL     1      18.725   1.083 192.900  0.00  0.00    +0.000 A 
ATOM      8  C   UNL     1      22.070   0.903 194.419  0.00  0.00    +0.000 A 
ATOM      9  C   UNL     1      22.801   1.721 193.564  0.00  0.00    +0.000 A 
ATOM     10  C   UNL     1      18.061   1.678 191.831  0.00  0.00    +0.000 A 
ATOM     11  C   UNL     1      18.753   2.515 190.966  0.00  0.00    +0.000 A 
BRANCH   9  12
ATOM     12  O   UNL     1      24.133   1.866 193.851  0.00  0.00    +0.000 OA
ATOM     13  H   UNL     1      24.522   0.975 193.916  0.00  0.00    +0.000 HD
ENDBRANCH   9  12
ENDBRANCH   1   2
BRANCH   1  14
ATOM     14  S   UNL     1      23.567   2.089 189.814  0.00  0.00    +0.000 S 
BRANCH  14  15
ATOM     15  C   UNL     1      23.384   3.171 188.389  0.00  0.00    +0.000 A 
ATOM     16  C   UNL     1      22.207   3.153 187.604  0.00  0.00    +0.000 A 
ATOM     17  C   UNL     1      22.100   4.043 186.510  0.00  0.00    +0.000 A 
ATOM     18  C   UNL     1      21.117   2.301 187.856  0.00  0.00    +0.000 A 
ATOM     19  C   UNL     1      23.143   4.911 186.200  0.00  0.00    +0.000 A 
ATOM     20  C   UNL     1      20.946   4.070 185.727  0.00  0.00    +0.000 A 
ATOM     21  C   UNL     1      24.305   4.916 186.963  0.00  0.00    +0.000 A 
ATOM     22  C   UNL     1      24.421   4.055 188.047  0.00  0.00    +0.000 A 
ATOM     23  C   UNL     1      19.880   3.220 186.009  0.00  0.00    +0.000 A 
ATOM     24  C   UNL     1      19.966   2.332 187.074  0.00  0.00    +0.000 A 
BRANCH  22  25
ATOM     25  O   UNL     1      25.591   4.124 188.758  0.00  0.00    +0.000 OA
ATOM     26  H   UNL     1      26.277   3.660 188.243  0.00  0.00    +0.000 HD
ENDBRANCH  22  25
ENDBRANCH  14  15
ENDBRANCH   1  14
TORSDOF 5
ENDMDL
MODEL 6
REMARK VINA RESULT:      -6.7      2.310      5.336
REMARK  Name = IPA3.pdbqt.pdb
REMARK  5 active torsions:
REMARK  status: ('A' for Active; 'I' for Inactive)
REMARK    1  A    between atoms: S_1  and  S_2
REMARK    2  A    between atoms: S_1  and  C_15
REMARK    3  A    between atoms: S_2  and  C_3
REMARK    4  A    between atoms: C_10  and  O_13
REMARK    5  A    between atoms: C_22  and  O_25
REMARK                            x       y       z     vdW  Elec       q    Type
REMARK                         _______ _______ _______ _____ _____    ______ ____
ROOT
ATOM      1  S   UNL     1      21.993   0.914 190.216  0.00  0.00    +0.000 S 
ENDROOT
BRANCH   1   2
ATOM      2  C   UNL     1      20.560   1.554 189.338  0.00  0.00    +0.000 A 
ATOM      3  C   UNL     1      20.694   2.178 188.074  0.00  0.00    +0.000 A 
ATOM      4  C   UNL     1      19.533   2.639 187.410  0.00  0.00    +0.000 A 
ATOM      5  C   UNL     1      21.928   2.356 187.423  0.00  0.00    +0.000 A 
ATOM      6  C   UNL     1      18.279   2.498 187.999  0.00  0.00    +0.000 A 
ATOM      7  C   UNL     1      19.625   3.237 186.154  0.00  0.00    +0.000 A 
ATOM      8  C   UNL     1      18.151   1.901 189.247  0.00  0.00    +0.000 A 
ATOM      9  C   UNL     1      19.282   1.432 189.907  0.00  0.00    +0.000 A 
ATOM     10  C   UNL     1      20.860   3.391 185.532  0.00  0.00    +0.000 A 
ATOM     11  C   UNL     1      22.014   2.952 186.167  0.00  0.00    +0.000 A 
BRANCH   9  12
ATOM     12  O   UNL     1      19.076   0.846 191.128  0.00  0.00    +0.000 OA
ATOM     13  H   UNL     1      18.124   0.658 191.211  0.00  0.00    +0.000 HD
ENDBRANCH   9  12
ENDBRANCH   1   2
BRANCH   1  14
ATOM     14  S   UNL     1      22.697   2.608 191.154  0.00  0.00    +0.000 S 
BRANCH  14  15
ATOM     15  C   UNL     1      24.267   2.863 190.315  0.00  0.00    +0.000 A 
ATOM     16  C   UNL     1      25.356   1.982 190.516  0.00  0.00    +0.000 A 
ATOM     17  C   UNL     1      26.561   2.209 189.811  0.00  0.00    +0.000 A 
ATOM     18  C   UNL     1      25.308   0.871 191.378  0.00  0.00    +0.000 A 
ATOM     19  C   UNL     1      26.680   3.293 188.946  0.00  0.00    +0.000 A 
ATOM     20  C   UNL     1      27.647   1.349 189.967  0.00  0.00    +0.000 A 
ATOM     21  C   UNL     1      25.614   4.167 188.761  0.00  0.00    +0.000 A 
ATOM     22  C   UNL     1      24.420   3.950 189.439  0.00  0.00    +0.000 A 
ATOM     23  C   UNL     1      27.565   0.252 190.821  0.00  0.00    +0.000 A 
ATOM     24  C   UNL     1      26.394   0.013 191.530  0.00  0.00    +0.000 A 
BRANCH  22  25
ATOM     25  O   UNL     1      23.413   4.847 189.198  0.00  0.00    +0.000 OA
ATOM     26  H   UNL     1      22.678   4.636 189.804  0.00  0.00    +0.000 HD
ENDBRANCH  22  25
ENDBRANCH  14  15
ENDBRANCH   1  14
TORSDOF 5
ENDMDL
MODEL 7
REMARK VINA RESULT:      -6.5      2.947      6.948
REMARK  Name = IPA3.pdbqt.pdb
REMARK  5 active torsions:
REMARK  status: ('A' for Active; 'I' for Inactive)
REMARK    1  A    between atoms: S_1  and  S_2
REMARK    2  A    between atoms: S_1  and  C_15
REMARK    3  A    between atoms: S_2  and  C_3
REMARK    4  A    between atoms: C_10  and  O_13
REMARK    5  A    between atoms: C_22  and  O_25
REMARK                            x       y       z     vdW  Elec       q    Type
REMARK                         _______ _______ _______ _____ _____    ______ ____
ROOT
ATOM      1  S   UNL     1      22.020   1.073 190.220  0.00  0.00    +0.000 S 
ENDROOT
BRANCH   1   2
ATOM      2  C   UNL     1      20.567   1.618 189.310  0.00  0.00    +0.000 A 
ATOM      3  C   UNL     1      20.688   2.254 188.051  0.00  0.00    +0.000 A 
ATOM      4  C   UNL     1      19.513   2.638 187.362  0.00  0.00    +0.000 A 
ATOM      5  C   UNL     1      21.921   2.517 187.428  0.00  0.00    +0.000 A 
ATOM      6  C   UNL     1      18.258   2.412 187.922  0.00  0.00    +0.000 A 
ATOM      7  C   UNL     1      19.593   3.245 186.109  0.00  0.00    +0.000 A 
ATOM      8  C   UNL     1      18.143   1.803 189.166  0.00  0.00    +0.000 A 
ATOM      9  C   UNL     1      19.288   1.409 189.851  0.00  0.00    +0.000 A 
ATOM     10  C   UNL     1      20.829   3.484 185.516  0.00  0.00    +0.000 A 
ATOM     11  C   UNL     1      21.995   3.121 186.175  0.00  0.00    +0.000 A 
BRANCH   9  12
ATOM     12  O   UNL     1      19.095   0.807 191.066  0.00  0.00    +0.000 OA
ATOM     13  H   UNL     1      18.155   0.555 191.126  0.00  0.00    +0.000 HD
ENDBRANCH   9  12
ENDBRANCH   1   2
BRANCH   1  14
ATOM     14  S   UNL     1      22.441   2.733 191.365  0.00  0.00    +0.000 S 
BRANCH  14  15
ATOM     15  C   UNL     1      23.189   1.990 192.822  0.00  0.00    +0.000 A 
ATOM     16  C   UNL     1      22.394   1.535 193.901  0.00  0.00    +0.000 A 
ATOM     17  C   UNL     1      23.028   0.932 195.013  0.00  0.00    +0.000 A 
ATOM     18  C   UNL     1      20.991   1.636 193.931  0.00  0.00    +0.000 A 
ATOM     19  C   UNL     1      24.413   0.804 195.053  0.00  0.00    +0.000 A 
ATOM     20  C   UNL     1      22.275   0.452 196.084  0.00  0.00    +0.000 A 
ATOM     21  C   UNL     1      25.194   1.266 193.999  0.00  0.00    +0.000 A 
ATOM     22  C   UNL     1      24.584   1.851 192.895  0.00  0.00    +0.000 A 
ATOM     23  C   UNL     1      20.887   0.558 196.078  0.00  0.00    +0.000 A 
ATOM     24  C   UNL     1      20.243   1.153 195.001  0.00  0.00    +0.000 A 
BRANCH  22  25
ATOM     25  O   UNL     1      25.417   2.273 191.892  0.00  0.00    +0.000 OA
ATOM     26  H   UNL     1      25.513   1.537 191.259  0.00  0.00    +0.000 HD
ENDBRANCH  22  25
ENDBRANCH  14  15
ENDBRANCH   1  14
TORSDOF 5
ENDMDL
MODEL 8
REMARK VINA RESULT:      -6.4      3.379      5.112
REMARK  Name = IPA3.pdbqt.pdb
REMARK  5 active torsions:
REMARK  status: ('A' for Active; 'I' for Inactive)
REMARK    1  A    between atoms: S_1  and  S_2
REMARK    2  A    between atoms: S_1  and  C_15
REMARK    3  A    between atoms: S_2  and  C_3
REMARK    4  A    between atoms: C_10  and  O_13
REMARK    5  A    between atoms: C_22  and  O_25
REMARK                            x       y       z     vdW  Elec       q    Type
REMARK                         _______ _______ _______ _____ _____    ______ ____
ROOT
ATOM      1  S   UNL     1      23.139   2.643 192.573  0.00  0.00    +0.000 S 
ENDROOT
BRANCH   1   2
ATOM      2  C   UNL     1      22.721   1.164 193.509  0.00  0.00    +0.000 A 
ATOM      3  C   UNL     1      21.373   0.766 193.684  0.00  0.00    +0.000 A 
ATOM      4  C   UNL     1      21.098  -0.420 194.404  0.00  0.00    +0.000 A 
ATOM      5  C   UNL     1      20.278   1.480 193.167  0.00  0.00    +0.000 A 
ATOM      6  C   UNL     1      22.135  -1.175 194.948  0.00  0.00    +0.000 A 
ATOM      7  C   UNL     1      19.785  -0.856 194.577  0.00  0.00    +0.000 A 
ATOM      8  C   UNL     1      23.455  -0.773 194.788  0.00  0.00    +0.000 A 
ATOM      9  C   UNL     1      23.743   0.385 194.074  0.00  0.00    +0.000 A 
ATOM     10  C   UNL     1      18.723  -0.131 194.045  0.00  0.00    +0.000 A 
ATOM     11  C   UNL     1      18.968   1.040 193.340  0.00  0.00    +0.000 A 
BRANCH   9  12
ATOM     12  O   UNL     1      25.068   0.712 193.950  0.00  0.00    +0.000 OA
ATOM     13  H   UNL     1      25.531  -0.062 193.582  0.00  0.00    +0.000 HD
ENDBRANCH   9  12
ENDBRANCH   1   2
BRANCH   1  14
ATOM     14  S   UNL     1      23.386   1.878 190.675  0.00  0.00    +0.000 S 
BRANCH  14  15
ATOM     15  C   UNL     1      23.312   3.367 189.670  0.00  0.00    +0.000 A 
ATOM     16  C   UNL     1      22.071   3.940 189.303  0.00  0.00    +0.000 A 
ATOM     17  C   UNL     1      22.066   5.128 188.534  0.00  0.00    +0.000 A 
ATOM     18  C   UNL     1      20.825   3.400 189.671  0.00  0.00    +0.000 A 
ATOM     19  C   UNL     1      23.262   5.714 188.131  0.00  0.00    +0.000 A 
ATOM     20  C   UNL     1      20.863   5.734 188.173  0.00  0.00    +0.000 A 
ATOM     21  C   UNL     1      24.480   5.141 188.479  0.00  0.00    +0.000 A 
ATOM     22  C   UNL     1      24.501   3.980 189.243  0.00  0.00    +0.000 A 
ATOM     23  C   UNL     1      19.646   5.179 188.562  0.00  0.00    +0.000 A 
ATOM     24  C   UNL     1      19.626   4.009 189.310  0.00  0.00    +0.000 A 
BRANCH  22  25
ATOM     25  O   UNL     1      25.738   3.479 189.555  0.00  0.00    +0.000 OA
ATOM     26  H   UNL     1      26.298   3.560 188.761  0.00  0.00    +0.000 HD
ENDBRANCH  22  25
ENDBRANCH  14  15
ENDBRANCH   1  14
TORSDOF 5
ENDMDL
MODEL 9
REMARK VINA RESULT:      -6.1      3.676      4.953
REMARK  Name = IPA3.pdbqt.pdb
REMARK  5 active torsions:
REMARK  status: ('A' for Active; 'I' for Inactive)
REMARK    1  A    between atoms: S_1  and  S_2
REMARK    2  A    between atoms: S_1  and  C_15
REMARK    3  A    between atoms: S_2  and  C_3
REMARK    4  A    between atoms: C_10  and  O_13
REMARK    5  A    between atoms: C_22  and  O_25
REMARK                            x       y       z     vdW  Elec       q    Type
REMARK                         _______ _______ _______ _____ _____    ______ ____
ROOT
ATOM      1  S   UNL     1      22.681   2.211 192.882  0.00  0.00    +0.000 S 
ENDROOT
BRANCH   1   2
ATOM      2  C   UNL     1      22.467   0.793 193.969  0.00  0.00    +0.000 A 
ATOM      3  C   UNL     1      21.182   0.402 194.418  0.00  0.00    +0.000 A 
ATOM      4  C   UNL     1      21.065  -0.737 195.249  0.00  0.00    +0.000 A 
ATOM      5  C   UNL     1      20.000   1.079 194.073  0.00  0.00    +0.000 A 
ATOM      6  C   UNL     1      22.196  -1.453 195.633  0.00  0.00    +0.000 A 
ATOM      7  C   UNL     1      19.814  -1.166 195.691  0.00  0.00    +0.000 A 
ATOM      8  C   UNL     1      23.457  -1.058 195.204  0.00  0.00    +0.000 A 
ATOM      9  C   UNL     1      23.589   0.054 194.378  0.00  0.00    +0.000 A 
ATOM     10  C   UNL     1      18.660  -0.479 195.324  0.00  0.00    +0.000 A 
ATOM     11  C   UNL     1      18.752   0.646 194.516  0.00  0.00    +0.000 A 
BRANCH   9  12
ATOM     12  O   UNL     1      24.862   0.377 193.988  0.00  0.00    +0.000 OA
ATOM     13  H   UNL     1      25.260  -0.417 193.588  0.00  0.00    +0.000 HD
ENDBRANCH   9  12
ENDBRANCH   1   2
BRANCH   1  14
ATOM     14  S   UNL     1      22.556   1.332 191.023  0.00  0.00    +0.000 S 
BRANCH  14  15
ATOM     15  C   UNL     1      21.569   2.532 190.118  0.00  0.00    +0.000 A 
ATOM     16  C   UNL     1      22.168   3.655 189.499  0.00  0.00    +0.000 A 
ATOM     17  C   UNL     1      21.352   4.556 188.775  0.00  0.00    +0.000 A 
ATOM     18  C   UNL     1      23.548   3.927 189.549  0.00  0.00    +0.000 A 
ATOM     19  C   UNL     1      19.978   4.351 188.689  0.00  0.00    +0.000 A 
ATOM     20  C   UNL     1      21.911   5.660 188.133  0.00  0.00    +0.000 A 
ATOM     21  C   UNL     1      19.388   3.256 189.311  0.00  0.00    +0.000 A 
ATOM     22  C   UNL     1      20.179   2.357 190.017  0.00  0.00    +0.000 A 
ATOM     23  C   UNL     1      23.282   5.896 188.194  0.00  0.00    +0.000 A 
ATOM     24  C   UNL     1      24.102   5.029 188.905  0.00  0.00    +0.000 A 
BRANCH  22  25
ATOM     25  O   UNL     1      19.529   1.298 190.594  0.00  0.00    +0.000 OA
ATOM     26  H   UNL     1      19.655   1.364 191.559  0.00  0.00    +0.000 HD
ENDBRANCH  22  25
ENDBRANCH  14  15
ENDBRANCH   1  14
TORSDOF 5
ENDMDL
