MODEL 1
REMARK VINA RESULT:      -8.5      0.000      0.000
REMARK  Name = 
REMARK  8 active torsions:
REMARK  status: ('A' for Active; 'I' for Inactive)
REMARK    1  A    between atoms: O_1  and  C_21
REMARK    2  A    between atoms: O_1  and  C_38
REMARK    3  A    between atoms: O_4  and  C_26
REMARK    4  A    between atoms: N_7  and  C_11
REMARK    5  A    between atoms: C_26  and  C_33
REMARK    6  A    between atoms: C_29  and  C_37
REMARK    7  A    between atoms: C_33  and  C_42
REMARK    8  A    between atoms: C_37  and  C_43
REMARK                            x       y       z     vdW  Elec       q    Type
REMARK                         _______ _______ _______ _____ _____    ______ ____
ROOT
ATOM      1  O   UNL     1      19.154   3.712 187.779  0.00  0.00    +0.000 OA
ATOM      2  O   UNL     1      18.043   0.682 190.488  0.00  0.00    +0.000 OA
ATOM      3  O   UNL     1      20.574   5.445 187.610  0.00  0.00    +0.000 OA
ATOM      4  N   UNL     1      20.138   0.637 191.425  0.00  0.00    +0.000 N 
ATOM      5  N   UNL     1      23.417   0.509 192.874  0.00  0.00    +0.000 NA
ATOM      6  C   UNL     1      21.455   1.049 191.440  0.00  0.00    +0.000 A 
ATOM      7  C   UNL     1      21.199  -0.435 193.184  0.00  0.00    +0.000 A 
ATOM      8  C   UNL     1      19.866  -0.316 192.504  0.00  0.00    +0.000 C 
ATOM      9  C   UNL     1      21.010   2.444 189.527  0.00  0.00    +0.000 A 
ATOM     10  C   UNL     1      21.522   3.394 188.473  0.00  0.00    +0.000 C 
ATOM     11  C   UNL     1      22.129   0.376 192.545  0.00  0.00    +0.000 A 
ATOM     12  C   UNL     1      19.723   2.046 189.506  0.00  0.00    +0.000 A 
ATOM     13  C   UNL     1      21.598  -1.192 194.277  0.00  0.00    +0.000 A 
ATOM     14  C   UNL     1      21.920   1.920 190.540  0.00  0.00    +0.000 A 
ATOM     15  C   UNL     1      19.209   1.063 190.512  0.00  0.00    +0.000 A 
ATOM     16  C   UNL     1      22.967  -1.098 194.662  0.00  0.00    +0.000 A 
ATOM     17  C   UNL     1      18.744   2.527 188.493  0.00  0.00    +0.000 C 
ATOM     18  C   UNL     1      23.827  -0.224 193.920  0.00  0.00    +0.000 A 
ATOM     19  C   UNL     1      20.370   4.276 187.941  0.00  0.00    +0.000 C 
ATOM     20  C   UNL     1      24.873  -1.696 196.057  0.00  0.00    +0.000 A 
ATOM     21  C   UNL     1      23.523  -1.823 195.739  0.00  0.00    +0.000 A 
ATOM     22  C   UNL     1      25.162  -0.113 194.288  0.00  0.00    +0.000 A 
ATOM     23  C   UNL     1      25.698  -0.834 195.355  0.00  0.00    +0.000 A 
ENDROOT
BRANCH  10  24
ATOM     24  O   UNL     1      22.510   4.249 189.064  0.00  0.00    +0.000 OA
ATOM     25  H   UNL     1      23.266   3.674 189.296  0.00  0.00    +0.000 HD
ENDBRANCH  10  24
BRANCH  10  26
ATOM     26  C   UNL     1      22.168   2.612 187.309  0.00  0.00    +0.000 C 
ATOM     27  C   UNL     1      23.693   2.577 187.340  0.00  0.00    +0.000 C 
ENDBRANCH  10  26
BRANCH  13  28
ATOM     28  C   UNL     1      20.602  -2.087 194.973  0.00  0.00    +0.000 C 
ATOM     29  C   UNL     1      19.873  -1.368 196.098  0.00  0.00    +0.000 C 
ENDBRANCH  13  28
BRANCH  20  30
ATOM     30  O   UNL     1      25.382  -2.393 197.154  0.00  0.00    +0.000 OA
BRANCH  30  38
ATOM     31  O   UNL     1      26.238  -3.952 195.670  0.00  0.00    +0.000 OA
ATOM     32  N   UNL     1      26.292  -4.369 197.934  0.00  0.00    +0.000 N 
ATOM     33  C   UNL     1      26.021  -6.405 200.018  0.00  0.00    +0.000 C 
ATOM     34  C   UNL     1      25.321  -5.025 200.092  0.00  0.00    +0.000 C 
ATOM     35  C   UNL     1      26.261  -6.751 198.526  0.00  0.00    +0.000 C 
ATOM     36  C   UNL     1      26.062  -3.948 199.306  0.00  0.00    +0.000 C 
ATOM     37  C   UNL     1      26.982  -5.634 197.777  0.00  0.00    +0.000 C 
ATOM     38  C   UNL     1      25.993  -3.598 196.820  0.00  0.00    +0.000 C 
BRANCH  33  39
ATOM     39  N   UNL     1      25.238  -7.472 200.717  0.00  0.00    +0.000 NA
ATOM     40  C   UNL     1      24.694  -8.471 199.772  0.00  0.00    +0.000 C 
ATOM     41  C   UNL     1      26.028  -8.150 201.766  0.00  0.00    +0.000 C 
ATOM     42  C   UNL     1      23.864  -9.554 200.465  0.00  0.00    +0.000 C 
ATOM     43  C   UNL     1      25.232  -9.226 202.508  0.00  0.00    +0.000 C 
ATOM     44  C   UNL     1      24.660 -10.257 201.551  0.00  0.00    +0.000 C 
ENDBRANCH  33  39
ENDBRANCH  30  38
ENDBRANCH  20  30
TORSDOF 6
ENDMDL
MODEL 2
REMARK VINA RESULT:      -8.5      4.092      5.658
REMARK  Name = 
REMARK  8 active torsions:
REMARK  status: ('A' for Active; 'I' for Inactive)
REMARK    1  A    between atoms: O_1  and  C_21
REMARK    2  A    between atoms: O_1  and  C_38
REMARK    3  A    between atoms: O_4  and  C_26
REMARK    4  A    between atoms: N_7  and  C_11
REMARK    5  A    between atoms: C_26  and  C_33
REMARK    6  A    between atoms: C_29  and  C_37
REMARK    7  A    between atoms: C_33  and  C_42
REMARK    8  A    between atoms: C_37  and  C_43
REMARK                            x       y       z     vdW  Elec       q    Type
REMARK                         _______ _______ _______ _____ _____    ______ ____
ROOT
ATOM      1  O   UNL     1      18.845   3.102 187.228  0.00  0.00    +0.000 OA
ATOM      2  O   UNL     1      17.135   1.174 190.561  0.00  0.00    +0.000 OA
ATOM      3  O   UNL     1      20.419   4.627 186.732  0.00  0.00    +0.000 OA
ATOM      4  N   UNL     1      19.079   1.356 191.768  0.00  0.00    +0.000 N 
ATOM      5  N   UNL     1      22.118   1.581 193.659  0.00  0.00    +0.000 NA
ATOM      6  C   UNL     1      20.414   1.698 191.850  0.00  0.00    +0.000 A 
ATOM      7  C   UNL     1      19.807   0.879 193.917  0.00  0.00    +0.000 A 
ATOM      8  C   UNL     1      18.588   0.821 193.041  0.00  0.00    +0.000 C 
ATOM      9  C   UNL     1      20.343   2.405 189.548  0.00  0.00    +0.000 A 
ATOM     10  C   UNL     1      21.067   2.936 188.336  0.00  0.00    +0.000 C 
ATOM     11  C   UNL     1      20.878   1.398 193.200  0.00  0.00    +0.000 A 
ATOM     12  C   UNL     1      19.040   2.074 189.461  0.00  0.00    +0.000 A 
ATOM     13  C   UNL     1      19.994   0.507 195.241  0.00  0.00    +0.000 A 
ATOM     14  C   UNL     1      21.065   2.207 190.800  0.00  0.00    +0.000 A 
ATOM     15  C   UNL     1      18.316   1.496 190.638  0.00  0.00    +0.000 A 
ATOM     16  C   UNL     1      21.304   0.669 195.777  0.00  0.00    +0.000 A 
ATOM     17  C   UNL     1      18.245   2.234 188.212  0.00  0.00    +0.000 C 
ATOM     18  C   UNL     1      22.325   1.216 194.934  0.00  0.00    +0.000 A 
ATOM     19  C   UNL     1      20.074   3.639 187.383  0.00  0.00    +0.000 C 
ATOM     20  C   UNL     1      22.954   0.486 197.560  0.00  0.00    +0.000 A 
ATOM     21  C   UNL     1      21.650   0.315 197.099  0.00  0.00    +0.000 A 
ATOM     22  C   UNL     1      23.605   1.389 195.444  0.00  0.00    +0.000 A 
ATOM     23  C   UNL     1      23.935   1.037 196.753  0.00  0.00    +0.000 A 
ENDROOT
BRANCH  10  24
ATOM     24  O   UNL     1      22.040   3.898 188.765  0.00  0.00    +0.000 OA
ATOM     25  H   UNL     1      22.013   4.624 188.110  0.00  0.00    +0.000 HD
ENDBRANCH  10  24
BRANCH  10  26
ATOM     26  C   UNL     1      21.788   1.791 187.593  0.00  0.00    +0.000 C 
ATOM     27  C   UNL     1      23.124   2.185 186.969  0.00  0.00    +0.000 C 
ENDBRANCH  10  26
BRANCH  13  28
ATOM     28  C   UNL     1      18.842  -0.070 196.027  0.00  0.00    +0.000 C 
ATOM     29  C   UNL     1      18.041   1.005 196.745  0.00  0.00    +0.000 C 
ENDBRANCH  13  28
BRANCH  20  30
ATOM     30  O   UNL     1      23.254   0.167 198.886  0.00  0.00    +0.000 OA
BRANCH  30  38
ATOM     31  O   UNL     1      23.324  -2.147 198.961  0.00  0.00    +0.000 OA
ATOM     32  N   UNL     1      21.660  -1.009 200.075  0.00  0.00    +0.000 N 
ATOM     33  C   UNL     1      18.834  -1.005 200.835  0.00  0.00    +0.000 C 
ATOM     34  C   UNL     1      19.548   0.234 200.237  0.00  0.00    +0.000 C 
ATOM     35  C   UNL     1      19.576  -2.276 200.349  0.00  0.00    +0.000 C 
ATOM     36  C   UNL     1      21.049   0.235 200.511  0.00  0.00    +0.000 C 
ATOM     37  C   UNL     1      21.075  -2.217 200.623  0.00  0.00    +0.000 C 
ATOM     38  C   UNL     1      22.794  -1.086 199.281  0.00  0.00    +0.000 C 
BRANCH  33  39
ATOM     39  N   UNL     1      17.380  -1.040 200.481  0.00  0.00    +0.000 NA
ATOM     40  C   UNL     1      16.909   0.252 199.939  0.00  0.00    +0.000 C 
ATOM     41  C   UNL     1      17.061  -2.129 199.535  0.00  0.00    +0.000 C 
ATOM     42  C   UNL     1      15.416   0.245 199.600  0.00  0.00    +0.000 C 
ATOM     43  C   UNL     1      15.572  -2.195 199.185  0.00  0.00    +0.000 C 
ATOM     44  C   UNL     1      15.070  -0.873 198.632  0.00  0.00    +0.000 C 
ENDBRANCH  33  39
ENDBRANCH  30  38
ENDBRANCH  20  30
TORSDOF 6
ENDMDL
MODEL 3
REMARK VINA RESULT:      -8.0      6.526      8.604
REMARK  Name = 
REMARK  8 active torsions:
REMARK  status: ('A' for Active; 'I' for Inactive)
REMARK    1  A    between atoms: O_1  and  C_21
REMARK    2  A    between atoms: O_1  and  C_38
REMARK    3  A    between atoms: O_4  and  C_26
REMARK    4  A    between atoms: N_7  and  C_11
REMARK    5  A    between atoms: C_26  and  C_33
REMARK    6  A    between atoms: C_29  and  C_37
REMARK    7  A    between atoms: C_33  and  C_42
REMARK    8  A    between atoms: C_37  and  C_43
REMARK                            x       y       z     vdW  Elec       q    Type
REMARK                         _______ _______ _______ _____ _____    ______ ____
ROOT
ATOM      1  O   UNL     1      18.940   2.616 189.743  0.00  0.00    +0.000 OA
ATOM      2  O   UNL     1      21.290  -0.057 191.997  0.00  0.00    +0.000 OA
ATOM      3  O   UNL     1      19.089   4.613 188.722  0.00  0.00    +0.000 OA
ATOM      4  N   UNL     1      23.220   0.646 190.972  0.00  0.00    +0.000 N 
ATOM      5  N   UNL     1      26.246   1.690 189.353  0.00  0.00    +0.000 NA
ATOM      6  C   UNL     1      23.863   1.400 190.012  0.00  0.00    +0.000 A 
ATOM      7  C   UNL     1      25.496   0.246 191.157  0.00  0.00    +0.000 A 
ATOM      8  C   UNL     1      24.176  -0.132 191.765  0.00  0.00    +0.000 C 
ATOM      9  C   UNL     1      21.727   2.248 189.289  0.00  0.00    +0.000 A 
ATOM     10  C   UNL     1      20.930   3.093 188.327  0.00  0.00    +0.000 C 
ATOM     11  C   UNL     1      25.296   1.150 190.121  0.00  0.00    +0.000 A 
ATOM     12  C   UNL     1      21.092   1.514 190.225  0.00  0.00    +0.000 A 
ATOM     13  C   UNL     1      26.787  -0.161 191.463  0.00  0.00    +0.000 A 
ATOM     14  C   UNL     1      23.180   2.187 189.175  0.00  0.00    +0.000 A 
ATOM     15  C   UNL     1      21.862   0.628 191.155  0.00  0.00    +0.000 A 
ATOM     16  C   UNL     1      27.838   0.375 190.663  0.00  0.00    +0.000 A 
ATOM     17  C   UNL     1      19.613   1.515 190.388  0.00  0.00    +0.000 C 
ATOM     18  C   UNL     1      27.501   1.301 189.623  0.00  0.00    +0.000 A 
ATOM     19  C   UNL     1      19.587   3.512 188.968  0.00  0.00    +0.000 C 
ATOM     20  C   UNL     1      30.178   0.587 190.017  0.00  0.00    +0.000 A 
ATOM     21  C   UNL     1      29.198   0.038 190.841  0.00  0.00    +0.000 A 
ATOM     22  C   UNL     1      28.515   1.839 188.840  0.00  0.00    +0.000 A 
ATOM     23  C   UNL     1      29.855   1.500 189.027  0.00  0.00    +0.000 A 
ENDROOT
BRANCH  10  24
ATOM     24  O   UNL     1      21.678   4.280 188.028  0.00  0.00    +0.000 OA
ATOM     25  H   UNL     1      22.329   4.027 187.343  0.00  0.00    +0.000 HD
ENDBRANCH  10  24
BRANCH  10  26
ATOM     26  C   UNL     1      20.670   2.321 187.016  0.00  0.00    +0.000 C 
ATOM     27  C   UNL     1      20.248   3.196 185.839  0.00  0.00    +0.000 C 
ENDBRANCH  10  26
BRANCH  13  28
ATOM     28  C   UNL     1      27.018  -1.153 192.577  0.00  0.00    +0.000 C 
ATOM     29  C   UNL     1      27.187  -0.472 193.926  0.00  0.00    +0.000 C 
ENDBRANCH  13  28
BRANCH  20  30
ATOM     30  O   UNL     1      31.517   0.268 190.246  0.00  0.00    +0.000 OA
BRANCH  30  38
ATOM     31  O   UNL     1      32.119   2.204 191.367  0.00  0.00    +0.000 OA
ATOM     32  N   UNL     1      32.644   0.147 192.260  0.00  0.00    +0.000 N 
ATOM     33  C   UNL     1      34.642  -1.403 193.732  0.00  0.00    +0.000 C 
ATOM     34  C   UNL     1      33.954  -1.922 192.445  0.00  0.00    +0.000 C 
ATOM     35  C   UNL     1      34.632   0.146 193.700  0.00  0.00    +0.000 C 
ATOM     36  C   UNL     1      32.575  -1.304 192.226  0.00  0.00    +0.000 C 
ATOM     37  C   UNL     1      33.238   0.716 193.454  0.00  0.00    +0.000 C 
ATOM     38  C   UNL     1      32.092   0.978 191.296  0.00  0.00    +0.000 C 
BRANCH  33  39
ATOM     39  N   UNL     1      36.028  -1.948 193.888  0.00  0.00    +0.000 NA
ATOM     40  C   UNL     1      36.562  -2.477 192.615  0.00  0.00    +0.000 C 
ATOM     41  C   UNL     1      36.961  -0.948 194.447  0.00  0.00    +0.000 C 
ATOM     42  C   UNL     1      37.967  -3.067 192.759  0.00  0.00    +0.000 C 
ATOM     43  C   UNL     1      38.377  -1.498 194.637  0.00  0.00    +0.000 C 
ATOM     44  C   UNL     1      38.938  -2.054 193.340  0.00  0.00    +0.000 C 
ENDBRANCH  33  39
ENDBRANCH  30  38
ENDBRANCH  20  30
TORSDOF 6
ENDMDL
MODEL 4
REMARK VINA RESULT:      -7.8     33.779     36.138
REMARK  Name = 
REMARK  8 active torsions:
REMARK  status: ('A' for Active; 'I' for Inactive)
REMARK    1  A    between atoms: O_1  and  C_21
REMARK    2  A    between atoms: O_1  and  C_38
REMARK    3  A    between atoms: O_4  and  C_26
REMARK    4  A    between atoms: N_7  and  C_11
REMARK    5  A    between atoms: C_26  and  C_33
REMARK    6  A    between atoms: C_29  and  C_37
REMARK    7  A    between atoms: C_33  and  C_42
REMARK    8  A    between atoms: C_37  and  C_43
REMARK                            x       y       z     vdW  Elec       q    Type
REMARK                         _______ _______ _______ _____ _____    ______ ____
ROOT
ATOM      1  O   UNL     1      31.645 -30.356 169.626  0.00  0.00    +0.000 OA
ATOM      2  O   UNL     1      33.904 -26.950 168.606  0.00  0.00    +0.000 OA
ATOM      3  O   UNL     1      31.708 -32.120 171.017  0.00  0.00    +0.000 OA
ATOM      4  N   UNL     1      34.795 -26.806 170.716  0.00  0.00    +0.000 N 
ATOM      5  N   UNL     1      36.165 -26.528 174.020  0.00  0.00    +0.000 NA
ATOM      6  C   UNL     1      34.851 -27.234 172.027  0.00  0.00    +0.000 A 
ATOM      7  C   UNL     1      36.367 -25.510 171.822  0.00  0.00    +0.000 A 
ATOM      8  C   UNL     1      35.730 -25.703 170.477  0.00  0.00    +0.000 C 
ATOM      9  C   UNL     1      33.166 -28.883 171.530  0.00  0.00    +0.000 A 
ATOM     10  C   UNL     1      32.252 -29.983 172.010  0.00  0.00    +0.000 C 
ATOM     11  C   UNL     1      35.837 -26.420 172.730  0.00  0.00    +0.000 A 
ATOM     12  C   UNL     1      33.105 -28.470 170.249  0.00  0.00    +0.000 A 
ATOM     13  C   UNL     1      37.333 -24.611 172.251  0.00  0.00    +0.000 A 
ATOM     14  C   UNL     1      34.079 -28.234 172.464  0.00  0.00    +0.000 A 
ATOM     15  C   UNL     1      33.967 -27.343 169.766  0.00  0.00    +0.000 A 
ATOM     16  C   UNL     1      37.708 -24.673 173.624  0.00  0.00    +0.000 A 
ATOM     17  C   UNL     1      32.187 -29.075 169.246  0.00  0.00    +0.000 C 
ATOM     18  C   UNL     1      37.088 -25.659 174.458  0.00  0.00    +0.000 A 
ATOM     19  C   UNL     1      31.869 -30.912 170.836  0.00  0.00    +0.000 C 
ATOM     20  C   UNL     1      38.976 -23.912 175.561  0.00  0.00    +0.000 A 
ATOM     21  C   UNL     1      38.661 -23.809 174.208  0.00  0.00    +0.000 A 
ATOM     22  C   UNL     1      37.449 -25.738 175.797  0.00  0.00    +0.000 A 
ATOM     23  C   UNL     1      38.394 -24.881 176.362  0.00  0.00    +0.000 A 
ENDROOT
BRANCH  10  24
ATOM     24  O   UNL     1      32.947 -30.761 172.995  0.00  0.00    +0.000 OA
ATOM     25  H   UNL     1      32.811 -31.698 172.748  0.00  0.00    +0.000 HD
ENDBRANCH  10  24
BRANCH  10  26
ATOM     26  C   UNL     1      30.979 -29.388 172.649  0.00  0.00    +0.000 C 
ATOM     27  C   UNL     1      30.676 -29.902 174.053  0.00  0.00    +0.000 C 
ENDBRANCH  10  26
BRANCH  13  28
ATOM     28  C   UNL     1      37.907 -23.608 171.279  0.00  0.00    +0.000 C 
ATOM     29  C   UNL     1      37.100 -22.319 171.241  0.00  0.00    +0.000 C 
ENDBRANCH  13  28
BRANCH  20  30
ATOM     30  O   UNL     1      39.953 -23.074 176.098  0.00  0.00    +0.000 OA
BRANCH  30  38
ATOM     31  O   UNL     1      38.653 -21.166 176.286  0.00  0.00    +0.000 OA
ATOM     32  N   UNL     1      40.725 -21.052 175.286  0.00  0.00    +0.000 N 
ATOM     33  C   UNL     1      42.302 -19.844 173.139  0.00  0.00    +0.000 C 
ATOM     34  C   UNL     1      42.318 -21.363 173.444  0.00  0.00    +0.000 C 
ATOM     35  C   UNL     1      40.948 -19.264 173.620  0.00  0.00    +0.000 C 
ATOM     36  C   UNL     1      41.980 -21.673 174.900  0.00  0.00    +0.000 C 
ATOM     37  C   UNL     1      40.643 -19.620 175.071  0.00  0.00    +0.000 C 
ATOM     38  C   UNL     1      39.688 -21.718 175.924  0.00  0.00    +0.000 C 
BRANCH  33  39
ATOM     39  N   UNL     1      42.546 -19.559 171.689  0.00  0.00    +0.000 NA
ATOM     40  C   UNL     1      42.973 -20.767 170.951  0.00  0.00    +0.000 C 
ATOM     41  C   UNL     1      41.367 -18.959 171.031  0.00  0.00    +0.000 C 
ATOM     42  C   UNL     1      43.257 -20.490 169.472  0.00  0.00    +0.000 C 
ATOM     43  C   UNL     1      41.609 -18.637 169.555  0.00  0.00    +0.000 C 
ATOM     44  C   UNL     1      42.056 -19.865 168.783  0.00  0.00    +0.000 C 
ENDBRANCH  33  39
ENDBRANCH  30  38
ENDBRANCH  20  30
TORSDOF 6
ENDMDL
MODEL 5
REMARK VINA RESULT:      -7.6      6.129      9.384
REMARK  Name = 
REMARK  8 active torsions:
REMARK  status: ('A' for Active; 'I' for Inactive)
REMARK    1  A    between atoms: O_1  and  C_21
REMARK    2  A    between atoms: O_1  and  C_38
REMARK    3  A    between atoms: O_4  and  C_26
REMARK    4  A    between atoms: N_7  and  C_11
REMARK    5  A    between atoms: C_26  and  C_33
REMARK    6  A    between atoms: C_29  and  C_37
REMARK    7  A    between atoms: C_33  and  C_42
REMARK    8  A    between atoms: C_37  and  C_43
REMARK                            x       y       z     vdW  Elec       q    Type
REMARK                         _______ _______ _______ _____ _____    ______ ____
ROOT
ATOM      1  O   UNL     1      19.006   2.415 189.880  0.00  0.00    +0.000 OA
ATOM      2  O   UNL     1      20.666  -0.416 192.523  0.00  0.00    +0.000 OA
ATOM      3  O   UNL     1      19.511   4.376 188.907  0.00  0.00    +0.000 OA
ATOM      4  N   UNL     1      22.804   0.105 191.870  0.00  0.00    +0.000 N 
ATOM      5  N   UNL     1      26.153   0.863 190.832  0.00  0.00    +0.000 NA
ATOM      6  C   UNL     1      23.674   0.787 191.043  0.00  0.00    +0.000 A 
ATOM      7  C   UNL     1      24.964  -0.486 192.467  0.00  0.00    +0.000 A 
ATOM      8  C   UNL     1      23.528  -0.740 192.823  0.00  0.00    +0.000 C 
ATOM      9  C   UNL     1      21.786   1.803 189.943  0.00  0.00    +0.000 A 
ATOM     10  C   UNL     1      21.254   2.699 188.853  0.00  0.00    +0.000 C 
ATOM     11  C   UNL     1      25.036   0.418 191.413  0.00  0.00    +0.000 A 
ATOM     12  C   UNL     1      20.931   1.140 190.747  0.00  0.00    +0.000 A 
ATOM     13  C   UNL     1      26.138  -0.996 193.003  0.00  0.00    +0.000 A 
ATOM     14  C   UNL     1      23.225   1.617 190.097  0.00  0.00    +0.000 A 
ATOM     15  C   UNL     1      21.439   0.205 191.800  0.00  0.00    +0.000 A 
ATOM     16  C   UNL     1      27.359  -0.564 192.409  0.00  0.00    +0.000 A 
ATOM     17  C   UNL     1      19.452   1.270 190.636  0.00  0.00    +0.000 C 
ATOM     18  C   UNL     1      27.299   0.372 191.326  0.00  0.00    +0.000 A 
ATOM     19  C   UNL     1      19.859   3.241 189.238  0.00  0.00    +0.000 C 
ATOM     20  C   UNL     1      29.788  -0.562 192.202  0.00  0.00    +0.000 A 
ATOM     21  C   UNL     1      28.630  -1.013 192.833  0.00  0.00    +0.000 A 
ATOM     22  C   UNL     1      28.481   0.810 190.742  0.00  0.00    +0.000 A 
ATOM     23  C   UNL     1      29.730   0.361 191.171  0.00  0.00    +0.000 A 
ENDROOT
BRANCH  10  24
ATOM     24  O   UNL     1      22.144   3.813 188.697  0.00  0.00    +0.000 OA
ATOM     25  H   UNL     1      22.468   3.777 187.775  0.00  0.00    +0.000 HD
ENDBRANCH  10  24
BRANCH  10  26
ATOM     26  C   UNL     1      21.172   1.933 187.516  0.00  0.00    +0.000 C 
ATOM     27  C   UNL     1      20.336   2.623 186.441  0.00  0.00    +0.000 C 
ENDBRANCH  10  26
BRANCH  13  28
ATOM     28  C   UNL     1      26.075  -1.988 194.139  0.00  0.00    +0.000 C 
ATOM     29  C   UNL     1      26.027  -1.303 195.497  0.00  0.00    +0.000 C 
ENDBRANCH  13  28
BRANCH  20  30
ATOM     30  O   UNL     1      31.029  -0.991 192.672  0.00  0.00    +0.000 OA
BRANCH  30  38
ATOM     31  O   UNL     1      31.046  -0.017 194.774  0.00  0.00    +0.000 OA
ATOM     32  N   UNL     1      32.745   0.431 193.285  0.00  0.00    +0.000 N 
ATOM     33  C   UNL     1      34.570   2.472 192.254  0.00  0.00    +0.000 C 
ATOM     34  C   UNL     1      33.750   1.534 191.334  0.00  0.00    +0.000 C 
ATOM     35  C   UNL     1      33.816   2.617 193.600  0.00  0.00    +0.000 C 
ATOM     36  C   UNL     1      33.401   0.209 192.008  0.00  0.00    +0.000 C 
ATOM     37  C   UNL     1      33.468   1.269 194.222  0.00  0.00    +0.000 C 
ATOM     38  C   UNL     1      31.562  -0.182 193.672  0.00  0.00    +0.000 C 
BRANCH  33  39
ATOM     39  N   UNL     1      34.828   3.802 191.615  0.00  0.00    +0.000 NA
ATOM     40  C   UNL     1      33.591   4.601 191.479  0.00  0.00    +0.000 C 
ATOM     41  C   UNL     1      35.853   4.581 192.340  0.00  0.00    +0.000 C 
ATOM     42  C   UNL     1      33.828   5.952 190.799  0.00  0.00    +0.000 C 
ATOM     43  C   UNL     1      36.146   5.932 191.683  0.00  0.00    +0.000 C 
ATOM     44  C   UNL     1      34.885   6.763 191.529  0.00  0.00    +0.000 C 
ENDBRANCH  33  39
ENDBRANCH  30  38
ENDBRANCH  20  30
TORSDOF 6
ENDMDL
MODEL 6
REMARK VINA RESULT:      -7.4     21.968     26.743
REMARK  Name = 
REMARK  8 active torsions:
REMARK  status: ('A' for Active; 'I' for Inactive)
REMARK    1  A    between atoms: O_1  and  C_21
REMARK    2  A    between atoms: O_1  and  C_38
REMARK    3  A    between atoms: O_4  and  C_26
REMARK    4  A    between atoms: N_7  and  C_11
REMARK    5  A    between atoms: C_26  and  C_33
REMARK    6  A    between atoms: C_29  and  C_37
REMARK    7  A    between atoms: C_33  and  C_42
REMARK    8  A    between atoms: C_37  and  C_43
REMARK                            x       y       z     vdW  Elec       q    Type
REMARK                         _______ _______ _______ _____ _____    ______ ____
ROOT
ATOM      1  O   UNL     1      13.980 -19.460 179.442  0.00  0.00    +0.000 OA
ATOM      2  O   UNL     1      14.199 -15.415 180.597  0.00  0.00    +0.000 OA
ATOM      3  O   UNL     1      12.762 -20.821 178.132  0.00  0.00    +0.000 OA
ATOM      4  N   UNL     1      13.309 -14.710 178.602  0.00  0.00    +0.000 N 
ATOM      5  N   UNL     1      11.967 -13.578 175.475  0.00  0.00    +0.000 NA
ATOM      6  C   UNL     1      12.867 -14.980 177.324  0.00  0.00    +0.000 A 
ATOM      7  C   UNL     1      12.638 -12.710 177.643  0.00  0.00    +0.000 A 
ATOM      8  C   UNL     1      13.204 -13.281 178.911  0.00  0.00    +0.000 C 
ATOM      9  C   UNL     1      13.358 -17.313 177.678  0.00  0.00    +0.000 A 
ATOM     10  C   UNL     1      13.420 -18.718 177.134  0.00  0.00    +0.000 C 
ATOM     11  C   UNL     1      12.445 -13.725 176.713  0.00  0.00    +0.000 A 
ATOM     12  C   UNL     1      13.792 -17.056 178.928  0.00  0.00    +0.000 A 
ATOM     13  C   UNL     1      12.313 -11.405 177.299  0.00  0.00    +0.000 A 
ATOM     14  C   UNL     1      12.875 -16.225 176.835  0.00  0.00    +0.000 A 
ATOM     15  C   UNL     1      13.789 -15.659 179.468  0.00  0.00    +0.000 A 
ATOM     16  C   UNL     1      11.812 -11.191 175.983  0.00  0.00    +0.000 A 
ATOM     17  C   UNL     1      14.313 -18.113 179.837  0.00  0.00    +0.000 C 
ATOM     18  C   UNL     1      11.658 -12.322 175.117  0.00  0.00    +0.000 A 
ATOM     19  C   UNL     1      13.340 -19.744 178.287  0.00  0.00    +0.000 C 
ATOM     20  C   UNL     1      10.987  -9.772 174.181  0.00  0.00    +0.000 A 
ATOM     21  C   UNL     1      11.459  -9.917 175.484  0.00  0.00    +0.000 A 
ATOM     22  C   UNL     1      11.162 -12.132 173.834  0.00  0.00    +0.000 A 
ATOM     23  C   UNL     1      10.815 -10.869 173.353  0.00  0.00    +0.000 A 
ENDROOT
BRANCH  10  24
ATOM     24  O   UNL     1      12.296 -18.925 176.266  0.00  0.00    +0.000 OA
ATOM     25  H   UNL     1      12.656 -18.956 175.357  0.00  0.00    +0.000 HD
ENDBRANCH  10  24
BRANCH  10  26
ATOM     26  C   UNL     1      14.720 -18.930 176.329  0.00  0.00    +0.000 C 
ATOM     27  C   UNL     1      14.505 -19.354 174.879  0.00  0.00    +0.000 C 
ENDBRANCH  10  26
BRANCH  13  28
ATOM     28  C   UNL     1      12.530 -10.291 178.294  0.00  0.00    +0.000 C 
ATOM     29  C   UNL     1      11.323 -10.084 179.197  0.00  0.00    +0.000 C 
ENDBRANCH  13  28
BRANCH  20  30
ATOM     30  O   UNL     1      10.606  -8.507 173.733  0.00  0.00    +0.000 OA
BRANCH  30  38
ATOM     31  O   UNL     1      12.790  -8.192 173.030  0.00  0.00    +0.000 OA
ATOM     32  N   UNL     1      11.194  -6.595 172.577  0.00  0.00    +0.000 N 
ATOM     33  C   UNL     1      10.643  -3.729 172.364  0.00  0.00    +0.000 C 
ATOM     34  C   UNL     1       9.723  -4.709 173.134  0.00  0.00    +0.000 C 
ATOM     35  C   UNL     1      12.077  -4.316 172.350  0.00  0.00    +0.000 C 
ATOM     36  C   UNL     1       9.815  -6.138 172.606  0.00  0.00    +0.000 C 
ATOM     37  C   UNL     1      12.115  -5.752 171.838  0.00  0.00    +0.000 C 
ATOM     38  C   UNL     1      11.628  -7.801 173.106  0.00  0.00    +0.000 C 
BRANCH  33  39
ATOM     39  N   UNL     1      10.612  -2.351 172.948  0.00  0.00    +0.000 NA
ATOM     40  C   UNL     1       9.720  -1.447 172.191  0.00  0.00    +0.000 C 
ATOM     41  C   UNL     1      10.226  -2.357 174.375  0.00  0.00    +0.000 C 
ATOM     42  C   UNL     1       9.698  -0.024 172.755  0.00  0.00    +0.000 C 
ATOM     43  C   UNL     1      10.215  -0.958 174.994  0.00  0.00    +0.000 C 
ATOM     44  C   UNL     1       9.310  -0.014 174.223  0.00  0.00    +0.000 C 
ENDBRANCH  33  39
ENDBRANCH  30  38
ENDBRANCH  20  30
TORSDOF 6
ENDMDL
MODEL 7
REMARK VINA RESULT:      -6.8     24.753     29.720
REMARK  Name = 
REMARK  8 active torsions:
REMARK  status: ('A' for Active; 'I' for Inactive)
REMARK    1  A    between atoms: O_1  and  C_21
REMARK    2  A    between atoms: O_1  and  C_38
REMARK    3  A    between atoms: O_4  and  C_26
REMARK    4  A    between atoms: N_7  and  C_11
REMARK    5  A    between atoms: C_26  and  C_33
REMARK    6  A    between atoms: C_29  and  C_37
REMARK    7  A    between atoms: C_33  and  C_42
REMARK    8  A    between atoms: C_37  and  C_43
REMARK                            x       y       z     vdW  Elec       q    Type
REMARK                         _______ _______ _______ _____ _____    ______ ____
ROOT
ATOM      1  O   UNL     1      54.279 -14.708 189.543  0.00  0.00    +0.000 OA
ATOM      2  O   UNL     1      51.979 -17.414 191.811  0.00  0.00    +0.000 OA
ATOM      3  O   UNL     1      54.444 -13.911 187.449  0.00  0.00    +0.000 OA
ATOM      4  N   UNL     1      50.136 -17.091 190.481  0.00  0.00    +0.000 N 
ATOM      5  N   UNL     1      47.226 -16.568 188.450  0.00  0.00    +0.000 NA
ATOM      6  C   UNL     1      49.501 -16.428 189.451  0.00  0.00    +0.000 A 
ATOM      7  C   UNL     1      47.993 -17.953 190.293  0.00  0.00    +0.000 A 
ATOM      8  C   UNL     1      49.258 -18.093 191.090  0.00  0.00    +0.000 C 
ATOM      9  C   UNL     1      51.498 -15.127 189.096  0.00  0.00    +0.000 A 
ATOM     10  C   UNL     1      52.204 -14.019 188.355  0.00  0.00    +0.000 C 
ATOM     11  C   UNL     1      48.150 -16.965 189.329  0.00  0.00    +0.000 A 
ATOM     12  C   UNL     1      52.125 -15.770 190.101  0.00  0.00    +0.000 A 
ATOM     13  C   UNL     1      46.781 -18.622 190.387  0.00  0.00    +0.000 A 
ATOM     14  C   UNL     1      50.122 -15.470 188.755  0.00  0.00    +0.000 A 
ATOM     15  C   UNL     1      51.422 -16.837 190.882  0.00  0.00    +0.000 A 
ATOM     16  C   UNL     1      45.754 -18.225 189.482  0.00  0.00    +0.000 A 
ATOM     17  C   UNL     1      53.521 -15.462 190.512  0.00  0.00    +0.000 C 
ATOM     18  C   UNL     1      46.042 -17.192 188.532  0.00  0.00    +0.000 A 
ATOM     19  C   UNL     1      53.734 -14.232 188.403  0.00  0.00    +0.000 C 
ATOM     20  C   UNL     1      43.499 -18.358 188.569  0.00  0.00    +0.000 A 
ATOM     21  C   UNL     1      44.464 -18.799 189.472  0.00  0.00    +0.000 A 
ATOM     22  C   UNL     1      45.055 -16.800 187.636  0.00  0.00    +0.000 A 
ATOM     23  C   UNL     1      43.784 -17.376 187.635  0.00  0.00    +0.000 A 
ENDROOT
BRANCH  10  24
ATOM     24  O   UNL     1      51.787 -14.043 186.983  0.00  0.00    +0.000 OA
ATOM     25  H   UNL     1      51.381 -14.921 186.837  0.00  0.00    +0.000 HD
ENDBRANCH  10  24
BRANCH  10  26
ATOM     26  C   UNL     1      51.843 -12.647 188.964  0.00  0.00    +0.000 C 
ATOM     27  C   UNL     1      52.204 -11.451 188.087  0.00  0.00    +0.000 C 
ENDBRANCH  10  26
BRANCH  13  28
ATOM     28  C   UNL     1      46.591 -19.688 191.439  0.00  0.00    +0.000 C 
ATOM     29  C   UNL     1      47.022 -21.062 190.947  0.00  0.00    +0.000 C 
ENDBRANCH  13  28
BRANCH  20  30
ATOM     30  O   UNL     1      42.247 -18.975 188.556  0.00  0.00    +0.000 OA
BRANCH  30  38
ATOM     31  O   UNL     1      41.410 -17.100 189.626  0.00  0.00    +0.000 OA
ATOM     32  N   UNL     1      40.008 -18.854 189.115  0.00  0.00    +0.000 N 
ATOM     33  C   UNL     1      37.731 -20.460 190.008  0.00  0.00    +0.000 C 
ATOM     34  C   UNL     1      39.034 -21.083 189.447  0.00  0.00    +0.000 C 
ATOM     35  C   UNL     1      38.074 -19.074 190.610  0.00  0.00    +0.000 C 
ATOM     36  C   UNL     1      39.770 -20.146 188.494  0.00  0.00    +0.000 C 
ATOM     37  C   UNL     1      38.831 -18.183 189.630  0.00  0.00    +0.000 C 
ATOM     38  C   UNL     1      41.238 -18.213 189.138  0.00  0.00    +0.000 C 
BRANCH  33  39
ATOM     39  N   UNL     1      37.066 -21.352 191.009  0.00  0.00    +0.000 NA
ATOM     40  C   UNL     1      35.630 -21.543 190.715  0.00  0.00    +0.000 C 
ATOM     41  C   UNL     1      37.735 -22.665 191.119  0.00  0.00    +0.000 C 
ATOM     42  C   UNL     1      34.924 -22.429 191.745  0.00  0.00    +0.000 C 
ATOM     43  C   UNL     1      37.083 -23.579 192.159  0.00  0.00    +0.000 C 
ATOM     44  C   UNL     1      35.605 -23.780 191.875  0.00  0.00    +0.000 C 
ENDBRANCH  33  39
ENDBRANCH  30  38
ENDBRANCH  20  30
TORSDOF 6
ENDMDL
MODEL 8
REMARK VINA RESULT:      -6.7     29.355     31.951
REMARK  Name = 
REMARK  8 active torsions:
REMARK  status: ('A' for Active; 'I' for Inactive)
REMARK    1  A    between atoms: O_1  and  C_21
REMARK    2  A    between atoms: O_1  and  C_38
REMARK    3  A    between atoms: O_4  and  C_26
REMARK    4  A    between atoms: N_7  and  C_11
REMARK    5  A    between atoms: C_26  and  C_33
REMARK    6  A    between atoms: C_29  and  C_37
REMARK    7  A    between atoms: C_33  and  C_42
REMARK    8  A    between atoms: C_37  and  C_43
REMARK                            x       y       z     vdW  Elec       q    Type
REMARK                         _______ _______ _______ _____ _____    ______ ____
ROOT
ATOM      1  O   UNL     1       6.779 -31.552 178.201  0.00  0.00    +0.000 OA
ATOM      2  O   UNL     1       8.084 -28.054 176.250  0.00  0.00    +0.000 OA
ATOM      3  O   UNL     1       7.499 -33.072 179.691  0.00  0.00    +0.000 OA
ATOM      4  N   UNL     1       9.454 -27.488 178.002  0.00  0.00    +0.000 N 
ATOM      5  N   UNL     1      11.567 -26.553 180.746  0.00  0.00    +0.000 NA
ATOM      6  C   UNL     1       9.920 -27.711 179.282  0.00  0.00    +0.000 A 
ATOM      7  C   UNL     1      11.016 -25.845 178.488  0.00  0.00    +0.000 A 
ATOM      8  C   UNL     1      10.094 -26.314 177.400  0.00  0.00    +0.000 C 
ATOM      9  C   UNL     1       8.469 -29.627 179.445  0.00  0.00    +0.000 A 
ATOM     10  C   UNL     1       7.912 -30.760 180.270  0.00  0.00    +0.000 C 
ATOM     11  C   UNL     1      10.903 -26.678 179.595  0.00  0.00    +0.000 A 
ATOM     12  C   UNL     1       8.009 -29.415 178.196  0.00  0.00    +0.000 A 
ATOM     13  C   UNL     1      11.893 -24.771 178.536  0.00  0.00    +0.000 A 
ATOM     14  C   UNL     1       9.470 -28.733 180.016  0.00  0.00    +0.000 A 
ATOM     15  C   UNL     1       8.511 -28.264 177.380  0.00  0.00    +0.000 A 
ATOM     16  C   UNL     1      12.617 -24.583 179.749  0.00  0.00    +0.000 A 
ATOM     17  C   UNL     1       6.978 -30.277 177.556  0.00  0.00    +0.000 C 
ATOM     18  C   UNL     1      12.411 -25.513 180.819  0.00  0.00    +0.000 A 
ATOM     19  C   UNL     1       7.400 -31.892 179.351  0.00  0.00    +0.000 C 
ATOM     20  C   UNL     1      14.196 -23.387 181.168  0.00  0.00    +0.000 A 
ATOM     21  C   UNL     1      13.528 -23.523 179.953  0.00  0.00    +0.000 A 
ATOM     22  C   UNL     1      13.116 -25.349 182.005  0.00  0.00    +0.000 A 
ATOM     23  C   UNL     1      14.015 -24.300 182.193  0.00  0.00    +0.000 A 
ENDROOT
BRANCH  10  24
ATOM     24  O   UNL     1       8.959 -31.287 181.096  0.00  0.00    +0.000 OA
ATOM     25  H   UNL     1       8.870 -30.846 181.965  0.00  0.00    +0.000 HD
ENDBRANCH  10  24
BRANCH  10  26
ATOM     26  C   UNL     1       6.766 -30.257 181.174  0.00  0.00    +0.000 C 
ATOM     27  C   UNL     1       6.571 -31.063 182.456  0.00  0.00    +0.000 C 
ENDBRANCH  10  26
BRANCH  13  28
ATOM     28  C   UNL     1      12.017 -23.850 177.346  0.00  0.00    +0.000 C 
ATOM     29  C   UNL     1      13.046 -24.346 176.341  0.00  0.00    +0.000 C 
ENDBRANCH  13  28
BRANCH  20  30
ATOM     30  O   UNL     1      15.122 -22.354 181.323  0.00  0.00    +0.000 OA
BRANCH  30  38
ATOM     31  O   UNL     1      13.678 -20.684 182.024  0.00  0.00    +0.000 OA
ATOM     32  N   UNL     1      15.103 -20.306 180.255  0.00  0.00    +0.000 N 
ATOM     33  C   UNL     1      15.413 -19.029 177.640  0.00  0.00    +0.000 C 
ATOM     34  C   UNL     1      15.836 -20.493 177.918  0.00  0.00    +0.000 C 
ATOM     35  C   UNL     1      14.289 -18.648 178.637  0.00  0.00    +0.000 C 
ATOM     36  C   UNL     1      16.184 -20.735 179.385  0.00  0.00    +0.000 C 
ATOM     37  C   UNL     1      14.674 -18.930 180.086  0.00  0.00    +0.000 C 
ATOM     38  C   UNL     1      14.561 -21.082 181.268  0.00  0.00    +0.000 C 
BRANCH  33  39
ATOM     39  N   UNL     1      14.988 -18.827 176.219  0.00  0.00    +0.000 NA
ATOM     40  C   UNL     1      15.264 -20.014 175.383  0.00  0.00    +0.000 C 
ATOM     41  C   UNL     1      13.562 -18.456 176.109  0.00  0.00    +0.000 C 
ATOM     42  C   UNL     1      14.865 -19.816 173.919  0.00  0.00    +0.000 C 
ATOM     43  C   UNL     1      13.118 -18.220 174.664  0.00  0.00    +0.000 C 
ATOM     44  C   UNL     1      13.402 -19.428 173.789  0.00  0.00    +0.000 C 
ENDBRANCH  33  39
ENDBRANCH  30  38
ENDBRANCH  20  30
TORSDOF 6
ENDMDL
MODEL 9
REMARK VINA RESULT:      -6.7      6.816     12.134
REMARK  Name = 
REMARK  8 active torsions:
REMARK  status: ('A' for Active; 'I' for Inactive)
REMARK    1  A    between atoms: O_1  and  C_21
REMARK    2  A    between atoms: O_1  and  C_38
REMARK    3  A    between atoms: O_4  and  C_26
REMARK    4  A    between atoms: N_7  and  C_11
REMARK    5  A    between atoms: C_26  and  C_33
REMARK    6  A    between atoms: C_29  and  C_37
REMARK    7  A    between atoms: C_33  and  C_42
REMARK    8  A    between atoms: C_37  and  C_43
REMARK                            x       y       z     vdW  Elec       q    Type
REMARK                         _______ _______ _______ _____ _____    ______ ____
ROOT
ATOM      1  O   UNL     1      25.214   6.734 204.631  0.00  0.00    +0.000 OA
ATOM      2  O   UNL     1      21.231   5.394 204.335  0.00  0.00    +0.000 OA
ATOM      3  O   UNL     1      27.298   6.098 204.082  0.00  0.00    +0.000 OA
ATOM      4  N   UNL     1      21.681   4.222 202.413  0.00  0.00    +0.000 N 
ATOM      5  N   UNL     1      22.343   2.423 199.381  0.00  0.00    +0.000 NA
ATOM      6  C   UNL     1      22.544   3.872 201.395  0.00  0.00    +0.000 A 
ATOM      7  C   UNL     1      20.554   2.784 200.986  0.00  0.00    +0.000 A 
ATOM      8  C   UNL     1      20.375   3.577 202.248  0.00  0.00    +0.000 C 
ATOM      9  C   UNL     1      24.243   5.252 202.401  0.00  0.00    +0.000 A 
ATOM     10  C   UNL     1      25.632   5.839 202.347  0.00  0.00    +0.000 C 
ATOM     11  C   UNL     1      21.840   2.968 200.492  0.00  0.00    +0.000 A 
ATOM     12  C   UNL     1      23.406   5.599 203.398  0.00  0.00    +0.000 A 
ATOM     13  C   UNL     1      19.675   1.960 200.297  0.00  0.00    +0.000 A 
ATOM     14  C   UNL     1      23.792   4.348 201.349  0.00  0.00    +0.000 A 
ATOM     15  C   UNL     1      22.005   5.068 203.441  0.00  0.00    +0.000 A 
ATOM     16  C   UNL     1      20.157   1.365 199.096  0.00  0.00    +0.000 A 
ATOM     17  C   UNL     1      23.793   6.527 204.495  0.00  0.00    +0.000 C 
ATOM     18  C   UNL     1      21.505   1.633 198.692  0.00  0.00    +0.000 A 
ATOM     19  C   UNL     1      26.112   6.212 203.768  0.00  0.00    +0.000 C 
ATOM     20  C   UNL     1      19.898  -0.020 197.107  0.00  0.00    +0.000 A 
ATOM     21  C   UNL     1      19.372   0.522 198.278  0.00  0.00    +0.000 A 
ATOM     22  C   UNL     1      21.993   1.053 197.528  0.00  0.00    +0.000 A 
ATOM     23  C   UNL     1      21.208   0.221 196.730  0.00  0.00    +0.000 A 
ENDROOT
BRANCH  10  24
ATOM     24  O   UNL     1      26.527   4.854 201.812  0.00  0.00    +0.000 OA
ATOM     25  H   UNL     1      26.749   4.255 202.553  0.00  0.00    +0.000 HD
ENDBRANCH  10  24
BRANCH  10  26
ATOM     26  C   UNL     1      25.657   7.086 201.438  0.00  0.00    +0.000 C 
ATOM     27  C   UNL     1      26.748   7.070 200.371  0.00  0.00    +0.000 C 
ENDBRANCH  10  26
BRANCH  13  28
ATOM     28  C   UNL     1      18.272   1.761 200.815  0.00  0.00    +0.000 C 
ATOM     29  C   UNL     1      18.180   0.599 201.793  0.00  0.00    +0.000 C 
ENDBRANCH  13  28
BRANCH  20  30
ATOM     30  O   UNL     1      19.111  -0.884 196.344  0.00  0.00    +0.000 OA
BRANCH  30  38
ATOM     31  O   UNL     1      20.566  -2.472 195.493  0.00  0.00    +0.000 OA
ATOM     32  N   UNL     1      19.553  -0.964 194.078  0.00  0.00    +0.000 N 
ATOM     33  C   UNL     1      19.885   0.708 191.700  0.00  0.00    +0.000 C 
ATOM     34  C   UNL     1      19.262   1.232 193.018  0.00  0.00    +0.000 C 
ATOM     35  C   UNL     1      20.833  -0.469 192.043  0.00  0.00    +0.000 C 
ATOM     36  C   UNL     1      18.617   0.122 193.844  0.00  0.00    +0.000 C 
ATOM     37  C   UNL     1      20.152  -1.539 192.889  0.00  0.00    +0.000 C 
ATOM     38  C   UNL     1      19.806  -1.523 195.322  0.00  0.00    +0.000 C 
BRANCH  33  39
ATOM     39  N   UNL     1      20.591   1.790 190.943  0.00  0.00    +0.000 NA
ATOM     40  C   UNL     1      21.447   1.246 189.867  0.00  0.00    +0.000 C 
ATOM     41  C   UNL     1      19.654   2.786 190.385  0.00  0.00    +0.000 C 
ATOM     42  C   UNL     1      22.202   2.335 189.101  0.00  0.00    +0.000 C 
ATOM     43  C   UNL     1      20.363   3.914 189.631  0.00  0.00    +0.000 C 
ATOM     44  C   UNL     1      21.253   3.372 188.526  0.00  0.00    +0.000 C 
ENDBRANCH  33  39
ENDBRANCH  30  38
ENDBRANCH  20  30
TORSDOF 6
ENDMDL
