MODEL 1
REMARK VINA RESULT:      -8.4      0.000      0.000
REMARK  Name = 
REMARK  8 active torsions:
REMARK  status: ('A' for Active; 'I' for Inactive)
REMARK    1  A    between atoms: O_1  and  C_21
REMARK    2  A    between atoms: O_1  and  C_38
REMARK    3  A    between atoms: O_4  and  C_26
REMARK    4  A    between atoms: N_7  and  C_11
REMARK    5  A    between atoms: C_26  and  C_33
REMARK    6  A    between atoms: C_29  and  C_37
REMARK    7  A    between atoms: C_33  and  C_42
REMARK    8  A    between atoms: C_37  and  C_43
REMARK                            x       y       z     vdW  Elec       q    Type
REMARK                         _______ _______ _______ _____ _____    ______ ____
ROOT
ATOM      1  O   UNL     1      39.008   5.536 192.682  0.00  0.00    +0.000 OA
ATOM      2  O   UNL     1      36.012   3.176 194.472  0.00  0.00    +0.000 OA
ATOM      3  O   UNL     1      39.710   6.190 190.650  0.00  0.00    +0.000 OA
ATOM      4  N   UNL     1      34.551   3.574 192.748  0.00  0.00    +0.000 N 
ATOM      5  N   UNL     1      32.229   4.221 190.091  0.00  0.00    +0.000 NA
ATOM      6  C   UNL     1      34.227   4.226 191.575  0.00  0.00    +0.000 A 
ATOM      7  C   UNL     1      32.430   2.888 192.112  0.00  0.00    +0.000 A 
ATOM      8  C   UNL     1      33.466   2.688 193.180  0.00  0.00    +0.000 C 
ATOM      9  C   UNL     1      36.369   5.329 191.632  0.00  0.00    +0.000 A 
ATOM     10  C   UNL     1      37.325   6.327 191.029  0.00  0.00    +0.000 C 
ATOM     11  C   UNL     1      32.892   3.800 191.171  0.00  0.00    +0.000 A 
ATOM     12  C   UNL     1      36.691   4.696 192.777  0.00  0.00    +0.000 A 
ATOM     13  C   UNL     1      31.168   2.331 191.954  0.00  0.00    +0.000 A 
ATOM     14  C   UNL     1      35.076   5.085 191.002  0.00  0.00    +0.000 A 
ATOM     15  C   UNL     1      35.733   3.741 193.420  0.00  0.00    +0.000 A 
ATOM     16  C   UNL     1      30.412   2.759 190.825  0.00  0.00    +0.000 A 
ATOM     17  C   UNL     1      37.984   4.909 193.483  0.00  0.00    +0.000 C 
ATOM     18  C   UNL     1      31.002   3.706 189.926  0.00  0.00    +0.000 A 
ATOM     19  C   UNL     1      38.778   5.989 191.431  0.00  0.00    +0.000 C 
ATOM     20  C   UNL     1      28.414   2.764 189.430  0.00  0.00    +0.000 A 
ATOM     21  C   UNL     1      29.107   2.297 190.545  0.00  0.00    +0.000 A 
ATOM     22  C   UNL     1      30.281   4.126 188.815  0.00  0.00    +0.000 A 
ATOM     23  C   UNL     1      28.993   3.661 188.548  0.00  0.00    +0.000 A 
ENDROOT
BRANCH  10  24
ATOM     24  O   UNL     1      37.223   6.257 189.599  0.00  0.00    +0.000 OA
ATOM     25  H   UNL     1      37.510   5.356 189.350  0.00  0.00    +0.000 HD
ENDBRANCH  10  24
BRANCH  10  26
ATOM     26  C   UNL     1      36.972   7.759 191.486  0.00  0.00    +0.000 C 
ATOM     27  C   UNL     1      37.224   8.839 190.438  0.00  0.00    +0.000 C 
ENDBRANCH  10  26
BRANCH  13  28
ATOM     28  C   UNL     1      30.648   1.350 192.976  0.00  0.00    +0.000 C 
ATOM     29  C   UNL     1      31.092  -0.075 192.680  0.00  0.00    +0.000 C 
ENDBRANCH  13  28
BRANCH  20  30
ATOM     30  O   UNL     1      27.143   2.256 189.157  0.00  0.00    +0.000 OA
BRANCH  30  38
ATOM     31  O   UNL     1      26.141   2.116 191.241  0.00  0.00    +0.000 OA
ATOM     32  N   UNL     1      25.276   3.529 189.641  0.00  0.00    +0.000 N 
ATOM     33  C   UNL     1      22.835   4.638 188.469  0.00  0.00    +0.000 C 
ATOM     34  C   UNL     1      23.995   4.066 187.616  0.00  0.00    +0.000 C 
ATOM     35  C   UNL     1      22.868   3.952 189.859  0.00  0.00    +0.000 C 
ATOM     36  C   UNL     1      25.342   4.147 188.328  0.00  0.00    +0.000 C 
ATOM     37  C   UNL     1      24.240   4.038 190.519  0.00  0.00    +0.000 C 
ATOM     38  C   UNL     1      26.186   2.593 190.110  0.00  0.00    +0.000 C 
BRANCH  33  39
ATOM     39  N   UNL     1      21.507   4.470 187.798  0.00  0.00    +0.000 NA
ATOM     40  C   UNL     1      21.605   3.649 186.572  0.00  0.00    +0.000 C 
ATOM     41  C   UNL     1      20.490   3.898 188.705  0.00  0.00    +0.000 C 
ATOM     42  C   UNL     1      20.263   3.492 185.853  0.00  0.00    +0.000 C 
ATOM     43  C   UNL     1      19.120   3.745 188.040  0.00  0.00    +0.000 C 
ATOM     44  C   UNL     1      19.204   2.911 186.774  0.00  0.00    +0.000 C 
ENDBRANCH  33  39
ENDBRANCH  30  38
ENDBRANCH  20  30
TORSDOF 6
ENDMDL
MODEL 2
REMARK VINA RESULT:      -7.5     26.069     29.463
REMARK  Name = 
REMARK  8 active torsions:
REMARK  status: ('A' for Active; 'I' for Inactive)
REMARK    1  A    between atoms: O_1  and  C_21
REMARK    2  A    between atoms: O_1  and  C_38
REMARK    3  A    between atoms: O_4  and  C_26
REMARK    4  A    between atoms: N_7  and  C_11
REMARK    5  A    between atoms: C_26  and  C_33
REMARK    6  A    between atoms: C_29  and  C_37
REMARK    7  A    between atoms: C_33  and  C_42
REMARK    8  A    between atoms: C_37  and  C_43
REMARK                            x       y       z     vdW  Elec       q    Type
REMARK                         _______ _______ _______ _____ _____    ______ ____
ROOT
ATOM      1  O   UNL     1      48.630 -26.676 182.780  0.00  0.00    +0.000 OA
ATOM      2  O   UNL     1      47.263 -26.467 186.759  0.00  0.00    +0.000 OA
ATOM      3  O   UNL     1      48.175 -25.830 180.749  0.00  0.00    +0.000 OA
ATOM      4  N   UNL     1      46.512 -24.317 186.476  0.00  0.00    +0.000 N 
ATOM      5  N   UNL     1      45.373 -20.939 186.076  0.00  0.00    +0.000 NA
ATOM      6  C   UNL     1      46.396 -23.178 185.706  0.00  0.00    +0.000 A 
ATOM      7  C   UNL     1      45.355 -22.735 187.714  0.00  0.00    +0.000 A 
ATOM      8  C   UNL     1      45.876 -24.141 187.785  0.00  0.00    +0.000 C 
ATOM      9  C   UNL     1      47.596 -24.288 183.936  0.00  0.00    +0.000 A 
ATOM     10  C   UNL     1      48.220 -24.232 182.564  0.00  0.00    +0.000 C 
ATOM     11  C   UNL     1      45.671 -22.177 186.480  0.00  0.00    +0.000 A 
ATOM     12  C   UNL     1      47.712 -25.404 184.682  0.00  0.00    +0.000 A 
ATOM     13  C   UNL     1      44.661 -21.974 188.644  0.00  0.00    +0.000 A 
ATOM     14  C   UNL     1      46.907 -23.120 184.472  0.00  0.00    +0.000 A 
ATOM     15  C   UNL     1      47.145 -25.461 186.067  0.00  0.00    +0.000 A 
ATOM     16  C   UNL     1      44.331 -20.639 188.268  0.00  0.00    +0.000 A 
ATOM     17  C   UNL     1      48.414 -26.627 184.205  0.00  0.00    +0.000 C 
ATOM     18  C   UNL     1      44.713 -20.182 186.965  0.00  0.00    +0.000 A 
ATOM     19  C   UNL     1      48.316 -25.651 181.959  0.00  0.00    +0.000 C 
ATOM     20  C   UNL     1      43.364 -18.444 188.694  0.00  0.00    +0.000 A 
ATOM     21  C   UNL     1      43.646 -19.741 189.116  0.00  0.00    +0.000 A 
ATOM     22  C   UNL     1      44.391 -18.887 186.580  0.00  0.00    +0.000 A 
ATOM     23  C   UNL     1      43.712 -18.009 187.426  0.00  0.00    +0.000 A 
ENDROOT
BRANCH  10  24
ATOM     24  O   UNL     1      47.388 -23.433 181.712  0.00  0.00    +0.000 OA
ATOM     25  H   UNL     1      47.994 -22.916 181.145  0.00  0.00    +0.000 HD
ENDBRANCH  10  24
BRANCH  10  26
ATOM     26  C   UNL     1      49.624 -23.593 182.635  0.00  0.00    +0.000 C 
ATOM     27  C   UNL     1      50.337 -23.780 183.971  0.00  0.00    +0.000 C 
ENDBRANCH  10  26
BRANCH  13  28
ATOM     28  C   UNL     1      44.323 -22.562 189.992  0.00  0.00    +0.000 C 
ATOM     29  C   UNL     1      42.994 -23.302 189.979  0.00  0.00    +0.000 C 
ENDBRANCH  13  28
BRANCH  20  30
ATOM     30  O   UNL     1      42.648 -17.595 189.539  0.00  0.00    +0.000 OA
BRANCH  30  38
ATOM     31  O   UNL     1      40.558 -18.179 188.728  0.00  0.00    +0.000 OA
ATOM     32  N   UNL     1      40.893 -17.964 190.996  0.00  0.00    +0.000 N 
ATOM     33  C   UNL     1      39.732 -17.075 193.531  0.00  0.00    +0.000 C 
ATOM     34  C   UNL     1      41.170 -16.707 193.088  0.00  0.00    +0.000 C 
ATOM     35  C   UNL     1      38.884 -17.341 192.261  0.00  0.00    +0.000 C 
ATOM     36  C   UNL     1      41.770 -17.734 192.131  0.00  0.00    +0.000 C 
ATOM     37  C   UNL     1      39.535 -18.354 191.325  0.00  0.00    +0.000 C 
ATOM     38  C   UNL     1      41.305 -17.935 189.672  0.00  0.00    +0.000 C 
BRANCH  33  39
ATOM     39  N   UNL     1      39.121 -16.017 194.396  0.00  0.00    +0.000 NA
ATOM     40  C   UNL     1      38.432 -14.979 193.600  0.00  0.00    +0.000 C 
ATOM     41  C   UNL     1      38.193 -16.580 195.398  0.00  0.00    +0.000 C 
ATOM     42  C   UNL     1      37.827 -13.870 194.465  0.00  0.00    +0.000 C 
ATOM     43  C   UNL     1      37.581 -15.512 196.308  0.00  0.00    +0.000 C 
ATOM     44  C   UNL     1      36.876 -14.434 195.506  0.00  0.00    +0.000 C 
ENDBRANCH  33  39
ENDBRANCH  30  38
ENDBRANCH  20  30
TORSDOF 6
ENDMDL
MODEL 3
REMARK VINA RESULT:      -7.4      9.096     11.880
REMARK  Name = 
REMARK  8 active torsions:
REMARK  status: ('A' for Active; 'I' for Inactive)
REMARK    1  A    between atoms: O_1  and  C_21
REMARK    2  A    between atoms: O_1  and  C_38
REMARK    3  A    between atoms: O_4  and  C_26
REMARK    4  A    between atoms: N_7  and  C_11
REMARK    5  A    between atoms: C_26  and  C_33
REMARK    6  A    between atoms: C_29  and  C_37
REMARK    7  A    between atoms: C_33  and  C_42
REMARK    8  A    between atoms: C_37  and  C_43
REMARK                            x       y       z     vdW  Elec       q    Type
REMARK                         _______ _______ _______ _____ _____    ______ ____
ROOT
ATOM      1  O   UNL     1      26.798  -2.621 203.132  0.00  0.00    +0.000 OA
ATOM      2  O   UNL     1      27.815  -0.533 199.616  0.00  0.00    +0.000 OA
ATOM      3  O   UNL     1      24.989  -3.240 204.313  0.00  0.00    +0.000 OA
ATOM      4  N   UNL     1      25.836  -1.107 198.604  0.00  0.00    +0.000 N 
ATOM      5  N   UNL     1      22.774  -2.029 196.979  0.00  0.00    +0.000 NA
ATOM      6  C   UNL     1      24.648  -1.809 198.602  0.00  0.00    +0.000 A 
ATOM      7  C   UNL     1      24.738  -0.644 196.616  0.00  0.00    +0.000 A 
ATOM      8  C   UNL     1      25.993  -0.324 197.375  0.00  0.00    +0.000 C 
ATOM      9  C   UNL     1      25.203  -2.695 200.774  0.00  0.00    +0.000 A 
ATOM     10  C   UNL     1      24.857  -3.605 201.925  0.00  0.00    +0.000 C 
ATOM     11  C   UNL     1      23.953  -1.524 197.352  0.00  0.00    +0.000 A 
ATOM     12  C   UNL     1      26.365  -2.011 200.782  0.00  0.00    +0.000 A 
ATOM     13  C   UNL     1      24.293  -0.218 195.372  0.00  0.00    +0.000 A 
ATOM     14  C   UNL     1      24.303  -2.590 199.630  0.00  0.00    +0.000 A 
ATOM     15  C   UNL     1      26.751  -1.143 199.624  0.00  0.00    +0.000 A 
ATOM     16  C   UNL     1      23.047  -0.739 194.920  0.00  0.00    +0.000 A 
ATOM     17  C   UNL     1      27.337  -2.082 201.907  0.00  0.00    +0.000 C 
ATOM     18  C   UNL     1      22.332  -1.640 195.774  0.00  0.00    +0.000 A 
ATOM     19  C   UNL     1      25.545  -3.117 203.220  0.00  0.00    +0.000 C 
ATOM     20  C   UNL     1      21.260  -0.967 193.278  0.00  0.00    +0.000 A 
ATOM     21  C   UNL     1      22.478  -0.414 193.669  0.00  0.00    +0.000 A 
ATOM     22  C   UNL     1      21.110  -2.150 195.352  0.00  0.00    +0.000 A 
ATOM     23  C   UNL     1      20.558  -1.819 194.114  0.00  0.00    +0.000 A 
ENDROOT
BRANCH  10  24
ATOM     24  O   UNL     1      23.437  -3.572 202.128  0.00  0.00    +0.000 OA
ATOM     25  H   UNL     1      23.251  -2.749 202.624  0.00  0.00    +0.000 HD
ENDBRANCH  10  24
BRANCH  10  26
ATOM     26  C   UNL     1      25.285  -5.055 201.615  0.00  0.00    +0.000 C 
ATOM     27  C   UNL     1      24.173  -5.937 201.054  0.00  0.00    +0.000 C 
ENDBRANCH  10  26
BRANCH  13  28
ATOM     28  C   UNL     1      25.141   0.727 194.556  0.00  0.00    +0.000 C 
ATOM     29  C   UNL     1      24.871   2.184 194.900  0.00  0.00    +0.000 C 
ENDBRANCH  13  28
BRANCH  20  30
ATOM     30  O   UNL     1      20.703  -0.592 192.055  0.00  0.00    +0.000 OA
BRANCH  30  38
ATOM     31  O   UNL     1      18.842   0.624 192.703  0.00  0.00    +0.000 OA
ATOM     32  N   UNL     1      20.492   1.628 191.449  0.00  0.00    +0.000 N 
ATOM     33  C   UNL     1      21.066   3.530 189.301  0.00  0.00    +0.000 C 
ATOM     34  C   UNL     1      21.708   2.122 189.374  0.00  0.00    +0.000 C 
ATOM     35  C   UNL     1      19.709   3.486 190.049  0.00  0.00    +0.000 C 
ATOM     36  C   UNL     1      21.791   1.588 190.801  0.00  0.00    +0.000 C 
ATOM     37  C   UNL     1      19.839   2.923 191.460  0.00  0.00    +0.000 C 
ATOM     38  C   UNL     1      19.921   0.558 192.122  0.00  0.00    +0.000 C 
BRANCH  33  39
ATOM     39  N   UNL     1      20.908   4.004 187.889  0.00  0.00    +0.000 NA
ATOM     40  C   UNL     1      22.130   4.666 187.386  0.00  0.00    +0.000 C 
ATOM     41  C   UNL     1      20.515   2.912 186.974  0.00  0.00    +0.000 C 
ATOM     42  C   UNL     1      21.978   5.186 185.954  0.00  0.00    +0.000 C 
ATOM     43  C   UNL     1      20.323   3.386 185.531  0.00  0.00    +0.000 C 
ATOM     44  C   UNL     1      21.568   4.076 185.001  0.00  0.00    +0.000 C 
ENDBRANCH  33  39
ENDBRANCH  30  38
ENDBRANCH  20  30
TORSDOF 6
ENDMDL
MODEL 4
REMARK VINA RESULT:      -7.3     11.580     15.268
REMARK  Name = 
REMARK  8 active torsions:
REMARK  status: ('A' for Active; 'I' for Inactive)
REMARK    1  A    between atoms: O_1  and  C_21
REMARK    2  A    between atoms: O_1  and  C_38
REMARK    3  A    between atoms: O_4  and  C_26
REMARK    4  A    between atoms: N_7  and  C_11
REMARK    5  A    between atoms: C_26  and  C_33
REMARK    6  A    between atoms: C_29  and  C_37
REMARK    7  A    between atoms: C_33  and  C_42
REMARK    8  A    between atoms: C_37  and  C_43
REMARK                            x       y       z     vdW  Elec       q    Type
REMARK                         _______ _______ _______ _____ _____    ______ ____
ROOT
ATOM      1  O   UNL     1      30.332  15.592 195.242  0.00  0.00    +0.000 OA
ATOM      2  O   UNL     1      33.112  17.851 193.025  0.00  0.00    +0.000 OA
ATOM      3  O   UNL     1      28.403  14.473 194.968  0.00  0.00    +0.000 OA
ATOM      4  N   UNL     1      32.633  16.703 191.096  0.00  0.00    +0.000 N 
ATOM      5  N   UNL     1      31.940  14.892 188.078  0.00  0.00    +0.000 NA
ATOM      6  C   UNL     1      31.983  15.678 190.439  0.00  0.00    +0.000 A 
ATOM      7  C   UNL     1      33.232  16.796 188.859  0.00  0.00    +0.000 A 
ATOM      8  C   UNL     1      33.461  17.484 190.173  0.00  0.00    +0.000 C 
ATOM      9  C   UNL     1      30.974  15.021 192.527  0.00  0.00    +0.000 A 
ATOM     10  C   UNL     1      30.100  14.061 193.294  0.00  0.00    +0.000 C 
ATOM     11  C   UNL     1      32.358  15.730 189.031  0.00  0.00    +0.000 A 
ATOM     12  C   UNL     1      31.606  16.020 193.174  0.00  0.00    +0.000 A 
ATOM     13  C   UNL     1      33.742  17.057 187.595  0.00  0.00    +0.000 A 
ATOM     14  C   UNL     1      31.172  14.840 191.093  0.00  0.00    +0.000 A 
ATOM     15  C   UNL     1      32.519  16.952 192.439  0.00  0.00    +0.000 A 
ATOM     16  C   UNL     1      33.340  16.183 186.544  0.00  0.00    +0.000 A 
ATOM     17  C   UNL     1      31.462  16.254 194.637  0.00  0.00    +0.000 C 
ATOM     18  C   UNL     1      32.431  15.118 186.850  0.00  0.00    +0.000 A 
ATOM     19  C   UNL     1      29.533  14.745 194.558  0.00  0.00    +0.000 C 
ATOM     20  C   UNL     1      33.370  15.414 184.231  0.00  0.00    +0.000 A 
ATOM     21  C   UNL     1      33.792  16.310 185.212  0.00  0.00    +0.000 A 
ATOM     22  C   UNL     1      32.022  14.263 185.836  0.00  0.00    +0.000 A 
ATOM     23  C   UNL     1      32.474  14.400 184.523  0.00  0.00    +0.000 A 
ENDROOT
BRANCH  10  24
ATOM     24  O   UNL     1      29.001  13.671 192.459  0.00  0.00    +0.000 OA
ATOM     25  H   UNL     1      28.556  12.931 192.921  0.00  0.00    +0.000 HD
ENDBRANCH  10  24
BRANCH  10  26
ATOM     26  C   UNL     1      30.900  12.801 193.691  0.00  0.00    +0.000 C 
ATOM     27  C   UNL     1      30.324  12.034 194.877  0.00  0.00    +0.000 C 
ENDBRANCH  10  26
BRANCH  13  28
ATOM     28  C   UNL     1      34.704  18.204 187.396  0.00  0.00    +0.000 C 
ATOM     29  C   UNL     1      36.154  17.770 187.549  0.00  0.00    +0.000 C 
ENDBRANCH  13  28
BRANCH  20  30
ATOM     30  O   UNL     1      33.801  15.594 182.916  0.00  0.00    +0.000 OA
BRANCH  30  38
ATOM     31  O   UNL     1      35.801  14.427 182.965  0.00  0.00    +0.000 OA
ATOM     32  N   UNL     1      34.188  13.879 181.416  0.00  0.00    +0.000 N 
ATOM     33  C   UNL     1      33.679  13.021 178.665  0.00  0.00    +0.000 C 
ATOM     34  C   UNL     1      32.913  14.186 179.340  0.00  0.00    +0.000 C 
ATOM     35  C   UNL     1      35.064  12.889 179.348  0.00  0.00    +0.000 C 
ATOM     36  C   UNL     1      32.857  14.050 180.859  0.00  0.00    +0.000 C 
ATOM     37  C   UNL     1      34.959  12.781 180.866  0.00  0.00    +0.000 C 
ATOM     38  C   UNL     1      34.690  14.617 182.478  0.00  0.00    +0.000 C 
BRANCH  33  39
ATOM     39  N   UNL     1      33.805  13.212 177.186  0.00  0.00    +0.000 NA
ATOM     40  C   UNL     1      33.844  14.642 176.812  0.00  0.00    +0.000 C 
ATOM     41  C   UNL     1      34.983  12.515 176.630  0.00  0.00    +0.000 C 
ATOM     42  C   UNL     1      33.941  14.859 175.300  0.00  0.00    +0.000 C 
ATOM     43  C   UNL     1      35.111  12.679 175.113  0.00  0.00    +0.000 C 
ATOM     44  C   UNL     1      35.145  14.143 174.712  0.00  0.00    +0.000 C 
ENDBRANCH  33  39
ENDBRANCH  30  38
ENDBRANCH  20  30
TORSDOF 6
ENDMDL
MODEL 5
REMARK VINA RESULT:      -7.1     22.500     26.399
REMARK  Name = 
REMARK  8 active torsions:
REMARK  status: ('A' for Active; 'I' for Inactive)
REMARK    1  A    between atoms: O_1  and  C_21
REMARK    2  A    between atoms: O_1  and  C_38
REMARK    3  A    between atoms: O_4  and  C_26
REMARK    4  A    between atoms: N_7  and  C_11
REMARK    5  A    between atoms: C_26  and  C_33
REMARK    6  A    between atoms: C_29  and  C_37
REMARK    7  A    between atoms: C_33  and  C_42
REMARK    8  A    between atoms: C_37  and  C_43
REMARK                            x       y       z     vdW  Elec       q    Type
REMARK                         _______ _______ _______ _____ _____    ______ ____
ROOT
ATOM      1  O   UNL     1      12.159 -14.347 179.537  0.00  0.00    +0.000 OA
ATOM      2  O   UNL     1       9.941 -11.181 177.861  0.00  0.00    +0.000 OA
ATOM      3  O   UNL     1      13.578 -14.757 181.231  0.00  0.00    +0.000 OA
ATOM      4  N   UNL     1       9.750 -10.129 179.892  0.00  0.00    +0.000 N 
ATOM      5  N   UNL     1       9.395  -8.487 183.061  0.00  0.00    +0.000 NA
ATOM      6  C   UNL     1       9.943 -10.113 181.258  0.00  0.00    +0.000 A 
ATOM      7  C   UNL     1       8.894  -8.136 180.710  0.00  0.00    +0.000 A 
ATOM      8  C   UNL     1       9.085  -8.905 179.435  0.00  0.00    +0.000 C 
ATOM      9  C   UNL     1      10.985 -12.281 181.107  0.00  0.00    +0.000 A 
ATOM     10  C   UNL     1      11.614 -13.464 181.799  0.00  0.00    +0.000 C 
ATOM     11  C   UNL     1       9.404  -8.862 181.780  0.00  0.00    +0.000 A 
ATOM     12  C   UNL     1      10.800 -12.303 179.772  0.00  0.00    +0.000 A 
ATOM     13  C   UNL     1       8.315  -6.897 180.946  0.00  0.00    +0.000 A 
ATOM     14  C   UNL     1      10.535 -11.134 181.887  0.00  0.00    +0.000 A 
ATOM     15  C   UNL     1      10.130 -11.160 179.073  0.00  0.00    +0.000 A 
ATOM     16  C   UNL     1       8.265  -6.456 182.300  0.00  0.00    +0.000 A 
ATOM     17  C   UNL     1      11.220 -13.445 178.915  0.00  0.00    +0.000 C 
ATOM     18  C   UNL     1       8.827  -7.298 183.314  0.00  0.00    +0.000 A 
ATOM     19  C   UNL     1      12.544 -14.222 180.825  0.00  0.00    +0.000 C 
ATOM     20  C   UNL     1       7.661  -4.861 184.040  0.00  0.00    +0.000 A 
ATOM     21  C   UNL     1       7.689  -5.230 182.697  0.00  0.00    +0.000 A 
ATOM     22  C   UNL     1       8.796  -6.879 184.638  0.00  0.00    +0.000 A 
ATOM     23  C   UNL     1       8.225  -5.664 185.017  0.00  0.00    +0.000 A 
ENDROOT
BRANCH  10  24
ATOM     24  O   UNL     1      12.402 -12.988 182.899  0.00  0.00    +0.000 OA
ATOM     25  H   UNL     1      13.228 -13.512 182.889  0.00  0.00    +0.000 HD
ENDBRANCH  10  24
BRANCH  10  26
ATOM     26  C   UNL     1      10.525 -14.416 182.337  0.00  0.00    +0.000 C 
ATOM     27  C   UNL     1      10.477 -14.528 183.858  0.00  0.00    +0.000 C 
ENDBRANCH  10  26
BRANCH  13  28
ATOM     28  C   UNL     1       7.744  -6.104 179.795  0.00  0.00    +0.000 C 
ATOM     29  C   UNL     1       8.767  -5.154 179.191  0.00  0.00    +0.000 C 
ENDBRANCH  13  28
BRANCH  20  30
ATOM     30  O   UNL     1       7.123  -3.623 184.394  0.00  0.00    +0.000 OA
BRANCH  30  38
ATOM     31  O   UNL     1       8.899  -2.348 183.629  0.00  0.00    +0.000 OA
ATOM     32  N   UNL     1       7.979  -1.916 185.695  0.00  0.00    +0.000 N 
ATOM     33  C   UNL     1       8.525  -1.132 188.461  0.00  0.00    +0.000 C 
ATOM     34  C   UNL     1       7.609  -2.325 188.088  0.00  0.00    +0.000 C 
ATOM     35  C   UNL     1       9.536  -0.914 187.307  0.00  0.00    +0.000 C 
ATOM     36  C   UNL     1       6.971  -2.167 186.711  0.00  0.00    +0.000 C 
ATOM     37  C   UNL     1       8.853  -0.787 185.949  0.00  0.00    +0.000 C 
ATOM     38  C   UNL     1       8.069  -2.607 184.496  0.00  0.00    +0.000 C 
BRANCH  33  39
ATOM     39  N   UNL     1       9.215  -1.341 189.773  0.00  0.00    +0.000 NA
ATOM     40  C   UNL     1       8.939  -0.245 190.726  0.00  0.00    +0.000 C 
ATOM     41  C   UNL     1       8.867  -2.640 190.387  0.00  0.00    +0.000 C 
ATOM     42  C   UNL     1       9.661  -0.425 192.064  0.00  0.00    +0.000 C 
ATOM     43  C   UNL     1       9.585  -2.880 191.716  0.00  0.00    +0.000 C 
ATOM     44  C   UNL     1       9.319  -1.759 192.705  0.00  0.00    +0.000 C 
ENDBRANCH  33  39
ENDBRANCH  30  38
ENDBRANCH  20  30
TORSDOF 6
ENDMDL
MODEL 6
REMARK VINA RESULT:      -6.9     33.138     35.275
REMARK  Name = 
REMARK  8 active torsions:
REMARK  status: ('A' for Active; 'I' for Inactive)
REMARK    1  A    between atoms: O_1  and  C_21
REMARK    2  A    between atoms: O_1  and  C_38
REMARK    3  A    between atoms: O_4  and  C_26
REMARK    4  A    between atoms: N_7  and  C_11
REMARK    5  A    between atoms: C_26  and  C_33
REMARK    6  A    between atoms: C_29  and  C_37
REMARK    7  A    between atoms: C_33  and  C_42
REMARK    8  A    between atoms: C_37  and  C_43
REMARK                            x       y       z     vdW  Elec       q    Type
REMARK                         _______ _______ _______ _____ _____    ______ ____
ROOT
ATOM      1  O   UNL     1      43.801 -21.047 168.610  0.00  0.00    +0.000 OA
ATOM      2  O   UNL     1      42.520 -20.011 172.488  0.00  0.00    +0.000 OA
ATOM      3  O   UNL     1      44.142 -22.861 167.329  0.00  0.00    +0.000 OA
ATOM      4  N   UNL     1      41.188 -21.875 172.636  0.00  0.00    +0.000 N 
ATOM      5  N   UNL     1      39.060 -24.753 172.875  0.00  0.00    +0.000 NA
ATOM      6  C   UNL     1      40.627 -22.998 172.062  0.00  0.00    +0.000 A 
ATOM      7  C   UNL     1      39.847 -22.894 174.228  0.00  0.00    +0.000 A 
ATOM      8  C   UNL     1      40.754 -21.715 174.026  0.00  0.00    +0.000 C 
ATOM      9  C   UNL     1      41.789 -22.495 170.012  0.00  0.00    +0.000 A 
ATOM     10  C   UNL     1      42.064 -22.828 168.567  0.00  0.00    +0.000 C 
ATOM     11  C   UNL     1      39.780 -23.643 173.059  0.00  0.00    +0.000 A 
ATOM     12  C   UNL     1      42.340 -21.396 170.565  0.00  0.00    +0.000 A 
ATOM     13  C   UNL     1      39.118 -23.302 175.336  0.00  0.00    +0.000 A 
ATOM     14  C   UNL     1      40.889 -23.334 170.795  0.00  0.00    +0.000 A 
ATOM     15  C   UNL     1      42.037 -21.020 171.983  0.00  0.00    +0.000 A 
ATOM     16  C   UNL     1      38.320 -24.473 175.189  0.00  0.00    +0.000 A 
ATOM     17  C   UNL     1      43.253 -20.487 169.821  0.00  0.00    +0.000 C 
ATOM     18  C   UNL     1      38.337 -25.158 173.930  0.00  0.00    +0.000 A 
ATOM     19  C   UNL     1      43.434 -22.257 168.136  0.00  0.00    +0.000 C 
ATOM     20  C   UNL     1      36.742 -26.139 176.008  0.00  0.00    +0.000 A 
ATOM     21  C   UNL     1      37.510 -24.996 176.220  0.00  0.00    +0.000 A 
ATOM     22  C   UNL     1      37.572 -26.306 173.772  0.00  0.00    +0.000 A 
ATOM     23  C   UNL     1      36.777 -26.814 174.800  0.00  0.00    +0.000 A 
ENDROOT
BRANCH  10  24
ATOM     24  O   UNL     1      42.103 -24.255 168.423  0.00  0.00    +0.000 OA
ATOM     25  H   UNL     1      41.186 -24.535 168.233  0.00  0.00    +0.000 HD
ENDBRANCH  10  24
BRANCH  10  26
ATOM     26  C   UNL     1      40.949 -22.263 167.660  0.00  0.00    +0.000 C 
ATOM     27  C   UNL     1      40.200 -23.316 166.848  0.00  0.00    +0.000 C 
ENDBRANCH  10  26
BRANCH  13  28
ATOM     28  C   UNL     1      39.171 -22.491 176.608  0.00  0.00    +0.000 C 
ATOM     29  C   UNL     1      38.352 -21.213 176.509  0.00  0.00    +0.000 C 
ENDBRANCH  13  28
BRANCH  20  30
ATOM     30  O   UNL     1      35.986 -26.655 177.062  0.00  0.00    +0.000 OA
BRANCH  30  38
ATOM     31  O   UNL     1      33.938 -26.651 175.979  0.00  0.00    +0.000 OA
ATOM     32  N   UNL     1      34.629 -28.524 177.127  0.00  0.00    +0.000 N 
ATOM     33  C   UNL     1      33.795 -30.749 178.834  0.00  0.00    +0.000 C 
ATOM     34  C   UNL     1      35.030 -29.867 179.144  0.00  0.00    +0.000 C 
ATOM     35  C   UNL     1      32.799 -29.915 177.989  0.00  0.00    +0.000 C 
ATOM     36  C   UNL     1      35.635 -29.244 177.889  0.00  0.00    +0.000 C 
ATOM     37  C   UNL     1      33.455 -29.293 176.760  0.00  0.00    +0.000 C 
ATOM     38  C   UNL     1      34.781 -27.226 176.662  0.00  0.00    +0.000 C 
BRANCH  33  39
ATOM     39  N   UNL     1      33.157 -31.281 180.080  0.00  0.00    +0.000 NA
ATOM     40  C   UNL     1      32.599 -32.636 179.884  0.00  0.00    +0.000 C 
ATOM     41  C   UNL     1      34.088 -31.283 181.228  0.00  0.00    +0.000 C 
ATOM     42  C   UNL     1      31.915 -33.185 181.138  0.00  0.00    +0.000 C 
ATOM     43  C   UNL     1      33.443 -31.799 182.516  0.00  0.00    +0.000 C 
ATOM     44  C   UNL     1      32.857 -33.187 182.329  0.00  0.00    +0.000 C 
ENDBRANCH  33  39
ENDBRANCH  30  38
ENDBRANCH  20  30
TORSDOF 6
ENDMDL
MODEL 7
REMARK VINA RESULT:      -6.9      1.742      2.113
REMARK  Name = 
REMARK  8 active torsions:
REMARK  status: ('A' for Active; 'I' for Inactive)
REMARK    1  A    between atoms: O_1  and  C_21
REMARK    2  A    between atoms: O_1  and  C_38
REMARK    3  A    between atoms: O_4  and  C_26
REMARK    4  A    between atoms: N_7  and  C_11
REMARK    5  A    between atoms: C_26  and  C_33
REMARK    6  A    between atoms: C_29  and  C_37
REMARK    7  A    between atoms: C_33  and  C_42
REMARK    8  A    between atoms: C_37  and  C_43
REMARK                            x       y       z     vdW  Elec       q    Type
REMARK                         _______ _______ _______ _____ _____    ______ ____
ROOT
ATOM      1  O   UNL     1      38.237   5.643 193.146  0.00  0.00    +0.000 OA
ATOM      2  O   UNL     1      35.069   4.094 195.452  0.00  0.00    +0.000 OA
ATOM      3  O   UNL     1      39.007   5.627 191.035  0.00  0.00    +0.000 OA
ATOM      4  N   UNL     1      33.660   4.053 193.641  0.00  0.00    +0.000 N 
ATOM      5  N   UNL     1      31.421   4.025 190.839  0.00  0.00    +0.000 NA
ATOM      6  C   UNL     1      33.395   4.349 192.320  0.00  0.00    +0.000 A 
ATOM      7  C   UNL     1      31.507   3.336 193.167  0.00  0.00    +0.000 A 
ATOM      8  C   UNL     1      32.514   3.399 194.279  0.00  0.00    +0.000 C 
ATOM      9  C   UNL     1      35.604   5.292 192.119  0.00  0.00    +0.000 A 
ATOM     10  C   UNL     1      36.631   6.010 191.281  0.00  0.00    +0.000 C 
ATOM     11  C   UNL     1      32.040   3.902 192.015  0.00  0.00    +0.000 A 
ATOM     12  C   UNL     1      35.869   5.006 193.409  0.00  0.00    +0.000 A 
ATOM     13  C   UNL     1      30.214   2.833 193.139  0.00  0.00    +0.000 A 
ATOM     14  C   UNL     1      34.306   4.949 191.547  0.00  0.00    +0.000 A 
ATOM     15  C   UNL     1      34.842   4.340 194.272  0.00  0.00    +0.000 A 
ATOM     16  C   UNL     1      29.502   2.954 191.911  0.00  0.00    +0.000 A 
ATOM     17  C   UNL     1      37.164   5.340 194.062  0.00  0.00    +0.000 C 
ATOM     18  C   UNL     1      30.164   3.558 190.793  0.00  0.00    +0.000 A 
ATOM     19  C   UNL     1      38.054   5.720 191.811  0.00  0.00    +0.000 C 
ATOM     20  C   UNL     1      27.527   2.666 190.513  0.00  0.00    +0.000 A 
ATOM     21  C   UNL     1      28.173   2.508 191.737  0.00  0.00    +0.000 A 
ATOM     22  C   UNL     1      29.488   3.674 189.586  0.00  0.00    +0.000 A 
ATOM     23  C   UNL     1      28.175   3.228 189.426  0.00  0.00    +0.000 A 
ENDROOT
BRANCH  10  24
ATOM     24  O   UNL     1      36.544   5.529 189.932  0.00  0.00    +0.000 OA
ATOM     25  H   UNL     1      35.613   5.654 189.657  0.00  0.00    +0.000 HD
ENDBRANCH  10  24
BRANCH  10  26
ATOM     26  C   UNL     1      36.367   7.531 191.288  0.00  0.00    +0.000 C 
ATOM     27  C   UNL     1      35.606   8.036 192.511  0.00  0.00    +0.000 C 
ENDBRANCH  10  26
BRANCH  13  28
ATOM     28  C   UNL     1      29.617   2.228 194.387  0.00  0.00    +0.000 C 
ATOM     29  C   UNL     1      28.385   2.984 194.859  0.00  0.00    +0.000 C 
ENDBRANCH  13  28
BRANCH  20  30
ATOM     30  O   UNL     1      26.229   2.176 190.361  0.00  0.00    +0.000 OA
BRANCH  30  38
ATOM     31  O   UNL     1      25.367   3.508 192.048  0.00  0.00    +0.000 OA
ATOM     32  N   UNL     1      24.125   3.107 190.151  0.00  0.00    +0.000 N 
ATOM     33  C   UNL     1      21.445   2.613 189.085  0.00  0.00    +0.000 C 
ATOM     34  C   UNL     1      22.679   1.763 188.690  0.00  0.00    +0.000 C 
ATOM     35  C   UNL     1      21.696   3.213 190.491  0.00  0.00    +0.000 C 
ATOM     36  C   UNL     1      23.989   2.534 188.823  0.00  0.00    +0.000 C 
ATOM     37  C   UNL     1      23.027   3.952 190.581  0.00  0.00    +0.000 C 
ATOM     38  C   UNL     1      25.253   2.977 190.947  0.00  0.00    +0.000 C 
BRANCH  33  39
ATOM     39  N   UNL     1      20.177   1.819 189.037  0.00  0.00    +0.000 NA
ATOM     40  C   UNL     1      19.736   1.394 190.383  0.00  0.00    +0.000 C 
ATOM     41  C   UNL     1      19.086   2.548 188.358  0.00  0.00    +0.000 C 
ATOM     42  C   UNL     1      18.457   0.554 190.353  0.00  0.00    +0.000 C 
ATOM     43  C   UNL     1      17.789   1.739 188.277  0.00  0.00    +0.000 C 
ATOM     44  C   UNL     1      17.327   1.288 189.652  0.00  0.00    +0.000 C 
ENDBRANCH  33  39
ENDBRANCH  30  38
ENDBRANCH  20  30
TORSDOF 6
ENDMDL
MODEL 8
REMARK VINA RESULT:      -6.9     23.878     30.645
REMARK  Name = 
REMARK  8 active torsions:
REMARK  status: ('A' for Active; 'I' for Inactive)
REMARK    1  A    between atoms: O_1  and  C_21
REMARK    2  A    between atoms: O_1  and  C_38
REMARK    3  A    between atoms: O_4  and  C_26
REMARK    4  A    between atoms: N_7  and  C_11
REMARK    5  A    between atoms: C_26  and  C_33
REMARK    6  A    between atoms: C_29  and  C_37
REMARK    7  A    between atoms: C_33  and  C_42
REMARK    8  A    between atoms: C_37  and  C_43
REMARK                            x       y       z     vdW  Elec       q    Type
REMARK                         _______ _______ _______ _____ _____    ______ ____
ROOT
ATOM      1  O   UNL     1      49.602   0.613 179.505  0.00  0.00    +0.000 OA
ATOM      2  O   UNL     1      53.811   0.536 179.658  0.00  0.00    +0.000 OA
ATOM      3  O   UNL     1      47.868  -0.696 178.930  0.00  0.00    +0.000 OA
ATOM      4  N   UNL     1      53.841  -1.737 179.981  0.00  0.00    +0.000 N 
ATOM      5  N   UNL     1      53.915  -5.280 180.535  0.00  0.00    +0.000 NA
ATOM      6  C   UNL     1      53.177  -2.926 180.201  0.00  0.00    +0.000 A 
ATOM      7  C   UNL     1      55.428  -3.418 180.149  0.00  0.00    +0.000 A 
ATOM      8  C   UNL     1      55.291  -1.939 179.928  0.00  0.00    +0.000 C 
ATOM      9  C   UNL     1      51.083  -1.736 180.135  0.00  0.00    +0.000 A 
ATOM     10  C   UNL     1      49.581  -1.754 180.271  0.00  0.00    +0.000 C 
ATOM     11  C   UNL     1      54.171  -3.989 180.310  0.00  0.00    +0.000 A 
ATOM     12  C   UNL     1      51.725  -0.571 179.920  0.00  0.00    +0.000 A 
ATOM     13  C   UNL     1      56.553  -4.227 180.215  0.00  0.00    +0.000 A 
ATOM     14  C   UNL     1      51.844  -2.971 180.284  0.00  0.00    +0.000 A 
ATOM     15  C   UNL     1      53.219  -0.524 179.835  0.00  0.00    +0.000 A 
ATOM     16  C   UNL     1      56.337  -5.613 180.469  0.00  0.00    +0.000 A 
ATOM     17  C   UNL     1      51.014   0.729 179.774  0.00  0.00    +0.000 C 
ATOM     18  C   UNL     1      54.990  -6.079 180.616  0.00  0.00    +0.000 A 
ATOM     19  C   UNL     1      48.958  -0.573 179.492  0.00  0.00    +0.000 C 
ATOM     20  C   UNL     1      57.107  -7.894 180.845  0.00  0.00    +0.000 A 
ATOM     21  C   UNL     1      57.384  -6.553 180.584  0.00  0.00    +0.000 A 
ATOM     22  C   UNL     1      54.761  -7.428 180.854  0.00  0.00    +0.000 A 
ATOM     23  C   UNL     1      55.804  -8.348 180.964  0.00  0.00    +0.000 A 
ENDROOT
BRANCH  10  24
ATOM     24  O   UNL     1      49.083  -2.978 179.711  0.00  0.00    +0.000 OA
ATOM     25  H   UNL     1      48.809  -2.767 178.796  0.00  0.00    +0.000 HD
ENDBRANCH  10  24
BRANCH  10  26
ATOM     26  C   UNL     1      49.171  -1.680 181.757  0.00  0.00    +0.000 C 
ATOM     27  C   UNL     1      49.587  -2.890 182.590  0.00  0.00    +0.000 C 
ENDBRANCH  10  26
BRANCH  13  28
ATOM     28  C   UNL     1      57.925  -3.619 180.055  0.00  0.00    +0.000 C 
ATOM     29  C   UNL     1      58.485  -3.111 181.375  0.00  0.00    +0.000 C 
ENDBRANCH  13  28
BRANCH  20  30
ATOM     30  O   UNL     1      58.161  -8.806 180.910  0.00  0.00    +0.000 OA
BRANCH  30  38
ATOM     31  O   UNL     1      59.743  -7.941 182.364  0.00  0.00    +0.000 OA
ATOM     32  N   UNL     1      58.481  -9.763 182.989  0.00  0.00    +0.000 N 
ATOM     33  C   UNL     1      58.479 -12.320 184.411  0.00  0.00    +0.000 C 
ATOM     34  C   UNL     1      57.873 -12.142 182.996  0.00  0.00    +0.000 C 
ATOM     35  C   UNL     1      59.577 -11.245 184.610  0.00  0.00    +0.000 C 
ATOM     36  C   UNL     1      57.412 -10.712 182.731  0.00  0.00    +0.000 C 
ATOM     37  C   UNL     1      59.076  -9.836 184.310  0.00  0.00    +0.000 C 
ATOM     38  C   UNL     1      58.868  -8.764 182.108  0.00  0.00    +0.000 C 
BRANCH  33  39
ATOM     39  N   UNL     1      59.009 -13.704 184.626  0.00  0.00    +0.000 NA
ATOM     40  C   UNL     1      58.081 -14.738 184.122  0.00  0.00    +0.000 C 
ATOM     41  C   UNL     1      60.345 -13.890 184.021  0.00  0.00    +0.000 C 
ATOM     42  C   UNL     1      58.591 -16.162 184.360  0.00  0.00    +0.000 C 
ATOM     43  C   UNL     1      60.912 -15.292 184.255  0.00  0.00    +0.000 C 
ATOM     44  C   UNL     1      59.967 -16.368 183.751  0.00  0.00    +0.000 C 
ENDBRANCH  33  39
ENDBRANCH  30  38
ENDBRANCH  20  30
TORSDOF 6
ENDMDL
MODEL 9
REMARK VINA RESULT:      -6.9     32.344     38.934
REMARK  Name = 
REMARK  8 active torsions:
REMARK  status: ('A' for Active; 'I' for Inactive)
REMARK    1  A    between atoms: O_1  and  C_21
REMARK    2  A    between atoms: O_1  and  C_38
REMARK    3  A    between atoms: O_4  and  C_26
REMARK    4  A    between atoms: N_7  and  C_11
REMARK    5  A    between atoms: C_26  and  C_33
REMARK    6  A    between atoms: C_29  and  C_37
REMARK    7  A    between atoms: C_33  and  C_42
REMARK    8  A    between atoms: C_37  and  C_43
REMARK                            x       y       z     vdW  Elec       q    Type
REMARK                         _______ _______ _______ _____ _____    ______ ____
ROOT
ATOM      1  O   UNL     1       4.991 -32.519 179.373  0.00  0.00    +0.000 OA
ATOM      2  O   UNL     1       7.186 -31.904 182.917  0.00  0.00    +0.000 OA
ATOM      3  O   UNL     1       4.252 -31.386 177.579  0.00  0.00    +0.000 OA
ATOM      4  N   UNL     1       8.393 -30.197 181.972  0.00  0.00    +0.000 N 
ATOM      5  N   UNL     1      10.330 -27.557 180.505  0.00  0.00    +0.000 NA
ATOM      6  C   UNL     1       8.735 -29.433 180.874  0.00  0.00    +0.000 A 
ATOM      7  C   UNL     1       9.993 -28.660 182.644  0.00  0.00    +0.000 A 
ATOM      8  C   UNL     1       9.142 -29.783 183.162  0.00  0.00    +0.000 C 
ATOM      9  C   UNL     1       7.173 -30.696 179.545  0.00  0.00    +0.000 A 
ATOM     10  C   UNL     1       6.555 -30.980 178.198  0.00  0.00    +0.000 C 
ATOM     11  C   UNL     1       9.744 -28.464 181.291  0.00  0.00    +0.000 A 
ATOM     12  C   UNL     1       6.834 -31.446 180.612  0.00  0.00    +0.000 A 
ATOM     13  C   UNL     1      10.927 -27.857 183.284  0.00  0.00    +0.000 A 
ATOM     14  C   UNL     1       8.171 -29.641 179.681  0.00  0.00    +0.000 A 
ATOM     15  C   UNL     1       7.475 -31.214 181.945  0.00  0.00    +0.000 A 
ATOM     16  C   UNL     1      11.594 -26.882 182.487  0.00  0.00    +0.000 A 
ATOM     17  C   UNL     1       5.836 -32.548 180.543  0.00  0.00    +0.000 C 
ATOM     18  C   UNL     1      11.246 -26.779 181.100  0.00  0.00    +0.000 A 
ATOM     19  C   UNL     1       5.163 -31.627 178.373  0.00  0.00    +0.000 C 
ATOM     20  C   UNL     1      13.206 -25.085 182.157  0.00  0.00    +0.000 A 
ATOM     21  C   UNL     1      12.582 -26.009 182.992  0.00  0.00    +0.000 A 
ATOM     22  C   UNL     1      11.880 -25.828 180.311  0.00  0.00    +0.000 A 
ATOM     23  C   UNL     1      12.854 -24.970 180.823  0.00  0.00    +0.000 A 
ENDROOT
BRANCH  10  24
ATOM     24  O   UNL     1       6.392 -29.740 177.495  0.00  0.00    +0.000 OA
ATOM     25  H   UNL     1       6.376 -29.966 176.544  0.00  0.00    +0.000 HD
ENDBRANCH  10  24
BRANCH  10  26
ATOM     26  C   UNL     1       7.468 -31.909 177.370  0.00  0.00    +0.000 C 
ATOM     27  C   UNL     1       8.071 -31.261 176.127  0.00  0.00    +0.000 C 
ENDBRANCH  10  26
BRANCH  13  28
ATOM     28  C   UNL     1      11.217 -28.067 184.750  0.00  0.00    +0.000 C 
ATOM     29  C   UNL     1      10.286 -27.259 185.641  0.00  0.00    +0.000 C 
ENDBRANCH  13  28
BRANCH  20  30
ATOM     30  O   UNL     1      14.148 -24.208 182.697  0.00  0.00    +0.000 OA
BRANCH  30  38
ATOM     31  O   UNL     1      12.643 -22.585 183.379  0.00  0.00    +0.000 OA
ATOM     32  N   UNL     1      14.548 -21.979 182.236  0.00  0.00    +0.000 N 
ATOM     33  C   UNL     1      15.688 -20.174 180.236  0.00  0.00    +0.000 C 
ATOM     34  C   UNL     1      15.937 -21.703 180.230  0.00  0.00    +0.000 C 
ATOM     35  C   UNL     1      14.337 -19.903 180.945  0.00  0.00    +0.000 C 
ATOM     36  C   UNL     1      15.818 -22.322 181.620  0.00  0.00    +0.000 C 
ATOM     37  C   UNL     1      14.257 -20.561 182.318  0.00  0.00    +0.000 C 
ATOM     38  C   UNL     1      13.690 -22.899 182.822  0.00  0.00    +0.000 C 
BRANCH  33  39
ATOM     39  N   UNL     1      15.718 -19.594 178.856  0.00  0.00    +0.000 NA
ATOM     40  C   UNL     1      16.629 -20.339 177.960  0.00  0.00    +0.000 C 
ATOM     41  C   UNL     1      14.371 -19.518 178.252  0.00  0.00    +0.000 C 
ATOM     42  C   UNL     1      16.697 -19.743 176.552  0.00  0.00    +0.000 C 
ATOM     43  C   UNL     1      14.382 -18.903 176.850  0.00  0.00    +0.000 C 
ATOM     44  C   UNL     1      15.319 -19.652 175.920  0.00  0.00    +0.000 C 
ENDBRANCH  33  39
ENDBRANCH  30  38
ENDBRANCH  20  30
TORSDOF 6
ENDMDL
