MODEL 1
REMARK VINA RESULT:      -8.4      0.000      0.000
REMARK  Name = 
REMARK  4 active torsions:
REMARK  status: ('A' for Active; 'I' for Inactive)
REMARK    1  A    between atoms: C_1  and  C_6
REMARK    2  A    between atoms: C_1  and  C_7
REMARK    3  A    between atoms: C_9  and  C_14
REMARK    4  A    between atoms: C_11  and  C_15
REMARK                            x       y       z     vdW  Elec       q    Type
REMARK                         _______ _______ _______ _____ _____    ______ ____
ROOT
ATOM      1  C   UNL     1      20.723   3.583 186.319  0.00  0.00    +0.000 C 
ATOM      2  C   UNL     1      20.664   2.175 186.904  0.00  0.00    +0.000 C 
ATOM      3  C   UNL     1      19.387   2.907 186.577  0.00  0.00    +0.000 C 
ATOM      4  C   UNL     1      21.105   1.930 188.276  0.00  0.00    +0.000 C 
ATOM      5  C   UNL     1      18.424   3.305 187.650  0.00  0.00    +0.000 C 
ATOM      6  C   UNL     1      21.149   4.761 187.164  0.00  0.00    +0.000 C 
ATOM      7  C   UNL     1      21.161   3.708 184.880  0.00  0.00    +0.000 C 
ATOM      8  C   UNL     1      20.402   1.766 189.413  0.00  0.00    +0.000 C 
ATOM      9  C   UNL     1      22.595   1.830 188.538  0.00  0.00    +0.000 C 
ATOM     10  C   UNL     1      17.995   2.082 188.459  0.00  0.00    +0.000 C 
ATOM     11  C   UNL     1      18.911   1.785 189.663  0.00  0.00    +0.000 C 
ATOM     12  C   UNL     1      21.326   1.579 190.589  0.00  0.00    +0.000 C 
ATOM     13  C   UNL     1      22.673   2.045 190.049  0.00  0.00    +0.000 C 
ATOM     14  C   UNL     1      23.166   0.478 188.118  0.00  0.00    +0.000 C 
ATOM     15  C   UNL     1      18.452   0.470 190.310  0.00  0.00    +0.000 C 
ENDROOT
TORSDOF 0
ENDMDL
MODEL 2
REMARK VINA RESULT:      -7.6      1.693      4.023
REMARK  Name = 
REMARK  4 active torsions:
REMARK  status: ('A' for Active; 'I' for Inactive)
REMARK    1  A    between atoms: C_1  and  C_6
REMARK    2  A    between atoms: C_1  and  C_7
REMARK    3  A    between atoms: C_9  and  C_14
REMARK    4  A    between atoms: C_11  and  C_15
REMARK                            x       y       z     vdW  Elec       q    Type
REMARK                         _______ _______ _______ _____ _____    ______ ____
ROOT
ATOM      1  C   UNL     1      19.932   3.435 187.404  0.00  0.00    +0.000 C 
ATOM      2  C   UNL     1      21.051   3.510 188.438  0.00  0.00    +0.000 C 
ATOM      3  C   UNL     1      20.767   4.696 187.551  0.00  0.00    +0.000 C 
ATOM      4  C   UNL     1      22.245   2.679 188.289  0.00  0.00    +0.000 C 
ATOM      5  C   UNL     1      21.771   5.174 186.550  0.00  0.00    +0.000 C 
ATOM      6  C   UNL     1      20.067   2.579 186.167  0.00  0.00    +0.000 C 
ATOM      7  C   UNL     1      18.515   3.490 187.924  0.00  0.00    +0.000 C 
ATOM      8  C   UNL     1      23.478   2.979 187.838  0.00  0.00    +0.000 C 
ATOM      9  C   UNL     1      22.152   1.221 188.692  0.00  0.00    +0.000 C 
ATOM     10  C   UNL     1      23.099   5.489 187.238  0.00  0.00    +0.000 C 
ATOM     11  C   UNL     1      24.052   4.280 187.325  0.00  0.00    +0.000 C 
ATOM     12  C   UNL     1      24.358   1.756 187.839  0.00  0.00    +0.000 C 
ATOM     13  C   UNL     1      23.362   0.612 187.983  0.00  0.00    +0.000 C 
ATOM     14  C   UNL     1      22.217   1.035 190.206  0.00  0.00    +0.000 C 
ATOM     15  C   UNL     1      25.284   4.691 188.144  0.00  0.00    +0.000 C 
ENDROOT
TORSDOF 0
ENDMDL
MODEL 3
REMARK VINA RESULT:      -7.5      1.435      4.049
REMARK  Name = 
REMARK  4 active torsions:
REMARK  status: ('A' for Active; 'I' for Inactive)
REMARK    1  A    between atoms: C_1  and  C_6
REMARK    2  A    between atoms: C_1  and  C_7
REMARK    3  A    between atoms: C_9  and  C_14
REMARK    4  A    between atoms: C_11  and  C_15
REMARK                            x       y       z     vdW  Elec       q    Type
REMARK                         _______ _______ _______ _____ _____    ______ ____
ROOT
ATOM      1  C   UNL     1      22.789   3.022 190.042  0.00  0.00    +0.000 C 
ATOM      2  C   UNL     1      21.368   3.495 190.331  0.00  0.00    +0.000 C 
ATOM      3  C   UNL     1      21.949   2.339 191.107  0.00  0.00    +0.000 C 
ATOM      4  C   UNL     1      20.319   3.325 189.328  0.00  0.00    +0.000 C 
ATOM      5  C   UNL     1      21.379   0.961 190.989  0.00  0.00    +0.000 C 
ATOM      6  C   UNL     1      23.124   2.293 188.761  0.00  0.00    +0.000 C 
ATOM      7  C   UNL     1      23.916   3.906 190.521  0.00  0.00    +0.000 C 
ATOM      8  C   UNL     1      19.334   2.411 189.226  0.00  0.00    +0.000 C 
ATOM      9  C   UNL     1      20.268   4.311 188.177  0.00  0.00    +0.000 C 
ATOM     10  C   UNL     1      19.889   0.972 191.330  0.00  0.00    +0.000 C 
ATOM     11  C   UNL     1      18.979   1.241 190.114  0.00  0.00    +0.000 C 
ATOM     12  C   UNL     1      18.525   2.637 187.975  0.00  0.00    +0.000 C 
ATOM     13  C   UNL     1      19.407   3.569 187.154  0.00  0.00    +0.000 C 
ATOM     14  C   UNL     1      19.653   5.647 188.588  0.00  0.00    +0.000 C 
ATOM     15  C   UNL     1      17.530   1.353 190.608  0.00  0.00    +0.000 C 
ENDROOT
TORSDOF 0
ENDMDL
MODEL 4
REMARK VINA RESULT:      -7.4      1.930      5.289
REMARK  Name = 
REMARK  4 active torsions:
REMARK  status: ('A' for Active; 'I' for Inactive)
REMARK    1  A    between atoms: C_1  and  C_6
REMARK    2  A    between atoms: C_1  and  C_7
REMARK    3  A    between atoms: C_9  and  C_14
REMARK    4  A    between atoms: C_11  and  C_15
REMARK                            x       y       z     vdW  Elec       q    Type
REMARK                         _______ _______ _______ _____ _____    ______ ____
ROOT
ATOM      1  C   UNL     1      21.611   2.085 191.028  0.00  0.00    +0.000 C 
ATOM      2  C   UNL     1      21.884   2.391 189.558  0.00  0.00    +0.000 C 
ATOM      3  C   UNL     1      23.032   2.294 190.531  0.00  0.00    +0.000 C 
ATOM      4  C   UNL     1      21.444   3.659 188.979  0.00  0.00    +0.000 C 
ATOM      5  C   UNL     1      23.879   3.484 190.852  0.00  0.00    +0.000 C 
ATOM      6  C   UNL     1      20.969   3.110 191.933  0.00  0.00    +0.000 C 
ATOM      7  C   UNL     1      21.207   0.670 191.369  0.00  0.00    +0.000 C 
ATOM      8  C   UNL     1      22.126   4.787 188.703  0.00  0.00    +0.000 C 
ATOM      9  C   UNL     1      19.983   3.800 188.598  0.00  0.00    +0.000 C 
ATOM     10  C   UNL     1      24.478   4.070 189.574  0.00  0.00    +0.000 C 
ATOM     11  C   UNL     1      23.584   5.132 188.903  0.00  0.00    +0.000 C 
ATOM     12  C   UNL     1      21.207   5.843 188.144  0.00  0.00    +0.000 C 
ATOM     13  C   UNL     1      19.821   5.316 188.493  0.00  0.00    +0.000 C 
ATOM     14  C   UNL     1      19.658   3.092 187.285  0.00  0.00    +0.000 C 
ATOM     15  C   UNL     1      24.233   5.544 187.574  0.00  0.00    +0.000 C 
ENDROOT
TORSDOF 0
ENDMDL
MODEL 5
REMARK VINA RESULT:      -7.4      2.014      3.395
REMARK  Name = 
REMARK  4 active torsions:
REMARK  status: ('A' for Active; 'I' for Inactive)
REMARK    1  A    between atoms: C_1  and  C_6
REMARK    2  A    between atoms: C_1  and  C_7
REMARK    3  A    between atoms: C_9  and  C_14
REMARK    4  A    between atoms: C_11  and  C_15
REMARK                            x       y       z     vdW  Elec       q    Type
REMARK                         _______ _______ _______ _____ _____    ______ ____
ROOT
ATOM      1  C   UNL     1      23.876   4.986 187.756  0.00  0.00    +0.000 C 
ATOM      2  C   UNL     1      23.153   3.643 187.758  0.00  0.00    +0.000 C 
ATOM      3  C   UNL     1      23.136   4.503 186.520  0.00  0.00    +0.000 C 
ATOM      4  C   UNL     1      21.974   3.445 188.598  0.00  0.00    +0.000 C 
ATOM      5  C   UNL     1      21.863   5.095 186.003  0.00  0.00    +0.000 C 
ATOM      6  C   UNL     1      23.344   6.160 188.544  0.00  0.00    +0.000 C 
ATOM      7  C   UNL     1      25.385   4.952 187.707  0.00  0.00    +0.000 C 
ATOM      8  C   UNL     1      20.661   3.452 188.294  0.00  0.00    +0.000 C 
ATOM      9  C   UNL     1      22.189   3.179 190.076  0.00  0.00    +0.000 C 
ATOM     10  C   UNL     1      20.831   3.996 185.749  0.00  0.00    +0.000 C 
ATOM     11  C   UNL     1      19.956   3.675 186.976  0.00  0.00    +0.000 C 
ATOM     12  C   UNL     1      19.826   3.237 189.530  0.00  0.00    +0.000 C 
ATOM     13  C   UNL     1      20.812   3.491 190.664  0.00  0.00    +0.000 C 
ATOM     14  C   UNL     1      22.618   1.739 190.346  0.00  0.00    +0.000 C 
ATOM     15  C   UNL     1      19.057   2.479 186.632  0.00  0.00    +0.000 C 
ENDROOT
TORSDOF 0
ENDMDL
MODEL 6
REMARK VINA RESULT:      -7.4      1.497      3.903
REMARK  Name = 
REMARK  4 active torsions:
REMARK  status: ('A' for Active; 'I' for Inactive)
REMARK    1  A    between atoms: C_1  and  C_6
REMARK    2  A    between atoms: C_1  and  C_7
REMARK    3  A    between atoms: C_9  and  C_14
REMARK    4  A    between atoms: C_11  and  C_15
REMARK                            x       y       z     vdW  Elec       q    Type
REMARK                         _______ _______ _______ _____ _____    ______ ____
ROOT
ATOM      1  C   UNL     1      19.830   2.565 190.124  0.00  0.00    +0.000 C 
ATOM      2  C   UNL     1      20.556   3.592 189.262  0.00  0.00    +0.000 C 
ATOM      3  C   UNL     1      19.164   3.148 188.889  0.00  0.00    +0.000 C 
ATOM      4  C   UNL     1      21.740   3.205 188.499  0.00  0.00    +0.000 C 
ATOM      5  C   UNL     1      18.904   2.392 187.625  0.00  0.00    +0.000 C 
ATOM      6  C   UNL     1      20.257   1.116 190.139  0.00  0.00    +0.000 C 
ATOM      7  C   UNL     1      19.317   3.035 191.465  0.00  0.00    +0.000 C 
ATOM      8  C   UNL     1      21.892   2.914 187.192  0.00  0.00    +0.000 C 
ATOM      9  C   UNL     1      23.059   3.092 189.238  0.00  0.00    +0.000 C 
ATOM     10  C   UNL     1      19.415   3.181 186.420  0.00  0.00    +0.000 C 
ATOM     11  C   UNL     1      20.886   2.882 186.065  0.00  0.00    +0.000 C 
ATOM     12  C   UNL     1      23.318   2.527 186.894  0.00  0.00    +0.000 C 
ATOM     13  C   UNL     1      23.899   2.252 188.276  0.00  0.00    +0.000 C 
ATOM     14  C   UNL     1      23.687   4.457 189.511  0.00  0.00    +0.000 C 
ATOM     15  C   UNL     1      21.312   3.824 184.930  0.00  0.00    +0.000 C 
ENDROOT
TORSDOF 0
ENDMDL
MODEL 7
REMARK VINA RESULT:      -7.0      1.453      2.633
REMARK  Name = 
REMARK  4 active torsions:
REMARK  status: ('A' for Active; 'I' for Inactive)
REMARK    1  A    between atoms: C_1  and  C_6
REMARK    2  A    between atoms: C_1  and  C_7
REMARK    3  A    between atoms: C_9  and  C_14
REMARK    4  A    between atoms: C_11  and  C_15
REMARK                            x       y       z     vdW  Elec       q    Type
REMARK                         _______ _______ _______ _____ _____    ______ ____
ROOT
ATOM      1  C   UNL     1      23.075   3.794 187.922  0.00  0.00    +0.000 C 
ATOM      2  C   UNL     1      22.163   2.594 188.159  0.00  0.00    +0.000 C 
ATOM      3  C   UNL     1      22.035   3.396 186.888  0.00  0.00    +0.000 C 
ATOM      4  C   UNL     1      21.160   2.632 189.222  0.00  0.00    +0.000 C 
ATOM      5  C   UNL     1      20.795   4.175 186.584  0.00  0.00    +0.000 C 
ATOM      6  C   UNL     1      22.906   5.071 188.711  0.00  0.00    +0.000 C 
ATOM      7  C   UNL     1      24.519   3.501 187.588  0.00  0.00    +0.000 C 
ATOM      8  C   UNL     1      19.832   2.851 189.175  0.00  0.00    +0.000 C 
ATOM      9  C   UNL     1      21.622   2.391 190.646  0.00  0.00    +0.000 C 
ATOM     10  C   UNL     1      19.572   3.259 186.612  0.00  0.00    +0.000 C 
ATOM     11  C   UNL     1      18.921   3.140 188.004  0.00  0.00    +0.000 C 
ATOM     12  C   UNL     1      19.239   2.830 190.560  0.00  0.00    +0.000 C 
ATOM     13  C   UNL     1      20.460   2.956 191.462  0.00  0.00    +0.000 C 
ATOM     14  C   UNL     1      21.863   0.911 190.932  0.00  0.00    +0.000 C 
ATOM     15  C   UNL     1      17.793   2.101 187.925  0.00  0.00    +0.000 C 
ENDROOT
TORSDOF 0
ENDMDL
MODEL 8
REMARK VINA RESULT:      -6.5      1.749      4.239
REMARK  Name = 
REMARK  4 active torsions:
REMARK  status: ('A' for Active; 'I' for Inactive)
REMARK    1  A    between atoms: C_1  and  C_6
REMARK    2  A    between atoms: C_1  and  C_7
REMARK    3  A    between atoms: C_9  and  C_14
REMARK    4  A    between atoms: C_11  and  C_15
REMARK                            x       y       z     vdW  Elec       q    Type
REMARK                         _______ _______ _______ _____ _____    ______ ____
ROOT
ATOM      1  C   UNL     1      22.512   2.960 191.251  0.00  0.00    +0.000 C 
ATOM      2  C   UNL     1      21.741   3.847 190.278  0.00  0.00    +0.000 C 
ATOM      3  C   UNL     1      21.008   2.808 191.089  0.00  0.00    +0.000 C 
ATOM      4  C   UNL     1      21.957   3.719 188.839  0.00  0.00    +0.000 C 
ATOM      5  C   UNL     1      20.336   1.644 190.432  0.00  0.00    +0.000 C 
ATOM      6  C   UNL     1      23.438   1.876 190.752  0.00  0.00    +0.000 C 
ATOM      7  C   UNL     1      23.001   3.604 192.526  0.00  0.00    +0.000 C 
ATOM      8  C   UNL     1      21.228   3.102 187.888  0.00  0.00    +0.000 C 
ATOM      9  C   UNL     1      23.191   4.367 188.243  0.00  0.00    +0.000 C 
ATOM     10  C   UNL     1      19.329   2.132 189.391  0.00  0.00    +0.000 C 
ATOM     11  C   UNL     1      19.936   2.323 187.987  0.00  0.00    +0.000 C 
ATOM     12  C   UNL     1      21.898   3.218 186.543  0.00  0.00    +0.000 C 
ATOM     13  C   UNL     1      23.315   3.651 186.898  0.00  0.00    +0.000 C 
ATOM     14  C   UNL     1      23.028   5.877 188.079  0.00  0.00    +0.000 C 
ATOM     15  C   UNL     1      18.864   2.932 187.072  0.00  0.00    +0.000 C 
ENDROOT
TORSDOF 0
ENDMDL
MODEL 9
REMARK VINA RESULT:      -6.5      1.327      4.337
REMARK  Name = 
REMARK  4 active torsions:
REMARK  status: ('A' for Active; 'I' for Inactive)
REMARK    1  A    between atoms: C_1  and  C_6
REMARK    2  A    between atoms: C_1  and  C_7
REMARK    3  A    between atoms: C_9  and  C_14
REMARK    4  A    between atoms: C_11  and  C_15
REMARK                            x       y       z     vdW  Elec       q    Type
REMARK                         _______ _______ _______ _____ _____    ______ ____
ROOT
ATOM      1  C   UNL     1      23.258   1.217 189.805  0.00  0.00    +0.000 C 
ATOM      2  C   UNL     1      21.957   1.034 189.030  0.00  0.00    +0.000 C 
ATOM      3  C   UNL     1      23.244   1.294 188.288  0.00  0.00    +0.000 C 
ATOM      4  C   UNL     1      20.892   2.028 189.138  0.00  0.00    +0.000 C 
ATOM      5  C   UNL     1      23.443   2.548 187.497  0.00  0.00    +0.000 C 
ATOM      6  C   UNL     1      23.511   2.462 190.623  0.00  0.00    +0.000 C 
ATOM      7  C   UNL     1      23.868  -0.019 190.422  0.00  0.00    +0.000 C 
ATOM      8  C   UNL     1      20.526   3.023 188.307  0.00  0.00    +0.000 C 
ATOM      9  C   UNL     1      20.006   1.992 190.368  0.00  0.00    +0.000 C 
ATOM     10  C   UNL     1      22.335   2.701 186.456  0.00  0.00    +0.000 C 
ATOM     11  C   UNL     1      21.097   3.458 186.977  0.00  0.00    +0.000 C 
ATOM     12  C   UNL     1      19.380   3.810 188.889  0.00  0.00    +0.000 C 
ATOM     13  C   UNL     1      19.376   3.385 190.353  0.00  0.00    +0.000 C 
ATOM     14  C   UNL     1      18.958   0.884 190.293  0.00  0.00    +0.000 C 
ATOM     15  C   UNL     1      20.016   3.431 185.886  0.00  0.00    +0.000 C 
ENDROOT
TORSDOF 0
ENDMDL
