MODEL 1
REMARK VINA RESULT:      -9.0      0.000      0.000
REMARK  Name = JAK3_Inhibitor.pdbqt.pdb
REMARK  1 active torsions:
REMARK  status: ('A' for Active; 'I' for Inactive)
REMARK    1  A    between atoms: C_7  and  C_20
REMARK                            x       y       z     vdW  Elec       q    Type
REMARK                         _______ _______ _______ _____ _____    ______ ____
ROOT
ATOM      1  O   UNL     1      20.130  -0.861 194.421  0.00  0.00    +0.000 OA
ATOM      2  N   UNL     1      18.826   0.190 192.784  0.00  0.00    +0.000 N 
ATOM      3  C   UNL     1      20.428   0.673 191.214  0.00  0.00    +0.000 A 
ATOM      4  C   UNL     1      19.072   0.763 191.535  0.00  0.00    +0.000 A 
ATOM      5  C   UNL     1      21.055   0.000 192.339  0.00  0.00    +0.000 C 
ATOM      6  C   UNL     1      20.912   1.176 190.023  0.00  0.00    +0.000 A 
ATOM      7  C   UNL     1      20.016   1.784 189.127  0.00  0.00    +0.000 A 
ATOM      8  C   UNL     1      19.995  -0.305 193.348  0.00  0.00    +0.000 C 
ATOM      9  C   UNL     1      18.155   1.349 190.691  0.00  0.00    +0.000 A 
ATOM     10  C   UNL     1      22.306  -0.301 192.487  0.00  0.00    +0.000 C 
ATOM     11  C   UNL     1      18.649   1.856 189.486  0.00  0.00    +0.000 A 
ATOM     12  H   UNL     1      17.926   0.129 193.238  0.00  0.00    +0.000 HD
ATOM     13  N   UNL     1      24.122  -1.292 193.820  0.00  0.00    +0.000 N 
ATOM     14  C   UNL     1      23.663  -0.654 192.697  0.00  0.00    +0.000 C 
ATOM     15  C   UNL     1      24.736  -0.440 191.863  0.00  0.00    +0.000 C 
ATOM     16  C   UNL     1      25.473  -1.487 193.712  0.00  0.00    +0.000 C 
ATOM     17  C   UNL     1      25.881  -0.966 192.506  0.00  0.00    +0.000 C 
ATOM     18  H   UNL     1      23.550  -1.575 194.604  0.00  0.00    +0.000 HD
ENDROOT
BRANCH   7  20
ATOM     19  N   UNL     1      22.309   2.698 186.273  0.00  0.00    +0.000 NA
ATOM     20  C   UNL     1      20.485   2.331 187.849  0.00  0.00    +0.000 A 
ATOM     21  C   UNL     1      19.633   3.000 186.968  0.00  0.00    +0.000 A 
ATOM     22  C   UNL     1      21.809   2.218 187.434  0.00  0.00    +0.000 A 
ATOM     23  C   UNL     1      20.097   3.511 185.762  0.00  0.00    +0.000 A 
ATOM     24  C   UNL     1      21.436   3.333 185.464  0.00  0.00    +0.000 A 
ENDBRANCH   7  20
TORSDOF 1
ENDMDL
MODEL 2
REMARK VINA RESULT:      -7.6      3.238      7.438
REMARK  Name = JAK3_Inhibitor.pdbqt.pdb
REMARK  1 active torsions:
REMARK  status: ('A' for Active; 'I' for Inactive)
REMARK    1  A    between atoms: C_7  and  C_20
REMARK                            x       y       z     vdW  Elec       q    Type
REMARK                         _______ _______ _______ _____ _____    ______ ____
ROOT
ATOM      1  O   UNL     1      25.298   4.331 188.352  0.00  0.00    +0.000 OA
ATOM      2  N   UNL     1      25.210   3.706 190.607  0.00  0.00    +0.000 N 
ATOM      3  C   UNL     1      23.049   2.947 190.750  0.00  0.00    +0.000 A 
ATOM      4  C   UNL     1      24.239   3.159 191.449  0.00  0.00    +0.000 A 
ATOM      5  C   UNL     1      23.305   3.392 189.390  0.00  0.00    +0.000 C 
ATOM      6  C   UNL     1      21.941   2.412 191.377  0.00  0.00    +0.000 A 
ATOM      7  C   UNL     1      22.026   2.080 192.740  0.00  0.00    +0.000 A 
ATOM      8  C   UNL     1      24.716   3.881 189.320  0.00  0.00    +0.000 C 
ATOM      9  C   UNL     1      24.371   2.850 192.784  0.00  0.00    +0.000 A 
ATOM     10  C   UNL     1      22.489   3.387 188.386  0.00  0.00    +0.000 C 
ATOM     11  C   UNL     1      23.249   2.308 193.415  0.00  0.00    +0.000 A 
ATOM     12  H   UNL     1      26.153   3.949 190.874  0.00  0.00    +0.000 HD
ATOM     13  N   UNL     1      22.010   3.856 186.018  0.00  0.00    +0.000 N 
ATOM     14  C   UNL     1      21.634   3.401 187.255  0.00  0.00    +0.000 C 
ATOM     15  C   UNL     1      20.325   2.984 187.172  0.00  0.00    +0.000 C 
ATOM     16  C   UNL     1      20.959   3.735 185.149  0.00  0.00    +0.000 C 
ATOM     17  C   UNL     1      19.898   3.196 185.840  0.00  0.00    +0.000 C 
ATOM     18  H   UNL     1      22.924   4.223 185.785  0.00  0.00    +0.000 HD
ENDROOT
BRANCH   7  20
ATOM     19  N   UNL     1      19.844   0.804 195.542  0.00  0.00    +0.000 NA
ATOM     20  C   UNL     1      20.874   1.509 193.448  0.00  0.00    +0.000 A 
ATOM     21  C   UNL     1      19.712   1.116 192.781  0.00  0.00    +0.000 A 
ATOM     22  C   UNL     1      20.867   1.322 194.827  0.00  0.00    +0.000 A 
ATOM     23  C   UNL     1      18.630   0.577 193.469  0.00  0.00    +0.000 A 
ATOM     24  C   UNL     1      18.748   0.444 194.840  0.00  0.00    +0.000 A 
ENDBRANCH   7  20
TORSDOF 1
ENDMDL
MODEL 3
REMARK VINA RESULT:      -6.9     21.387     25.989
REMARK  Name = JAK3_Inhibitor.pdbqt.pdb
REMARK  1 active torsions:
REMARK  status: ('A' for Active; 'I' for Inactive)
REMARK    1  A    between atoms: C_7  and  C_20
REMARK                            x       y       z     vdW  Elec       q    Type
REMARK                         _______ _______ _______ _____ _____    ______ ____
ROOT
ATOM      1  O   UNL     1      23.653   8.601 162.521  0.00  0.00    +0.000 OA
ATOM      2  N   UNL     1      25.340   9.388 163.943  0.00  0.00    +0.000 N 
ATOM      3  C   UNL     1      24.436   8.881 165.990  0.00  0.00    +0.000 A 
ATOM      4  C   UNL     1      25.530   9.439 165.325  0.00  0.00    +0.000 A 
ATOM      5  C   UNL     1      23.514   8.459 164.949  0.00  0.00    +0.000 C 
ATOM      6  C   UNL     1      24.397   8.821 167.369  0.00  0.00    +0.000 A 
ATOM      7  C   UNL     1      25.481   9.331 168.103  0.00  0.00    +0.000 A 
ATOM      8  C   UNL     1      24.122   8.798 163.625  0.00  0.00    +0.000 C 
ATOM      9  C   UNL     1      26.615   9.952 165.999  0.00  0.00    +0.000 A 
ATOM     10  C   UNL     1      22.360   7.889 165.092  0.00  0.00    +0.000 C 
ATOM     11  C   UNL     1      26.572   9.888 167.394  0.00  0.00    +0.000 A 
ATOM     12  H   UNL     1      25.987   9.726 163.245  0.00  0.00    +0.000 HD
ATOM     13  N   UNL     1      20.320   6.919 164.117  0.00  0.00    +0.000 N 
ATOM     14  C   UNL     1      21.093   7.263 165.196  0.00  0.00    +0.000 C 
ATOM     15  C   UNL     1      20.416   6.894 166.336  0.00  0.00    +0.000 C 
ATOM     16  C   UNL     1      19.161   6.336 164.555  0.00  0.00    +0.000 C 
ATOM     17  C   UNL     1      19.194   6.308 165.930  0.00  0.00    +0.000 C 
ATOM     18  H   UNL     1      20.570   7.072 163.149  0.00  0.00    +0.000 HD
ENDROOT
BRANCH   7  20
ATOM     19  N   UNL     1      24.281   8.891 171.653  0.00  0.00    +0.000 NA
ATOM     20  C   UNL     1      25.483   9.288 169.570  0.00  0.00    +0.000 A 
ATOM     21  C   UNL     1      26.623   9.583 170.321  0.00  0.00    +0.000 A 
ATOM     22  C   UNL     1      24.351   8.950 170.305  0.00  0.00    +0.000 A 
ATOM     23  C   UNL     1      26.605   9.536 171.710  0.00  0.00    +0.000 A 
ATOM     24  C   UNL     1      25.415   9.186 172.323  0.00  0.00    +0.000 A 
ENDBRANCH   7  20
TORSDOF 1
ENDMDL
MODEL 4
REMARK VINA RESULT:      -6.8     30.699     33.714
REMARK  Name = JAK3_Inhibitor.pdbqt.pdb
REMARK  1 active torsions:
REMARK  status: ('A' for Active; 'I' for Inactive)
REMARK    1  A    between atoms: C_7  and  C_20
REMARK                            x       y       z     vdW  Elec       q    Type
REMARK                         _______ _______ _______ _____ _____    ______ ____
ROOT
ATOM      1  O   UNL     1      38.090  -9.155 160.542  0.00  0.00    +0.000 OA
ATOM      2  N   UNL     1      40.283  -8.716 161.237  0.00  0.00    +0.000 N 
ATOM      3  C   UNL     1      39.922  -8.129 163.426  0.00  0.00    +0.000 A 
ATOM      4  C   UNL     1      40.884  -8.309 162.430  0.00  0.00    +0.000 A 
ATOM      5  C   UNL     1      38.647  -8.446 162.805  0.00  0.00    +0.000 C 
ATOM      6  C   UNL     1      40.280  -7.725 164.696  0.00  0.00    +0.000 A 
ATOM      7  C   UNL     1      41.638  -7.496 164.980  0.00  0.00    +0.000 A 
ATOM      8  C   UNL     1      38.905  -8.826 161.382  0.00  0.00    +0.000 C 
ATOM      9  C   UNL     1      42.225  -8.098 162.658  0.00  0.00    +0.000 A 
ATOM     10  C   UNL     1      37.471  -8.419 163.346  0.00  0.00    +0.000 C 
ATOM     11  C   UNL     1      42.584  -7.690 163.945  0.00  0.00    +0.000 A 
ATOM     12  H   UNL     1      40.764  -8.913 160.371  0.00  0.00    +0.000 HD
ATOM     13  N   UNL     1      35.035  -8.729 163.183  0.00  0.00    +0.000 N 
ATOM     14  C   UNL     1      36.163  -8.405 163.892  0.00  0.00    +0.000 C 
ATOM     15  C   UNL     1      35.778  -8.082 165.173  0.00  0.00    +0.000 C 
ATOM     16  C   UNL     1      33.938  -8.616 163.995  0.00  0.00    +0.000 C 
ATOM     17  C   UNL     1      34.371  -8.215 165.237  0.00  0.00    +0.000 C 
ATOM     18  H   UNL     1      35.019  -9.008 162.211  0.00  0.00    +0.000 HD
ENDROOT
BRANCH   7  20
ATOM     19  N   UNL     1      43.810  -6.933 168.013  0.00  0.00    +0.000 NA
ATOM     20  C   UNL     1      42.065  -7.067 166.316  0.00  0.00    +0.000 A 
ATOM     21  C   UNL     1      41.208  -6.396 167.191  0.00  0.00    +0.000 A 
ATOM     22  C   UNL     1      43.350  -7.300 166.796  0.00  0.00    +0.000 A 
ATOM     23  C   UNL     1      41.631  -5.997 168.454  0.00  0.00    +0.000 A 
ATOM     24  C   UNL     1      42.935  -6.288 168.812  0.00  0.00    +0.000 A 
ENDBRANCH   7  20
TORSDOF 1
ENDMDL
MODEL 5
REMARK VINA RESULT:      -6.7     21.726     26.750
REMARK  Name = JAK3_Inhibitor.pdbqt.pdb
REMARK  1 active torsions:
REMARK  status: ('A' for Active; 'I' for Inactive)
REMARK    1  A    between atoms: C_7  and  C_20
REMARK                            x       y       z     vdW  Elec       q    Type
REMARK                         _______ _______ _______ _____ _____    ______ ____
ROOT
ATOM      1  O   UNL     1      24.526   8.841 162.081  0.00  0.00    +0.000 OA
ATOM      2  N   UNL     1      23.267   8.487 164.024  0.00  0.00    +0.000 N 
ATOM      3  C   UNL     1      24.827   8.979 165.633  0.00  0.00    +0.000 A 
ATOM      4  C   UNL     1      23.510   8.578 165.395  0.00  0.00    +0.000 A 
ATOM      5  C   UNL     1      25.431   9.144 164.322  0.00  0.00    +0.000 C 
ATOM      6  C   UNL     1      25.301   9.138 166.920  0.00  0.00    +0.000 A 
ATOM      7  C   UNL     1      24.435   8.892 167.999  0.00  0.00    +0.000 A 
ATOM      8  C   UNL     1      24.400   8.819 163.290  0.00  0.00    +0.000 C 
ATOM      9  C   UNL     1      22.624   8.325 166.419  0.00  0.00    +0.000 A 
ATOM     10  C   UNL     1      26.644   9.506 164.046  0.00  0.00    +0.000 C 
ATOM     11  C   UNL     1      23.108   8.488 167.719  0.00  0.00    +0.000 A 
ATOM     12  H   UNL     1      22.392   8.218 163.596  0.00  0.00    +0.000 HD
ATOM     13  N   UNL     1      28.401  10.012 162.399  0.00  0.00    +0.000 N 
ATOM     14  C   UNL     1      27.959   9.898 163.692  0.00  0.00    +0.000 C 
ATOM     15  C   UNL     1      29.003  10.226 164.525  0.00  0.00    +0.000 C 
ATOM     16  C   UNL     1      29.712  10.408 162.399  0.00  0.00    +0.000 C 
ATOM     17  C   UNL     1      30.112  10.548 163.708  0.00  0.00    +0.000 C 
ATOM     18  H   UNL     1      27.843   9.832 161.575  0.00  0.00    +0.000 HD
ENDROOT
BRANCH   7  20
ATOM     19  N   UNL     1      24.408   8.980 171.771  0.00  0.00    +0.000 NA
ATOM     20  C   UNL     1      24.895   9.048 169.384  0.00  0.00    +0.000 A 
ATOM     21  C   UNL     1      26.209   9.404 169.695  0.00  0.00    +0.000 A 
ATOM     22  C   UNL     1      24.052   8.853 170.473  0.00  0.00    +0.000 A 
ATOM     23  C   UNL     1      26.627   9.547 171.013  0.00  0.00    +0.000 A 
ATOM     24  C   UNL     1      25.691   9.325 172.007  0.00  0.00    +0.000 A 
ENDBRANCH   7  20
TORSDOF 1
ENDMDL
MODEL 6
REMARK VINA RESULT:      -6.7     26.981     27.973
REMARK  Name = JAK3_Inhibitor.pdbqt.pdb
REMARK  1 active torsions:
REMARK  status: ('A' for Active; 'I' for Inactive)
REMARK    1  A    between atoms: C_7  and  C_20
REMARK                            x       y       z     vdW  Elec       q    Type
REMARK                         _______ _______ _______ _____ _____    ______ ____
ROOT
ATOM      1  O   UNL     1      13.294 -19.160 170.020  0.00  0.00    +0.000 OA
ATOM      2  N   UNL     1      12.638 -18.494 172.168  0.00  0.00    +0.000 N 
ATOM      3  C   UNL     1      14.335 -19.392 173.424  0.00  0.00    +0.000 A 
ATOM      4  C   UNL     1      13.149 -18.655 173.457  0.00  0.00    +0.000 A 
ATOM      5  C   UNL     1      14.566 -19.705 172.024  0.00  0.00    +0.000 C 
ATOM      6  C   UNL     1      15.025 -19.680 174.585  0.00  0.00    +0.000 A 
ATOM      7  C   UNL     1      14.518 -19.217 175.811  0.00  0.00    +0.000 A 
ATOM      8  C   UNL     1      13.451 -19.112 171.225  0.00  0.00    +0.000 C 
ATOM      9  C   UNL     1      12.612 -18.180 174.632  0.00  0.00    +0.000 A 
ATOM     10  C   UNL     1      15.548 -20.376 171.512  0.00  0.00    +0.000 C 
ATOM     11  C   UNL     1      13.314 -18.472 175.804  0.00  0.00    +0.000 A 
ATOM     12  H   UNL     1      11.792 -17.999 171.926  0.00  0.00    +0.000 HD
ATOM     13  N   UNL     1      16.696 -21.326 169.554  0.00  0.00    +0.000 N 
ATOM     14  C   UNL     1      16.602 -21.103 170.903  0.00  0.00    +0.000 C 
ATOM     15  C   UNL     1      17.685 -21.698 171.507  0.00  0.00    +0.000 C 
ATOM     16  C   UNL     1      17.824 -22.057 169.291  0.00  0.00    +0.000 C 
ATOM     17  C   UNL     1      18.458 -22.302 170.487  0.00  0.00    +0.000 C 
ATOM     18  H   UNL     1      16.034 -21.001 168.862  0.00  0.00    +0.000 HD
ENDROOT
BRANCH   7  20
ATOM     19  N   UNL     1      15.129 -19.863 179.478  0.00  0.00    +0.000 NA
ATOM     20  C   UNL     1      15.218 -19.499 177.069  0.00  0.00    +0.000 A 
ATOM     21  C   UNL     1      16.602 -19.678 177.126  0.00  0.00    +0.000 A 
ATOM     22  C   UNL     1      14.549 -19.606 178.284  0.00  0.00    +0.000 A 
ATOM     23  C   UNL     1      17.248 -19.945 178.328  0.00  0.00    +0.000 A 
ATOM     24  C   UNL     1      16.468 -20.026 179.468  0.00  0.00    +0.000 A 
ENDBRANCH   7  20
TORSDOF 1
ENDMDL
MODEL 7
REMARK VINA RESULT:      -6.6      3.644      8.312
REMARK  Name = JAK3_Inhibitor.pdbqt.pdb
REMARK  1 active torsions:
REMARK  status: ('A' for Active; 'I' for Inactive)
REMARK    1  A    between atoms: C_7  and  C_20
REMARK                            x       y       z     vdW  Elec       q    Type
REMARK                         _______ _______ _______ _____ _____    ______ ____
ROOT
ATOM      1  O   UNL     1      23.057   1.875 191.172  0.00  0.00    +0.000 OA
ATOM      2  N   UNL     1      23.319   1.480 193.465  0.00  0.00    +0.000 N 
ATOM      3  C   UNL     1      21.134   1.168 194.092  0.00  0.00    +0.000 A 
ATOM      4  C   UNL     1      22.460   1.207 194.530  0.00  0.00    +0.000 A 
ATOM      5  C   UNL     1      21.184   1.434 192.664  0.00  0.00    +0.000 C 
ATOM      6  C   UNL     1      20.101   0.916 194.972  0.00  0.00    +0.000 A 
ATOM      7  C   UNL     1      20.400   0.694 196.327  0.00  0.00    +0.000 A 
ATOM      8  C   UNL     1      22.614   1.633 192.278  0.00  0.00    +0.000 C 
ATOM      9  C   UNL     1      22.803   0.997 195.847  0.00  0.00    +0.000 A 
ATOM     10  C   UNL     1      20.192   1.498 191.833  0.00  0.00    +0.000 C 
ATOM     11  C   UNL     1      21.755   0.741 196.734  0.00  0.00    +0.000 A 
ATOM     12  H   UNL     1      24.324   1.558 193.523  0.00  0.00    +0.000 HD
ATOM     13  N   UNL     1      19.334   1.841 189.553  0.00  0.00    +0.000 N 
ATOM     14  C   UNL     1      19.142   1.578 190.884  0.00  0.00    +0.000 C 
ATOM     15  C   UNL     1      17.792   1.417 191.093  0.00  0.00    +0.000 C 
ATOM     16  C   UNL     1      18.124   1.849 188.911  0.00  0.00    +0.000 C 
ATOM     17  C   UNL     1      17.148   1.589 189.846  0.00  0.00    +0.000 C 
ATOM     18  H   UNL     1      20.231   2.003 189.114  0.00  0.00    +0.000 HD
ENDROOT
BRANCH   7  20
ATOM     19  N   UNL     1      18.664  -0.379 199.501  0.00  0.00    +0.000 NA
ATOM     20  C   UNL     1      19.334   0.421 197.298  0.00  0.00    +0.000 A 
ATOM     21  C   UNL     1      17.989   0.671 197.015  0.00  0.00    +0.000 A 
ATOM     22  C   UNL     1      19.595  -0.103 198.560  0.00  0.00    +0.000 A 
ATOM     23  C   UNL     1      16.993   0.406 197.948  0.00  0.00    +0.000 A 
ATOM     24  C   UNL     1      17.383  -0.115 199.169  0.00  0.00    +0.000 A 
ENDBRANCH   7  20
TORSDOF 1
ENDMDL
MODEL 8
REMARK VINA RESULT:      -6.3     21.465     22.330
REMARK  Name = JAK3_Inhibitor.pdbqt.pdb
REMARK  1 active torsions:
REMARK  status: ('A' for Active; 'I' for Inactive)
REMARK    1  A    between atoms: C_7  and  C_20
REMARK                            x       y       z     vdW  Elec       q    Type
REMARK                         _______ _______ _______ _____ _____    ______ ____
ROOT
ATOM      1  O   UNL     1      10.772 -14.228 182.727  0.00  0.00    +0.000 OA
ATOM      2  N   UNL     1      11.539 -16.437 182.598  0.00  0.00    +0.000 N 
ATOM      3  C   UNL     1      12.829 -16.325 180.704  0.00  0.00    +0.000 A 
ATOM      4  C   UNL     1      12.365 -17.152 181.729  0.00  0.00    +0.000 A 
ATOM      5  C   UNL     1      12.250 -15.017 180.959  0.00  0.00    +0.000 C 
ATOM      6  C   UNL     1      13.665 -16.814 179.720  0.00  0.00    +0.000 A 
ATOM      7  C   UNL     1      14.050 -18.165 179.762  0.00  0.00    +0.000 A 
ATOM      8  C   UNL     1      11.414 -15.112 182.195  0.00  0.00    +0.000 C 
ATOM      9  C   UNL     1      12.713 -18.482 181.814  0.00  0.00    +0.000 A 
ATOM     10  C   UNL     1      12.400 -13.933 180.267  0.00  0.00    +0.000 C 
ATOM     11  C   UNL     1      13.560 -18.971 180.817  0.00  0.00    +0.000 A 
ATOM     12  H   UNL     1      11.081 -16.809 183.417  0.00  0.00    +0.000 HD
ATOM     13  N   UNL     1      11.921 -11.547 179.902  0.00  0.00    +0.000 N 
ATOM     14  C   UNL     1      12.533 -12.720 179.545  0.00  0.00    +0.000 C 
ATOM     15  C   UNL     1      13.262 -12.486 178.402  0.00  0.00    +0.000 C 
ATOM     16  C   UNL     1      12.251 -10.569 179.002  0.00  0.00    +0.000 C 
ATOM     17  C   UNL     1      13.083 -11.126 178.058  0.00  0.00    +0.000 C 
ATOM     18  H   UNL     1      11.320 -11.425 180.706  0.00  0.00    +0.000 HD
ENDROOT
BRANCH   7  20
ATOM     19  N   UNL     1      15.367 -19.239 176.394  0.00  0.00    +0.000 NA
ATOM     20  C   UNL     1      14.937 -18.727 178.738  0.00  0.00    +0.000 A 
ATOM     21  C   UNL     1      16.178 -19.285 179.054  0.00  0.00    +0.000 A 
ATOM     22  C   UNL     1      14.600 -18.739 177.388  0.00  0.00    +0.000 A 
ATOM     23  C   UNL     1      17.005 -19.812 178.069  0.00  0.00    +0.000 A 
ATOM     24  C   UNL     1      16.555 -19.764 176.763  0.00  0.00    +0.000 A 
ENDBRANCH   7  20
TORSDOF 1
ENDMDL
MODEL 9
REMARK VINA RESULT:      -6.3     21.564     26.397
REMARK  Name = JAK3_Inhibitor.pdbqt.pdb
REMARK  1 active torsions:
REMARK  status: ('A' for Active; 'I' for Inactive)
REMARK    1  A    between atoms: C_7  and  C_20
REMARK                            x       y       z     vdW  Elec       q    Type
REMARK                         _______ _______ _______ _____ _____    ______ ____
ROOT
ATOM      1  O   UNL     1      22.359   8.308 167.551  0.00  0.00    +0.000 OA
ATOM      2  N   UNL     1      23.331   8.590 165.439  0.00  0.00    +0.000 N 
ATOM      3  C   UNL     1      25.441   9.268 166.032  0.00  0.00    +0.000 A 
ATOM      4  C   UNL     1      24.584   8.983 164.967  0.00  0.00    +0.000 A 
ATOM      5  C   UNL     1      24.662   9.036 167.237  0.00  0.00    +0.000 C 
ATOM      6  C   UNL     1      26.740   9.679 165.811  0.00  0.00    +0.000 A 
ATOM      7  C   UNL     1      27.197   9.807 164.487  0.00  0.00    +0.000 A 
ATOM      8  C   UNL     1      23.293   8.596 166.828  0.00  0.00    +0.000 C 
ATOM      9  C   UNL     1      24.985   9.093 163.654  0.00  0.00    +0.000 A 
ATOM     10  C   UNL     1      25.042   9.173 168.468  0.00  0.00    +0.000 C 
ATOM     11  C   UNL     1      26.300   9.508 163.434  0.00  0.00    +0.000 A 
ATOM     12  H   UNL     1      22.540   8.331 164.867  0.00  0.00    +0.000 HD
ATOM     13  N   UNL     1      24.563   9.054 170.878  0.00  0.00    +0.000 N 
ATOM     14  C   UNL     1      25.410   9.307 169.830  0.00  0.00    +0.000 C 
ATOM     15  C   UNL     1      26.622   9.697 170.350  0.00  0.00    +0.000 C 
ATOM     16  C   UNL     1      25.221   9.278 172.059  0.00  0.00    +0.000 C 
ATOM     17  C   UNL     1      26.502   9.679 171.760  0.00  0.00    +0.000 C 
ATOM     18  H   UNL     1      23.603   8.748 170.791  0.00  0.00    +0.000 HD
ENDROOT
BRANCH   7  20
ATOM     19  N   UNL     1      30.841   9.680 163.519  0.00  0.00    +0.000 NA
ATOM     20  C   UNL     1      28.570  10.240 164.204  0.00  0.00    +0.000 A 
ATOM     21  C   UNL     1      28.969  11.573 164.326  0.00  0.00    +0.000 A 
ATOM     22  C   UNL     1      29.560   9.352 163.796  0.00  0.00    +0.000 A 
ATOM     23  C   UNL     1      30.275  11.964 164.053  0.00  0.00    +0.000 A 
ATOM     24  C   UNL     1      31.166  10.983 163.655  0.00  0.00    +0.000 A 
ENDBRANCH   7  20
TORSDOF 1
ENDMDL
