MODEL 1
REMARK VINA RESULT:      -7.7      0.000      0.000
REMARK  Name = Leptomycin.pdbqt.pdb
REMARK  12 active torsions:
REMARK  status: ('A' for Active; 'I' for Inactive)
REMARK    1  A    between atoms: C_2  and  C_4
REMARK    2  A    between atoms: C_5  and  C_6
REMARK    3  A    between atoms: C_6  and  C_7
REMARK    4  A    between atoms: C_10  and  C_11
REMARK    5  A    between atoms: C_10  and  C_21
REMARK    6  A    between atoms: C_12  and  C_13
REMARK    7  A    between atoms: C_23  and  C_25
REMARK    8  A    between atoms: C_25  and  C_27
REMARK    9  A    between atoms: C_27  and  C_29
REMARK   10  A    between atoms: C_29  and  O_30
REMARK   11  A    between atoms: C_29  and  C_32
REMARK   12  A    between atoms: C_38  and  O_40
REMARK                            x       y       z     vdW  Elec       q    Type
REMARK                         _______ _______ _______ _____ _____    ______ ____
ROOT
ATOM      1  C   UNL     1      27.878   0.152 193.023  0.00  0.00    +0.000 C 
ATOM      2  C   UNL     1      26.970  -0.265 192.201  0.00  0.00    +0.000 C 
ATOM      3  C   UNL     1      26.332  -1.601 192.448  0.00  0.00    +0.000 C 
ATOM      4  C   UNL     1      28.841   0.680 193.919  0.00  0.00    +0.000 C 
ATOM      5  C   UNL     1      30.257   0.160 193.726  0.00  0.00    +0.000 C 
ENDROOT
BRANCH   2   6
ATOM      6  C   UNL     1      26.267   0.687 191.421  0.00  0.00    +0.000 C 
ATOM      7  C   UNL     1      25.727   1.528 190.755  0.00  0.00    +0.000 C 
BRANCH   7   8
ATOM      8  C   UNL     1      25.147   2.662 189.904  0.00  0.00    +0.000 C 
BRANCH   8   9
ATOM      9  C   UNL     1      24.432   3.624 189.150  0.00  0.00    +0.000 C 
ATOM     10  C   UNL     1      25.166   4.492 188.175  0.00  0.00    +0.000 C 
ATOM     11  C   UNL     1      23.054   3.860 189.379  0.00  0.00    +0.000 C 
ATOM     12  C   UNL     1      21.809   3.946 189.736  0.00  0.00    +0.000 C 
BRANCH  12  13
ATOM     13  C   UNL     1      21.432   3.147 190.848  0.00  0.00    +0.000 C 
ATOM     14  C   UNL     1      20.985   2.516 191.767  0.00  0.00    +0.000 C 
BRANCH  14  15
ATOM     15  C   UNL     1      20.333   1.816 192.814  0.00  0.00    +0.000 A 
ATOM     16  O   UNL     1      21.009   1.802 194.108  0.00  0.00    +0.000 OA
ATOM     17  C   UNL     1      20.458   1.179 195.225  0.00  0.00    +0.000 A 
ATOM     18  O   UNL     1      20.965   1.169 196.336  0.00  0.00    +0.000 OA
ATOM     19  C   UNL     1      19.200   0.562 194.922  0.00  0.00    +0.000 A 
ATOM     20  C   UNL     1      18.611   0.541 193.884  0.00  0.00    +0.000 A 
ATOM     21  C   UNL     1      19.039   1.137 192.677  0.00  0.00    +0.000 A 
ATOM     22  C   UNL     1      18.191   1.085 191.446  0.00  0.00    +0.000 C 
ENDBRANCH  14  15
ENDBRANCH  12  13
BRANCH  12  23
ATOM     23  C   UNL     1      20.945   4.818 189.029  0.00  0.00    +0.000 C 
ATOM     24  C   UNL     1      20.003   5.759 188.267  0.00  0.00    +0.000 C 
ENDBRANCH  12  23
ENDBRANCH   8   9
ENDBRANCH   7   8
ENDBRANCH   2   6
BRANCH   4  25
ATOM     25  C   UNL     1      28.587   2.009 194.557  0.00  0.00    +0.000 C 
ATOM     26  O   UNL     1      29.429   2.913 194.556  0.00  0.00    +0.000 OA
BRANCH  25  27
ATOM     27  C   UNL     1      27.280   2.187 195.258  0.00  0.00    +0.000 C 
ATOM     28  C   UNL     1      26.936   1.296 196.449  0.00  0.00    +0.000 C 
BRANCH  27  29
ATOM     29  C   UNL     1      26.249   2.996 194.616  0.00  0.00    +0.000 C 
BRANCH  29  30
ATOM     30  C   UNL     1      24.912   2.602 194.208  0.00  0.00    +0.000 C 
ATOM     31  C   UNL     1      24.026   3.570 193.454  0.00  0.00    +0.000 C 
ATOM     32  C   UNL     1      24.417   1.281 194.313  0.00  0.00    +0.000 C 
ATOM     33  C   UNL     1      23.861  -0.012 194.405  0.00  0.00    +0.000 C 
ATOM     34  C   UNL     1      24.112  -0.819 195.641  0.00  0.00    +0.000 C 
ATOM     35  C   UNL     1      23.251  -0.531 193.396  0.00  0.00    +0.000 C 
ATOM     36  C   UNL     1      22.595  -1.091 192.265  0.00  0.00    +0.000 C 
ATOM     37  O   UNL     1      23.152  -1.262 191.196  0.00  0.00    +0.000 OA
BRANCH  36  38
ATOM     38  O   UNL     1      21.305  -1.394 192.473  0.00  0.00    +0.000 OA
ATOM     39  H   UNL     1      21.295  -1.836 193.347  0.00  0.00    +0.000 HD
ENDBRANCH  36  38
ENDBRANCH  29  30
BRANCH  29  40
ATOM     40  O   UNL     1      26.578   4.336 194.400  0.00  0.00    +0.000 OA
ATOM     41  H   UNL     1      26.042   4.939 194.956  0.00  0.00    +0.000 HD
ENDBRANCH  29  40
ENDBRANCH  27  29
ENDBRANCH  25  27
ENDBRANCH   4  25
TORSDOF 12
ENDMDL
MODEL 2
REMARK VINA RESULT:      -7.6      2.219      4.111
REMARK  Name = Leptomycin.pdbqt.pdb
REMARK  12 active torsions:
REMARK  status: ('A' for Active; 'I' for Inactive)
REMARK    1  A    between atoms: C_2  and  C_4
REMARK    2  A    between atoms: C_5  and  C_6
REMARK    3  A    between atoms: C_6  and  C_7
REMARK    4  A    between atoms: C_10  and  C_11
REMARK    5  A    between atoms: C_10  and  C_21
REMARK    6  A    between atoms: C_12  and  C_13
REMARK    7  A    between atoms: C_23  and  C_25
REMARK    8  A    between atoms: C_25  and  C_27
REMARK    9  A    between atoms: C_27  and  C_29
REMARK   10  A    between atoms: C_29  and  O_30
REMARK   11  A    between atoms: C_29  and  C_32
REMARK   12  A    between atoms: C_38  and  O_40
REMARK                            x       y       z     vdW  Elec       q    Type
REMARK                         _______ _______ _______ _____ _____    ______ ____
ROOT
ATOM      1  C   UNL     1      26.265   2.553 194.579  0.00  0.00    +0.000 C 
ATOM      2  C   UNL     1      26.674   3.131 193.496  0.00  0.00    +0.000 C 
ATOM      3  C   UNL     1      28.148   3.179 193.218  0.00  0.00    +0.000 C 
ATOM      4  C   UNL     1      25.758   1.888 195.724  0.00  0.00    +0.000 C 
ATOM      5  C   UNL     1      25.802   2.696 197.012  0.00  0.00    +0.000 C 
ENDROOT
BRANCH   2   6
ATOM      6  C   UNL     1      25.775   3.256 192.408  0.00  0.00    +0.000 C 
ATOM      7  C   UNL     1      25.053   3.406 191.459  0.00  0.00    +0.000 C 
BRANCH   7   8
ATOM      8  C   UNL     1      24.215   3.683 190.208  0.00  0.00    +0.000 C 
BRANCH   8   9
ATOM      9  C   UNL     1      23.585   4.071 189.000  0.00  0.00    +0.000 C 
ATOM     10  C   UNL     1      24.129   5.227 188.221  0.00  0.00    +0.000 C 
ATOM     11  C   UNL     1      22.383   3.456 188.570  0.00  0.00    +0.000 C 
ATOM     12  C   UNL     1      21.289   2.795 188.346  0.00  0.00    +0.000 C 
BRANCH  12  13
ATOM     13  C   UNL     1      20.892   1.897 189.373  0.00  0.00    +0.000 C 
ATOM     14  C   UNL     1      20.545   1.249 190.323  0.00  0.00    +0.000 C 
BRANCH  14  15
ATOM     15  C   UNL     1      20.117   0.604 191.512  0.00  0.00    +0.000 A 
ATOM     16  O   UNL     1      20.914  -0.536 191.955  0.00  0.00    +0.000 OA
ATOM     17  C   UNL     1      20.621  -1.235 193.123  0.00  0.00    +0.000 A 
ATOM     18  O   UNL     1      21.275  -2.171 193.557  0.00  0.00    +0.000 OA
ATOM     19  C   UNL     1      19.461  -0.707 193.780  0.00  0.00    +0.000 A 
ATOM     20  C   UNL     1      18.775   0.214 193.456  0.00  0.00    +0.000 A 
ATOM     21  C   UNL     1      18.958   1.020 192.310  0.00  0.00    +0.000 A 
ATOM     22  C   UNL     1      18.059   2.182 192.030  0.00  0.00    +0.000 C 
ENDBRANCH  14  15
ENDBRANCH  12  13
BRANCH  12  23
ATOM     23  C   UNL     1      20.577   3.020 187.142  0.00  0.00    +0.000 C 
ATOM     24  C   UNL     1      19.803   3.258 185.840  0.00  0.00    +0.000 C 
ENDBRANCH  12  23
ENDBRANCH   8   9
ENDBRANCH   7   8
ENDBRANCH   2   6
BRANCH   4  25
ATOM     25  C   UNL     1      24.771   0.779 195.542  0.00  0.00    +0.000 C 
ATOM     26  O   UNL     1      24.569  -0.074 196.413  0.00  0.00    +0.000 OA
BRANCH  25  27
ATOM     27  C   UNL     1      24.071   0.702 194.224  0.00  0.00    +0.000 C 
ATOM     28  C   UNL     1      22.847   1.578 193.969  0.00  0.00    +0.000 C 
BRANCH  27  29
ATOM     29  C   UNL     1      24.387  -0.407 193.330  0.00  0.00    +0.000 C 
BRANCH  29  30
ATOM     30  C   UNL     1      24.873  -0.357 191.962  0.00  0.00    +0.000 C 
ATOM     31  C   UNL     1      23.901  -0.398 190.803  0.00  0.00    +0.000 C 
ATOM     32  C   UNL     1      26.219  -0.091 191.617  0.00  0.00    +0.000 C 
ATOM     33  C   UNL     1      27.546   0.154 191.209  0.00  0.00    +0.000 C 
ATOM     34  C   UNL     1      28.664  -0.496 191.964  0.00  0.00    +0.000 C 
ATOM     35  C   UNL     1      27.794   1.013 190.281  0.00  0.00    +0.000 C 
ATOM     36  C   UNL     1      28.046   1.977 189.266  0.00  0.00    +0.000 C 
ATOM     37  O   UNL     1      27.721   3.146 189.370  0.00  0.00    +0.000 OA
BRANCH  36  38
ATOM     38  O   UNL     1      28.653   1.481 188.178  0.00  0.00    +0.000 OA
ATOM     39  H   UNL     1      29.603   1.668 188.320  0.00  0.00    +0.000 HD
ENDBRANCH  36  38
ENDBRANCH  29  30
BRANCH  29  40
ATOM     40  O   UNL     1      24.237  -1.685 193.873  0.00  0.00    +0.000 OA
ATOM     41  H   UNL     1      23.305  -1.984 193.855  0.00  0.00    +0.000 HD
ENDBRANCH  29  40
ENDBRANCH  27  29
ENDBRANCH  25  27
ENDBRANCH   4  25
TORSDOF 12
ENDMDL
MODEL 3
REMARK VINA RESULT:      -7.2      2.473      3.974
REMARK  Name = Leptomycin.pdbqt.pdb
REMARK  12 active torsions:
REMARK  status: ('A' for Active; 'I' for Inactive)
REMARK    1  A    between atoms: C_2  and  C_4
REMARK    2  A    between atoms: C_5  and  C_6
REMARK    3  A    between atoms: C_6  and  C_7
REMARK    4  A    between atoms: C_10  and  C_11
REMARK    5  A    between atoms: C_10  and  C_21
REMARK    6  A    between atoms: C_12  and  C_13
REMARK    7  A    between atoms: C_23  and  C_25
REMARK    8  A    between atoms: C_25  and  C_27
REMARK    9  A    between atoms: C_27  and  C_29
REMARK   10  A    between atoms: C_29  and  O_30
REMARK   11  A    between atoms: C_29  and  C_32
REMARK   12  A    between atoms: C_38  and  O_40
REMARK                            x       y       z     vdW  Elec       q    Type
REMARK                         _______ _______ _______ _____ _____    ______ ____
ROOT
ATOM      1  C   UNL     1      27.166   0.468 192.516  0.00  0.00    +0.000 C 
ATOM      2  C   UNL     1      26.436  -0.519 192.109  0.00  0.00    +0.000 C 
ATOM      3  C   UNL     1      26.326  -1.739 192.977  0.00  0.00    +0.000 C 
ATOM      4  C   UNL     1      27.912   1.599 192.935  0.00  0.00    +0.000 C 
ATOM      5  C   UNL     1      29.411   1.507 192.702  0.00  0.00    +0.000 C 
ENDROOT
BRANCH   2   6
ATOM      6  C   UNL     1      25.412  -0.266 191.163  0.00  0.00    +0.000 C 
ATOM      7  C   UNL     1      24.541   0.010 190.383  0.00  0.00    +0.000 C 
BRANCH   7   8
ATOM      8  C   UNL     1      23.432   0.478 189.437  0.00  0.00    +0.000 C 
BRANCH   8   9
ATOM      9  C   UNL     1      22.377   1.061 188.693  0.00  0.00    +0.000 C 
ATOM     10  C   UNL     1      22.646   1.585 187.316  0.00  0.00    +0.000 C 
ATOM     11  C   UNL     1      21.097   1.259 189.266  0.00  0.00    +0.000 C 
ATOM     12  C   UNL     1      20.004   1.373 189.957  0.00  0.00    +0.000 C 
BRANCH  12  13
ATOM     13  C   UNL     1      20.098   0.987 191.321  0.00  0.00    +0.000 C 
ATOM     14  C   UNL     1      20.150   0.793 192.505  0.00  0.00    +0.000 C 
BRANCH  14  15
ATOM     15  C   UNL     1      20.177   0.695 193.920  0.00  0.00    +0.000 A 
ATOM     16  O   UNL     1      18.902   0.875 194.608  0.00  0.00    +0.000 OA
ATOM     17  C   UNL     1      18.786   0.770 195.992  0.00  0.00    +0.000 A 
ATOM     18  O   UNL     1      17.740   0.876 196.612  0.00  0.00    +0.000 OA
ATOM     19  C   UNL     1      20.050   0.498 196.611  0.00  0.00    +0.000 A 
ATOM     20  C   UNL     1      21.116   0.349 196.096  0.00  0.00    +0.000 A 
ATOM     21  C   UNL     1      21.382   0.414 194.709  0.00  0.00    +0.000 A 
ATOM     22  C   UNL     1      22.755   0.163 194.173  0.00  0.00    +0.000 C 
ENDBRANCH  14  15
ENDBRANCH  12  13
BRANCH  12  23
ATOM     23  C   UNL     1      18.837   1.877 189.331  0.00  0.00    +0.000 C 
ATOM     24  C   UNL     1      17.571   2.417 188.657  0.00  0.00    +0.000 C 
ENDBRANCH  12  23
ENDBRANCH   8   9
ENDBRANCH   7   8
ENDBRANCH   2   6
BRANCH   4  25
ATOM     25  C   UNL     1      27.225   2.925 193.032  0.00  0.00    +0.000 C 
ATOM     26  O   UNL     1      27.713   3.957 192.561  0.00  0.00    +0.000 OA
BRANCH  25  27
ATOM     27  C   UNL     1      25.935   2.967 193.785  0.00  0.00    +0.000 C 
ATOM     28  C   UNL     1      25.715   2.015 194.958  0.00  0.00    +0.000 C 
BRANCH  27  29
ATOM     29  C   UNL     1      24.814   3.701 193.206  0.00  0.00    +0.000 C 
BRANCH  29  30
ATOM     30  C   UNL     1      24.166   3.500 191.923  0.00  0.00    +0.000 C 
ATOM     31  C   UNL     1      22.659   3.381 191.838  0.00  0.00    +0.000 C 
ATOM     32  C   UNL     1      24.839   3.579 190.682  0.00  0.00    +0.000 C 
ATOM     33  C   UNL     1      25.456   3.631 189.415  0.00  0.00    +0.000 C 
ATOM     34  C   UNL     1      26.801   2.995 189.241  0.00  0.00    +0.000 C 
ATOM     35  C   UNL     1      24.925   4.314 188.460  0.00  0.00    +0.000 C 
ATOM     36  C   UNL     1      24.331   5.087 187.425  0.00  0.00    +0.000 C 
ATOM     37  O   UNL     1      24.133   6.283 187.524  0.00  0.00    +0.000 OA
BRANCH  36  38
ATOM     38  O   UNL     1      23.988   4.377 186.339  0.00  0.00    +0.000 OA
ATOM     39  H   UNL     1      23.054   4.126 186.494  0.00  0.00    +0.000 HD
ENDBRANCH  36  38
ENDBRANCH  29  30
BRANCH  29  40
ATOM     40  O   UNL     1      24.270   4.706 194.010  0.00  0.00    +0.000 OA
ATOM     41  H   UNL     1      23.337   4.895 193.778  0.00  0.00    +0.000 HD
ENDBRANCH  29  40
ENDBRANCH  27  29
ENDBRANCH  25  27
ENDBRANCH   4  25
TORSDOF 12
ENDMDL
MODEL 4
REMARK VINA RESULT:      -6.5      2.391      4.329
REMARK  Name = Leptomycin.pdbqt.pdb
REMARK  12 active torsions:
REMARK  status: ('A' for Active; 'I' for Inactive)
REMARK    1  A    between atoms: C_2  and  C_4
REMARK    2  A    between atoms: C_5  and  C_6
REMARK    3  A    between atoms: C_6  and  C_7
REMARK    4  A    between atoms: C_10  and  C_11
REMARK    5  A    between atoms: C_10  and  C_21
REMARK    6  A    between atoms: C_12  and  C_13
REMARK    7  A    between atoms: C_23  and  C_25
REMARK    8  A    between atoms: C_25  and  C_27
REMARK    9  A    between atoms: C_27  and  C_29
REMARK   10  A    between atoms: C_29  and  O_30
REMARK   11  A    between atoms: C_29  and  C_32
REMARK   12  A    between atoms: C_38  and  O_40
REMARK                            x       y       z     vdW  Elec       q    Type
REMARK                         _______ _______ _______ _____ _____    ______ ____
ROOT
ATOM      1  C   UNL     1      28.035  -0.487 192.976  0.00  0.00    +0.000 C 
ATOM      2  C   UNL     1      27.071  -1.343 192.880  0.00  0.00    +0.000 C 
ATOM      3  C   UNL     1      26.972  -2.435 193.905  0.00  0.00    +0.000 C 
ATOM      4  C   UNL     1      29.041   0.508 193.060  0.00  0.00    +0.000 C 
ATOM      5  C   UNL     1      30.399   0.103 192.510  0.00  0.00    +0.000 C 
ENDROOT
BRANCH   2   6
ATOM      6  C   UNL     1      25.903  -0.979 192.165  0.00  0.00    +0.000 C 
ATOM      7  C   UNL     1      24.908  -0.618 191.597  0.00  0.00    +0.000 C 
BRANCH   7   8
ATOM      8  C   UNL     1      23.635  -0.060 190.953  0.00  0.00    +0.000 C 
BRANCH   8   9
ATOM      9  C   UNL     1      22.458   0.590 190.508  0.00  0.00    +0.000 C 
ATOM     10  C   UNL     1      22.422   1.195 189.139  0.00  0.00    +0.000 C 
ATOM     11  C   UNL     1      21.351   0.777 191.371  0.00  0.00    +0.000 C 
ATOM     12  C   UNL     1      20.450   0.869 192.302  0.00  0.00    +0.000 C 
BRANCH  12  13
ATOM     13  C   UNL     1      20.841   0.395 193.583  0.00  0.00    +0.000 C 
ATOM     14  C   UNL     1      21.297  -0.019 194.614  0.00  0.00    +0.000 C 
BRANCH  14  15
ATOM     15  C   UNL     1      21.959  -0.508 195.769  0.00  0.00    +0.000 A 
ATOM     16  O   UNL     1      23.053  -1.447 195.543  0.00  0.00    +0.000 OA
ATOM     17  C   UNL     1      23.805  -1.975 196.589  0.00  0.00    +0.000 A 
ATOM     18  O   UNL     1      24.752  -2.734 196.452  0.00  0.00    +0.000 OA
ATOM     19  C   UNL     1      23.350  -1.499 197.862  0.00  0.00    +0.000 A 
ATOM     20  C   UNL     1      22.460  -0.739 198.099  0.00  0.00    +0.000 A 
ATOM     21  C   UNL     1      21.625  -0.118 197.144  0.00  0.00    +0.000 A 
ATOM     22  C   UNL     1      20.569   0.857 197.557  0.00  0.00    +0.000 C 
ENDBRANCH  14  15
ENDBRANCH  12  13
BRANCH  12  23
ATOM     23  C   UNL     1      19.189   1.435 191.992  0.00  0.00    +0.000 C 
ATOM     24  C   UNL     1      17.823   2.043 191.652  0.00  0.00    +0.000 C 
ENDBRANCH  12  23
ENDBRANCH   8   9
ENDBRANCH   7   8
ENDBRANCH   2   6
BRANCH   4  25
ATOM     25  C   UNL     1      28.636   1.946 193.133  0.00  0.00    +0.000 C 
ATOM     26  O   UNL     1      29.205   2.827 192.479  0.00  0.00    +0.000 OA
BRANCH  25  27
ATOM     27  C   UNL     1      27.537   2.295 194.084  0.00  0.00    +0.000 C 
ATOM     28  C   UNL     1      27.361   1.481 195.363  0.00  0.00    +0.000 C 
BRANCH  27  29
ATOM     29  C   UNL     1      26.487   3.204 193.634  0.00  0.00    +0.000 C 
BRANCH  29  30
ATOM     30  C   UNL     1      25.516   3.010 192.572  0.00  0.00    +0.000 C 
ATOM     31  C   UNL     1      24.034   3.091 192.868  0.00  0.00    +0.000 C 
ATOM     32  C   UNL     1      25.857   2.918 191.203  0.00  0.00    +0.000 C 
ATOM     33  C   UNL     1      26.135   2.804 189.825  0.00  0.00    +0.000 C 
ATOM     34  C   UNL     1      27.310   1.982 189.391  0.00  0.00    +0.000 C 
ATOM     35  C   UNL     1      25.462   3.490 188.967  0.00  0.00    +0.000 C 
ATOM     36  C   UNL     1      24.718   4.269 188.038  0.00  0.00    +0.000 C 
ATOM     37  O   UNL     1      24.691   5.485 188.067  0.00  0.00    +0.000 OA
BRANCH  36  38
ATOM     38  O   UNL     1      24.032   3.544 187.141  0.00  0.00    +0.000 OA
ATOM     39  H   UNL     1      23.145   3.432 187.542  0.00  0.00    +0.000 HD
ENDBRANCH  36  38
ENDBRANCH  29  30
BRANCH  29  40
ATOM     40  O   UNL     1      26.379   4.402 194.344  0.00  0.00    +0.000 OA
ATOM     41  H   UNL     1      25.702   4.996 193.958  0.00  0.00    +0.000 HD
ENDBRANCH  29  40
ENDBRANCH  27  29
ENDBRANCH  25  27
ENDBRANCH   4  25
TORSDOF 12
ENDMDL
MODEL 5
REMARK VINA RESULT:      -5.8      2.891      4.771
REMARK  Name = Leptomycin.pdbqt.pdb
REMARK  12 active torsions:
REMARK  status: ('A' for Active; 'I' for Inactive)
REMARK    1  A    between atoms: C_2  and  C_4
REMARK    2  A    between atoms: C_5  and  C_6
REMARK    3  A    between atoms: C_6  and  C_7
REMARK    4  A    between atoms: C_10  and  C_11
REMARK    5  A    between atoms: C_10  and  C_21
REMARK    6  A    between atoms: C_12  and  C_13
REMARK    7  A    between atoms: C_23  and  C_25
REMARK    8  A    between atoms: C_25  and  C_27
REMARK    9  A    between atoms: C_27  and  C_29
REMARK   10  A    between atoms: C_29  and  O_30
REMARK   11  A    between atoms: C_29  and  C_32
REMARK   12  A    between atoms: C_38  and  O_40
REMARK                            x       y       z     vdW  Elec       q    Type
REMARK                         _______ _______ _______ _____ _____    ______ ____
ROOT
ATOM      1  C   UNL     1      29.198   1.768 191.733  0.00  0.00    +0.000 C 
ATOM      2  C   UNL     1      29.214   2.168 190.503  0.00  0.00    +0.000 C 
ATOM      3  C   UNL     1      30.235   1.587 189.568  0.00  0.00    +0.000 C 
ATOM      4  C   UNL     1      29.103   1.330 193.078  0.00  0.00    +0.000 C 
ATOM      5  C   UNL     1      30.095   1.969 194.037  0.00  0.00    +0.000 C 
ENDROOT
BRANCH   2   6
ATOM      6  C   UNL     1      28.034   2.728 189.952  0.00  0.00    +0.000 C 
ATOM      7  C   UNL     1      27.071   3.235 189.443  0.00  0.00    +0.000 C 
BRANCH   7   8
ATOM      8  C   UNL     1      25.923   3.942 188.716  0.00  0.00    +0.000 C 
BRANCH   8   9
ATOM      9  C   UNL     1      24.780   4.619 188.226  0.00  0.00    +0.000 C 
ATOM     10  C   UNL     1      24.940   5.673 187.174  0.00  0.00    +0.000 C 
ATOM     11  C   UNL     1      23.499   4.400 188.790  0.00  0.00    +0.000 C 
ATOM     12  C   UNL     1      22.419   4.083 189.435  0.00  0.00    +0.000 C 
BRANCH  12  13
ATOM     13  C   UNL     1      22.598   3.210 190.542  0.00  0.00    +0.000 C 
ATOM     14  C   UNL     1      22.686   2.377 191.402  0.00  0.00    +0.000 C 
BRANCH  14  15
ATOM     15  C   UNL     1      22.732   1.303 192.329  0.00  0.00    +0.000 A 
ATOM     16  O   UNL     1      21.969   0.110 191.981  0.00  0.00    +0.000 OA
ATOM     17  C   UNL     1      21.958  -1.025 192.788  0.00  0.00    +0.000 A 
ATOM     18  O   UNL     1      21.366  -2.060 192.525  0.00  0.00    +0.000 OA
ATOM     19  C   UNL     1      22.752  -0.844 193.968  0.00  0.00    +0.000 A 
ATOM     20  C   UNL     1      23.387   0.111 194.300  0.00  0.00    +0.000 A 
ATOM     21  C   UNL     1      23.501   1.321 193.579  0.00  0.00    +0.000 A 
ATOM     22  C   UNL     1      24.367   2.435 194.073  0.00  0.00    +0.000 C 
ENDBRANCH  14  15
ENDBRANCH  12  13
BRANCH  12  23
ATOM     23  C   UNL     1      21.178   4.627 189.020  0.00  0.00    +0.000 C 
ATOM     24  C   UNL     1      19.834   5.209 188.568  0.00  0.00    +0.000 C 
ENDBRANCH  12  23
ENDBRANCH   8   9
ENDBRANCH   7   8
ENDBRANCH   2   6
BRANCH   4  25
ATOM     25  C   UNL     1      27.806   0.769 193.568  0.00  0.00    +0.000 C 
ATOM     26  O   UNL     1      27.297   1.120 194.638  0.00  0.00    +0.000 OA
BRANCH  25  27
ATOM     27  C   UNL     1      27.166  -0.292 192.733  0.00  0.00    +0.000 C 
ATOM     28  C   UNL     1      26.241   0.107 191.586  0.00  0.00    +0.000 C 
BRANCH  27  29
ATOM     29  C   UNL     1      27.201  -1.671 193.210  0.00  0.00    +0.000 C 
BRANCH  29  30
ATOM     30  C   UNL     1      28.102  -2.271 194.178  0.00  0.00    +0.000 C 
ATOM     31  C   UNL     1      29.597  -2.068 194.060  0.00  0.00    +0.000 C 
ATOM     32  C   UNL     1      27.668  -2.913 195.362  0.00  0.00    +0.000 C 
ATOM     33  C   UNL     1      27.299  -3.577 196.550  0.00  0.00    +0.000 C 
ATOM     34  C   UNL     1      26.129  -4.512 196.519  0.00  0.00    +0.000 C 
ATOM     35  C   UNL     1      27.882  -3.292 197.663  0.00  0.00    +0.000 C 
ATOM     36  C   UNL     1      28.528  -2.951 198.883  0.00  0.00    +0.000 C 
ATOM     37  O   UNL     1      28.510  -1.827 199.349  0.00  0.00    +0.000 OA
BRANCH  36  38
ATOM     38  O   UNL     1      29.177  -3.973 199.463  0.00  0.00    +0.000 OA
ATOM     39  H   UNL     1      28.495  -4.668 199.568  0.00  0.00    +0.000 HD
ENDBRANCH  36  38
ENDBRANCH  29  30
BRANCH  29  40
ATOM     40  O   UNL     1      26.214  -2.515 192.696  0.00  0.00    +0.000 OA
ATOM     41  H   UNL     1      25.622  -2.048 192.071  0.00  0.00    +0.000 HD
ENDBRANCH  29  40
ENDBRANCH  27  29
ENDBRANCH  25  27
ENDBRANCH   4  25
TORSDOF 12
ENDMDL
MODEL 6
REMARK VINA RESULT:      -5.5     23.368     28.335
REMARK  Name = Leptomycin.pdbqt.pdb
REMARK  12 active torsions:
REMARK  status: ('A' for Active; 'I' for Inactive)
REMARK    1  A    between atoms: C_2  and  C_4
REMARK    2  A    between atoms: C_5  and  C_6
REMARK    3  A    between atoms: C_6  and  C_7
REMARK    4  A    between atoms: C_10  and  C_11
REMARK    5  A    between atoms: C_10  and  C_21
REMARK    6  A    between atoms: C_12  and  C_13
REMARK    7  A    between atoms: C_23  and  C_25
REMARK    8  A    between atoms: C_25  and  C_27
REMARK    9  A    between atoms: C_27  and  C_29
REMARK   10  A    between atoms: C_29  and  O_30
REMARK   11  A    between atoms: C_29  and  C_32
REMARK   12  A    between atoms: C_38  and  O_40
REMARK                            x       y       z     vdW  Elec       q    Type
REMARK                         _______ _______ _______ _____ _____    ______ ____
ROOT
ATOM      1  C   UNL     1      19.347   8.141 167.469  0.00  0.00    +0.000 C 
ATOM      2  C   UNL     1      19.876   7.244 166.702  0.00  0.00    +0.000 C 
ATOM      3  C   UNL     1      19.002   6.146 166.169  0.00  0.00    +0.000 C 
ATOM      4  C   UNL     1      18.809   9.179 168.272  0.00  0.00    +0.000 C 
ATOM      5  C   UNL     1      18.637   8.834 169.743  0.00  0.00    +0.000 C 
ENDROOT
BRANCH   2   6
ATOM      6  C   UNL     1      21.069   7.559 166.005  0.00  0.00    +0.000 C 
ATOM      7  C   UNL     1      22.043   7.857 165.369  0.00  0.00    +0.000 C 
BRANCH   7   8
ATOM      8  C   UNL     1      23.209   8.289 164.475  0.00  0.00    +0.000 C 
BRANCH   8   9
ATOM      9  C   UNL     1      24.341   8.808 163.801  0.00  0.00    +0.000 C 
ATOM     10  C   UNL     1      24.394   8.765 162.305  0.00  0.00    +0.000 C 
ATOM     11  C   UNL     1      25.475   9.267 164.515  0.00  0.00    +0.000 C 
ATOM     12  C   UNL     1      26.418   9.625 165.332  0.00  0.00    +0.000 C 
BRANCH  12  13
ATOM     13  C   UNL     1      26.181   9.349 166.705  0.00  0.00    +0.000 C 
ATOM     14  C   UNL     1      25.934   9.245 167.876  0.00  0.00    +0.000 C 
BRANCH  14  15
ATOM     15  C   UNL     1      25.591   9.250 169.252  0.00  0.00    +0.000 A 
ATOM     16  O   UNL     1      26.702   9.278 170.199  0.00  0.00    +0.000 OA
ATOM     17  C   UNL     1      26.500   9.320 171.576  0.00  0.00    +0.000 A 
ATOM     18  O   UNL     1      27.392   9.381 172.408  0.00  0.00    +0.000 OA
ATOM     19  C   UNL     1      25.106   9.307 171.909  0.00  0.00    +0.000 A 
ATOM     20  C   UNL     1      24.165   9.278 171.175  0.00  0.00    +0.000 A 
ATOM     21  C   UNL     1      24.216   9.247 169.764  0.00  0.00    +0.000 A 
ATOM     22  C   UNL     1      22.965   9.260 168.945  0.00  0.00    +0.000 C 
ENDBRANCH  14  15
ENDBRANCH  12  13
BRANCH  12  23
ATOM     23  C   UNL     1      27.592  10.226 164.813  0.00  0.00    +0.000 C 
ATOM     24  C   UNL     1      28.860  10.884 164.255  0.00  0.00    +0.000 C 
ENDBRANCH  12  23
ENDBRANCH   8   9
ENDBRANCH   7   8
ENDBRANCH   2   6
BRANCH   4  25
ATOM     25  C   UNL     1      18.966  10.598 167.825  0.00  0.00    +0.000 C 
ATOM     26  O   UNL     1      19.409  11.479 168.568  0.00  0.00    +0.000 OA
BRANCH  25  27
ATOM     27  C   UNL     1      18.505  10.929 166.443  0.00  0.00    +0.000 C 
ATOM     28  C   UNL     1      17.076  10.591 166.024  0.00  0.00    +0.000 C 
BRANCH  27  29
ATOM     29  C   UNL     1      19.503  11.292 165.442  0.00  0.00    +0.000 C 
BRANCH  29  30
ATOM     30  C   UNL     1      19.792  10.645 164.175  0.00  0.00    +0.000 C 
ATOM     31  C   UNL     1      20.969  11.096 163.337  0.00  0.00    +0.000 C 
ATOM     32  C   UNL     1      19.142   9.472 163.726  0.00  0.00    +0.000 C 
ATOM     33  C   UNL     1      18.520   8.312 163.218  0.00  0.00    +0.000 C 
ATOM     34  C   UNL     1      17.037   8.166 163.366  0.00  0.00    +0.000 C 
ATOM     35  C   UNL     1      19.230   7.348 162.742  0.00  0.00    +0.000 C 
ATOM     36  C   UNL     1      20.034   6.290 162.237  0.00  0.00    +0.000 C 
ATOM     37  O   UNL     1      20.863   5.709 162.913  0.00  0.00    +0.000 OA
BRANCH  36  38
ATOM     38  O   UNL     1      19.813   6.002 160.945  0.00  0.00    +0.000 OA
ATOM     39  H   UNL     1      18.883   6.270 160.790  0.00  0.00    +0.000 HD
ENDBRANCH  36  38
ENDBRANCH  29  30
BRANCH  29  40
ATOM     40  O   UNL     1      20.254  12.436 165.724  0.00  0.00    +0.000 OA
ATOM     41  H   UNL     1      21.215  12.277 165.624  0.00  0.00    +0.000 HD
ENDBRANCH  29  40
ENDBRANCH  27  29
ENDBRANCH  25  27
ENDBRANCH   4  25
TORSDOF 12
ENDMDL
MODEL 7
REMARK VINA RESULT:      -5.5      2.189      3.998
REMARK  Name = Leptomycin.pdbqt.pdb
REMARK  12 active torsions:
REMARK  status: ('A' for Active; 'I' for Inactive)
REMARK    1  A    between atoms: C_2  and  C_4
REMARK    2  A    between atoms: C_5  and  C_6
REMARK    3  A    between atoms: C_6  and  C_7
REMARK    4  A    between atoms: C_10  and  C_11
REMARK    5  A    between atoms: C_10  and  C_21
REMARK    6  A    between atoms: C_12  and  C_13
REMARK    7  A    between atoms: C_23  and  C_25
REMARK    8  A    between atoms: C_25  and  C_27
REMARK    9  A    between atoms: C_27  and  C_29
REMARK   10  A    between atoms: C_29  and  O_30
REMARK   11  A    between atoms: C_29  and  C_32
REMARK   12  A    between atoms: C_38  and  O_40
REMARK                            x       y       z     vdW  Elec       q    Type
REMARK                         _______ _______ _______ _____ _____    ______ ____
ROOT
ATOM      1  C   UNL     1      27.846  -1.245 194.701  0.00  0.00    +0.000 C 
ATOM      2  C   UNL     1      26.789  -1.977 194.555  0.00  0.00    +0.000 C 
ATOM      3  C   UNL     1      26.337  -2.827 195.707  0.00  0.00    +0.000 C 
ATOM      4  C   UNL     1      28.967  -0.386 194.822  0.00  0.00    +0.000 C 
ATOM      5  C   UNL     1      30.319  -1.058 194.635  0.00  0.00    +0.000 C 
ENDROOT
BRANCH   2   6
ATOM      6  C   UNL     1      25.840  -1.616 193.567  0.00  0.00    +0.000 C 
ATOM      7  C   UNL     1      25.045  -1.248 192.745  0.00  0.00    +0.000 C 
BRANCH   7   8
ATOM      8  C   UNL     1      24.051  -0.661 191.738  0.00  0.00    +0.000 C 
BRANCH   8   9
ATOM      9  C   UNL     1      23.081   0.009 190.954  0.00  0.00    +0.000 C 
ATOM     10  C   UNL     1      23.333   0.228 189.494  0.00  0.00    +0.000 C 
ATOM     11  C   UNL     1      21.923   0.574 191.544  0.00  0.00    +0.000 C 
ATOM     12  C   UNL     1      20.942   1.036 192.256  0.00  0.00    +0.000 C 
BRANCH  12  13
ATOM     13  C   UNL     1      21.070   0.868 193.662  0.00  0.00    +0.000 C 
ATOM     14  C   UNL     1      21.107   0.610 194.834  0.00  0.00    +0.000 C 
BRANCH  14  15
ATOM     15  C   UNL     1      21.087   0.187 196.188  0.00  0.00    +0.000 A 
ATOM     16  O   UNL     1      20.102   0.827 197.054  0.00  0.00    +0.000 OA
ATOM     17  C   UNL     1      19.957   0.477 198.394  0.00  0.00    +0.000 A 
ATOM     18  O   UNL     1      19.126   0.955 199.151  0.00  0.00    +0.000 OA
ATOM     19  C   UNL     1      20.891  -0.538 198.782  0.00  0.00    +0.000 A 
ATOM     20  C   UNL     1      21.716  -1.085 198.116  0.00  0.00    +0.000 A 
ATOM     21  C   UNL     1      21.968  -0.845 196.747  0.00  0.00    +0.000 A 
ATOM     22  C   UNL     1      23.000  -1.629 196.001  0.00  0.00    +0.000 C 
ENDBRANCH  14  15
ENDBRANCH  12  13
BRANCH  12  23
ATOM     23  C   UNL     1      19.855   1.674 191.608  0.00  0.00    +0.000 C 
ATOM     24  C   UNL     1      18.683   2.371 190.908  0.00  0.00    +0.000 C 
ENDBRANCH  12  23
ENDBRANCH   8   9
ENDBRANCH   7   8
ENDBRANCH   2   6
BRANCH   4  25
ATOM     25  C   UNL     1      28.791   1.078 194.568  0.00  0.00    +0.000 C 
ATOM     26  O   UNL     1      29.487   1.696 193.756  0.00  0.00    +0.000 OA
BRANCH  25  27
ATOM     27  C   UNL     1      27.765   1.790 195.389  0.00  0.00    +0.000 C 
ATOM     28  C   UNL     1      27.485   1.324 196.816  0.00  0.00    +0.000 C 
BRANCH  27  29
ATOM     29  C   UNL     1      26.854   2.713 194.719  0.00  0.00    +0.000 C 
BRANCH  29  30
ATOM     30  C   UNL     1      25.845   2.421 193.716  0.00  0.00    +0.000 C 
ATOM     31  C   UNL     1      24.412   2.158 194.127  0.00  0.00    +0.000 C 
ATOM     32  C   UNL     1      26.066   2.535 192.324  0.00  0.00    +0.000 C 
ATOM     33  C   UNL     1      26.228   2.615 190.925  0.00  0.00    +0.000 C 
ATOM     34  C   UNL     1      27.498   2.106 190.316  0.00  0.00    +0.000 C 
ATOM     35  C   UNL     1      25.351   3.223 190.202  0.00  0.00    +0.000 C 
ATOM     36  C   UNL     1      24.380   3.912 189.426  0.00  0.00    +0.000 C 
ATOM     37  O   UNL     1      24.110   5.087 189.595  0.00  0.00    +0.000 OA
BRANCH  36  38
ATOM     38  O   UNL     1      23.772   3.148 188.505  0.00  0.00    +0.000 OA
ATOM     39  H   UNL     1      23.283   2.478 189.026  0.00  0.00    +0.000 HD
ENDBRANCH  36  38
ENDBRANCH  29  30
BRANCH  29  40
ATOM     40  O   UNL     1      26.938   4.047 195.124  0.00  0.00    +0.000 OA
ATOM     41  H   UNL     1      26.054   4.440 195.275  0.00  0.00    +0.000 HD
ENDBRANCH  29  40
ENDBRANCH  27  29
ENDBRANCH  25  27
ENDBRANCH   4  25
TORSDOF 12
ENDMDL
MODEL 8
REMARK VINA RESULT:      -5.3     23.411     28.254
REMARK  Name = Leptomycin.pdbqt.pdb
REMARK  12 active torsions:
REMARK  status: ('A' for Active; 'I' for Inactive)
REMARK    1  A    between atoms: C_2  and  C_4
REMARK    2  A    between atoms: C_5  and  C_6
REMARK    3  A    between atoms: C_6  and  C_7
REMARK    4  A    between atoms: C_10  and  C_11
REMARK    5  A    between atoms: C_10  and  C_21
REMARK    6  A    between atoms: C_12  and  C_13
REMARK    7  A    between atoms: C_23  and  C_25
REMARK    8  A    between atoms: C_25  and  C_27
REMARK    9  A    between atoms: C_27  and  C_29
REMARK   10  A    between atoms: C_29  and  O_30
REMARK   11  A    between atoms: C_29  and  C_32
REMARK   12  A    between atoms: C_38  and  O_40
REMARK                            x       y       z     vdW  Elec       q    Type
REMARK                         _______ _______ _______ _____ _____    ______ ____
ROOT
ATOM      1  C   UNL     1      17.345   7.743 168.032  0.00  0.00    +0.000 C 
ATOM      2  C   UNL     1      18.485   8.344 168.150  0.00  0.00    +0.000 C 
ATOM      3  C   UNL     1      18.915   8.814 169.509  0.00  0.00    +0.000 C 
ATOM      4  C   UNL     1      16.130   7.035 167.854  0.00  0.00    +0.000 C 
ATOM      5  C   UNL     1      14.884   7.903 167.760  0.00  0.00    +0.000 C 
ENDROOT
BRANCH   2   6
ATOM      6  C   UNL     1      19.479   8.119 167.165  0.00  0.00    +0.000 C 
ATOM      7  C   UNL     1      20.345   7.989 166.343  0.00  0.00    +0.000 C 
BRANCH   7   8
ATOM      8  C   UNL     1      21.487   7.939 165.324  0.00  0.00    +0.000 C 
BRANCH   8   9
ATOM      9  C   UNL     1      22.426   8.009 164.265  0.00  0.00    +0.000 C 
ATOM     10  C   UNL     1      22.062   7.468 162.918  0.00  0.00    +0.000 C 
ATOM     11  C   UNL     1      23.743   8.481 164.484  0.00  0.00    +0.000 C 
ATOM     12  C   UNL     1      24.899   8.925 164.874  0.00  0.00    +0.000 C 
BRANCH  12  13
ATOM     13  C   UNL     1      25.028   9.161 166.269  0.00  0.00    +0.000 C 
ATOM     14  C   UNL     1      25.076   9.481 167.425  0.00  0.00    +0.000 C 
BRANCH  14  15
ATOM     15  C   UNL     1      25.060   9.972 168.756  0.00  0.00    +0.000 A 
ATOM     16  O   UNL     1      24.107   9.349 169.668  0.00  0.00    +0.000 OA
ATOM     17  C   UNL     1      24.015   9.717 171.008  0.00  0.00    +0.000 A 
ATOM     18  O   UNL     1      23.261   9.203 171.820  0.00  0.00    +0.000 OA
ATOM     19  C   UNL     1      24.937  10.765 171.335  0.00  0.00    +0.000 A 
ATOM     20  C   UNL     1      25.728  11.309 170.627  0.00  0.00    +0.000 A 
ATOM     21  C   UNL     1      25.941  11.033 169.257  0.00  0.00    +0.000 A 
ATOM     22  C   UNL     1      26.999  11.750 168.480  0.00  0.00    +0.000 C 
ENDBRANCH  14  15
ENDBRANCH  12  13
BRANCH  12  23
ATOM     23  C   UNL     1      25.926   9.117 163.916  0.00  0.00    +0.000 C 
ATOM     24  C   UNL     1      27.034   9.330 162.877  0.00  0.00    +0.000 C 
ENDBRANCH  12  23
ENDBRANCH   8   9
ENDBRANCH   7   8
ENDBRANCH   2   6
BRANCH   4  25
ATOM     25  C   UNL     1      16.168   5.671 167.243  0.00  0.00    +0.000 C 
ATOM     26  O   UNL     1      15.541   4.717 167.717  0.00  0.00    +0.000 OA
BRANCH  25  27
ATOM     27  C   UNL     1      17.052   5.484 166.053  0.00  0.00    +0.000 C 
ATOM     28  C   UNL     1      16.703   6.179 164.738  0.00  0.00    +0.000 C 
BRANCH  27  29
ATOM     29  C   UNL     1      18.051   4.421 166.085  0.00  0.00    +0.000 C 
BRANCH  29  30
ATOM     30  C   UNL     1      19.374   4.403 165.489  0.00  0.00    +0.000 C 
ATOM     31  C   UNL     1      20.594   4.123 166.341  0.00  0.00    +0.000 C 
ATOM     32  C   UNL     1      19.609   4.460 164.095  0.00  0.00    +0.000 C 
ATOM     33  C   UNL     1      19.907   4.529 162.718  0.00  0.00    +0.000 C 
ATOM     34  C   UNL     1      19.139   5.487 161.861  0.00  0.00    +0.000 C 
ATOM     35  C   UNL     1      20.741   3.700 162.191  0.00  0.00    +0.000 C 
ATOM     36  C   UNL     1      21.651   2.764 161.627  0.00  0.00    +0.000 C 
ATOM     37  O   UNL     1      21.470   1.561 161.663  0.00  0.00    +0.000 OA
BRANCH  36  38
ATOM     38  O   UNL     1      22.737   3.323 161.071  0.00  0.00    +0.000 OA
ATOM     39  H   UNL     1      22.382   3.885 160.352  0.00  0.00    +0.000 HD
ENDBRANCH  36  38
ENDBRANCH  29  30
BRANCH  29  40
ATOM     40  O   UNL     1      17.701   3.284 166.819  0.00  0.00    +0.000 OA
ATOM     41  H   UNL     1      18.479   2.873 167.249  0.00  0.00    +0.000 HD
ENDBRANCH  29  40
ENDBRANCH  27  29
ENDBRANCH  25  27
ENDBRANCH   4  25
TORSDOF 12
ENDMDL
MODEL 9
REMARK VINA RESULT:      -5.3      2.722      6.249
REMARK  Name = Leptomycin.pdbqt.pdb
REMARK  12 active torsions:
REMARK  status: ('A' for Active; 'I' for Inactive)
REMARK    1  A    between atoms: C_2  and  C_4
REMARK    2  A    between atoms: C_5  and  C_6
REMARK    3  A    between atoms: C_6  and  C_7
REMARK    4  A    between atoms: C_10  and  C_11
REMARK    5  A    between atoms: C_10  and  C_21
REMARK    6  A    between atoms: C_12  and  C_13
REMARK    7  A    between atoms: C_23  and  C_25
REMARK    8  A    between atoms: C_25  and  C_27
REMARK    9  A    between atoms: C_27  and  C_29
REMARK   10  A    between atoms: C_29  and  O_30
REMARK   11  A    between atoms: C_29  and  C_32
REMARK   12  A    between atoms: C_38  and  O_40
REMARK                            x       y       z     vdW  Elec       q    Type
REMARK                         _______ _______ _______ _____ _____    ______ ____
ROOT
ATOM      1  C   UNL     1      28.245  -1.546 195.117  0.00  0.00    +0.000 C 
ATOM      2  C   UNL     1      27.456  -2.446 194.628  0.00  0.00    +0.000 C 
ATOM      3  C   UNL     1      27.294  -3.743 195.367  0.00  0.00    +0.000 C 
ATOM      4  C   UNL     1      29.059  -0.506 195.634  0.00  0.00    +0.000 C 
ATOM      5  C   UNL     1      30.547  -0.652 195.359  0.00  0.00    +0.000 C 
ENDROOT
BRANCH   2   6
ATOM      6  C   UNL     1      26.431  -2.042 193.737  0.00  0.00    +0.000 C 
ATOM      7  C   UNL     1      25.549  -1.650 193.021  0.00  0.00    +0.000 C 
BRANCH   7   8
ATOM      8  C   UNL     1      24.405  -1.057 192.193  0.00  0.00    +0.000 C 
BRANCH   8   9
ATOM      9  C   UNL     1      23.479  -0.504 191.275  0.00  0.00    +0.000 C 
ATOM     10  C   UNL     1      22.027  -0.850 191.393  0.00  0.00    +0.000 C 
ATOM     11  C   UNL     1      23.912   0.281 190.179  0.00  0.00    +0.000 C 
ATOM     12  C   UNL     1      24.492   0.959 189.236  0.00  0.00    +0.000 C 
BRANCH  12  13
ATOM     13  C   UNL     1      25.912   0.940 189.249  0.00  0.00    +0.000 C 
ATOM     14  C   UNL     1      27.106   1.035 189.341  0.00  0.00    +0.000 C 
BRANCH  14  15
ATOM     15  C   UNL     1      28.494   1.253 189.538  0.00  0.00    +0.000 A 
ATOM     16  O   UNL     1      29.236   1.784 188.400  0.00  0.00    +0.000 OA
ATOM     17  C   UNL     1      30.597   2.073 188.472  0.00  0.00    +0.000 A 
ATOM     18  O   UNL     1      31.256   2.552 187.562  0.00  0.00    +0.000 OA
ATOM     19  C   UNL     1      31.137   1.762 189.763  0.00  0.00    +0.000 A 
ATOM     20  C   UNL     1      30.575   1.322 190.720  0.00  0.00    +0.000 A 
ATOM     21  C   UNL     1      29.203   0.995 190.797  0.00  0.00    +0.000 A 
ATOM     22  C   UNL     1      28.598   0.493 192.069  0.00  0.00    +0.000 C 
ENDBRANCH  14  15
ENDBRANCH  12  13
BRANCH  12  23
ATOM     23  C   UNL     1      23.695   1.631 188.276  0.00  0.00    +0.000 C 
ATOM     24  C   UNL     1      22.833   2.365 187.241  0.00  0.00    +0.000 C 
ENDBRANCH  12  23
ENDBRANCH   8   9
ENDBRANCH   7   8
ENDBRANCH   2   6
BRANCH   4  25
ATOM     25  C   UNL     1      28.447   0.836 195.884  0.00  0.00    +0.000 C 
ATOM     26  O   UNL     1      28.867   1.864 195.342  0.00  0.00    +0.000 OA
BRANCH  25  27
ATOM     27  C   UNL     1      27.331   0.900 196.875  0.00  0.00    +0.000 C 
ATOM     28  C   UNL     1      27.374   0.013 198.118  0.00  0.00    +0.000 C 
BRANCH  27  29
ATOM     29  C   UNL     1      26.097   1.579 196.493  0.00  0.00    +0.000 C 
BRANCH  29  30
ATOM     30  C   UNL     1      25.114   1.181 195.501  0.00  0.00    +0.000 C 
ATOM     31  C   UNL     1      24.133   0.068 195.800  0.00  0.00    +0.000 C 
ATOM     32  C   UNL     1      24.881   1.888 194.299  0.00  0.00    +0.000 C 
ATOM     33  C   UNL     1      24.611   2.542 193.078  0.00  0.00    +0.000 C 
ATOM     34  C   UNL     1      25.761   3.048 192.262  0.00  0.00    +0.000 C 
ATOM     35  C   UNL     1      23.397   2.801 192.733  0.00  0.00    +0.000 C 
ATOM     36  C   UNL     1      22.051   3.092 192.379  0.00  0.00    +0.000 C 
ATOM     37  O   UNL     1      21.323   3.786 193.064  0.00  0.00    +0.000 OA
BRANCH  36  38
ATOM     38  O   UNL     1      21.649   2.517 191.235  0.00  0.00    +0.000 OA
ATOM     39  H   UNL     1      20.689   2.368 191.360  0.00  0.00    +0.000 HD
ENDBRANCH  36  38
ENDBRANCH  29  30
BRANCH  29  40
ATOM     40  O   UNL     1      25.804   2.746 197.202  0.00  0.00    +0.000 OA
ATOM     41  H   UNL     1      26.545   3.019 197.781  0.00  0.00    +0.000 HD
ENDBRANCH  29  40
ENDBRANCH  27  29
ENDBRANCH  25  27
ENDBRANCH   4  25
TORSDOF 12
ENDMDL
