MODEL 1
REMARK VINA RESULT:      -9.7      0.000      0.000
REMARK  Name = Lobelin.pdbqt.pdb
REMARK  3 active torsions:
REMARK  status: ('A' for Active; 'I' for Inactive)
REMARK    1  A    between atoms: C_9  and  O_10
REMARK    2  A    between atoms: C_9  and  C_12
REMARK    3  A    between atoms: C_19  and  C_21
REMARK                            x       y       z     vdW  Elec       q    Type
REMARK                         _______ _______ _______ _____ _____    ______ ____
ROOT
ATOM      1  N   UNL     1      19.936   2.044 190.572  0.00  0.00    +0.000 N 
ATOM      2  C   UNL     1      19.120   0.885 190.921  0.00  0.00    +0.000 C 
ATOM      3  C   UNL     1      19.626   2.825 189.378  0.00  0.00    +0.000 C 
ATOM      4  C   UNL     1      18.022   0.639 190.041  0.00  0.00    +0.000 C 
ATOM      5  C   UNL     1      18.477   2.381 188.654  0.00  0.00    +0.000 C 
ATOM      6  C   UNL     1      17.456   1.267 188.780  0.00  0.00    +0.000 C 
ATOM      7  C   UNL     1      21.126   2.346 191.335  0.00  0.00    +0.000 C 
ATOM      8  C   UNL     1      19.390   0.072 192.055  0.00  0.00    +0.000 C 
ATOM      9  C   UNL     1      19.651  -0.719 193.203  0.00  0.00    +0.000 C 
ATOM     10  C   UNL     1      20.402   3.943 188.980  0.00  0.00    +0.000 C 
ATOM     11  C   UNL     1      21.170   5.097 188.596  0.00  0.00    +0.000 C 
ATOM     12  O   UNL     1      20.593   6.155 188.386  0.00  0.00    +0.000 OA
ENDROOT
BRANCH   9  13
ATOM     13  C   UNL     1      19.594  -0.220 194.578  0.00  0.00    +0.000 A 
ATOM     14  C   UNL     1      20.718   0.355 195.177  0.00  0.00    +0.000 A 
ATOM     15  C   UNL     1      20.665   0.831 196.486  0.00  0.00    +0.000 A 
ATOM     16  C   UNL     1      19.482   0.737 197.212  0.00  0.00    +0.000 A 
ATOM     17  C   UNL     1      18.354   0.166 196.630  0.00  0.00    +0.000 A 
ATOM     18  C   UNL     1      18.414  -0.309 195.321  0.00  0.00    +0.000 A 
ENDBRANCH   9  13
BRANCH  11  19
ATOM     19  C   UNL     1      22.630   4.957 188.457  0.00  0.00    +0.000 A 
ATOM     20  C   UNL     1      23.377   4.221 189.378  0.00  0.00    +0.000 A 
ATOM     21  C   UNL     1      24.754   4.101 189.216  0.00  0.00    +0.000 A 
ATOM     22  C   UNL     1      25.385   4.714 188.136  0.00  0.00    +0.000 A 
ATOM     23  C   UNL     1      24.638   5.446 187.214  0.00  0.00    +0.000 A 
ATOM     24  C   UNL     1      23.260   5.568 187.373  0.00  0.00    +0.000 A 
ENDBRANCH  11  19
BRANCH   9  25
ATOM     25  O   UNL     1      19.973  -2.047 193.037  0.00  0.00    +0.000 OA
ATOM     26  H   UNL     1      20.235  -2.245 192.122  0.00  0.00    +0.000 HD
ENDBRANCH   9  25
TORSDOF 3
ENDMDL
MODEL 2
REMARK VINA RESULT:      -8.9      3.120      4.108
REMARK  Name = Lobelin.pdbqt.pdb
REMARK  3 active torsions:
REMARK  status: ('A' for Active; 'I' for Inactive)
REMARK    1  A    between atoms: C_9  and  O_10
REMARK    2  A    between atoms: C_9  and  C_12
REMARK    3  A    between atoms: C_19  and  C_21
REMARK                            x       y       z     vdW  Elec       q    Type
REMARK                         _______ _______ _______ _____ _____    ______ ____
ROOT
ATOM      1  N   UNL     1      21.115   2.283 191.171  0.00  0.00    +0.000 N 
ATOM      2  C   UNL     1      21.081   1.249 192.199  0.00  0.00    +0.000 C 
ATOM      3  C   UNL     1      19.871   2.866 190.675  0.00  0.00    +0.000 C 
ATOM      4  C   UNL     1      19.774   0.918 192.671  0.00  0.00    +0.000 C 
ATOM      5  C   UNL     1      18.687   2.370 191.302  0.00  0.00    +0.000 C 
ATOM      6  C   UNL     1      18.350   1.352 192.375  0.00  0.00    +0.000 C 
ATOM      7  C   UNL     1      22.371   2.645 190.551  0.00  0.00    +0.000 C 
ATOM      8  C   UNL     1      22.256   0.627 192.700  0.00  0.00    +0.000 C 
ATOM      9  C   UNL     1      23.437   0.029 193.213  0.00  0.00    +0.000 C 
ATOM     10  C   UNL     1      19.848   3.855 189.660  0.00  0.00    +0.000 C 
ATOM     11  C   UNL     1      19.828   4.883 188.652  0.00  0.00    +0.000 C 
ATOM     12  O   UNL     1      19.217   5.919 188.870  0.00  0.00    +0.000 OA
ENDROOT
BRANCH   9  13
ATOM     13  C   UNL     1      24.484   0.758 193.930  0.00  0.00    +0.000 A 
ATOM     14  C   UNL     1      24.549   2.153 193.878  0.00  0.00    +0.000 A 
ATOM     15  C   UNL     1      25.545   2.848 194.562  0.00  0.00    +0.000 A 
ATOM     16  C   UNL     1      26.491   2.151 195.308  0.00  0.00    +0.000 A 
ATOM     17  C   UNL     1      26.441   0.762 195.368  0.00  0.00    +0.000 A 
ATOM     18  C   UNL     1      25.442   0.072 194.682  0.00  0.00    +0.000 A 
ENDBRANCH   9  13
BRANCH  11  19
ATOM     19  C   UNL     1      20.538   4.640 187.385  0.00  0.00    +0.000 A 
ATOM     20  C   UNL     1      20.091   3.678 186.478  0.00  0.00    +0.000 A 
ATOM     21  C   UNL     1      20.780   3.476 185.285  0.00  0.00    +0.000 A 
ATOM     22  C   UNL     1      21.912   4.235 184.998  0.00  0.00    +0.000 A 
ATOM     23  C   UNL     1      22.356   5.198 185.902  0.00  0.00    +0.000 A 
ATOM     24  C   UNL     1      21.669   5.402 187.096  0.00  0.00    +0.000 A 
ENDBRANCH  11  19
BRANCH   9  25
ATOM     25  O   UNL     1      23.626  -1.323 193.041  0.00  0.00    +0.000 OA
ATOM     26  H   UNL     1      23.585  -1.805 193.884  0.00  0.00    +0.000 HD
ENDBRANCH   9  25
TORSDOF 3
ENDMDL
MODEL 3
REMARK VINA RESULT:      -8.8      2.993      7.590
REMARK  Name = Lobelin.pdbqt.pdb
REMARK  3 active torsions:
REMARK  status: ('A' for Active; 'I' for Inactive)
REMARK    1  A    between atoms: C_9  and  O_10
REMARK    2  A    between atoms: C_9  and  C_12
REMARK    3  A    between atoms: C_19  and  C_21
REMARK                            x       y       z     vdW  Elec       q    Type
REMARK                         _______ _______ _______ _____ _____    ______ ____
ROOT
ATOM      1  N   UNL     1      21.049   2.353 191.392  0.00  0.00    +0.000 N 
ATOM      2  C   UNL     1      19.834   2.870 190.770  0.00  0.00    +0.000 C 
ATOM      3  C   UNL     1      20.959   1.370 192.468  0.00  0.00    +0.000 C 
ATOM      4  C   UNL     1      18.620   2.309 191.271  0.00  0.00    +0.000 C 
ATOM      5  C   UNL     1      19.630   0.963 192.797  0.00  0.00    +0.000 C 
ATOM      6  C   UNL     1      18.226   1.293 192.327  0.00  0.00    +0.000 C 
ATOM      7  C   UNL     1      22.336   2.905 191.033  0.00  0.00    +0.000 C 
ATOM      8  C   UNL     1      19.859   3.847 189.738  0.00  0.00    +0.000 C 
ATOM      9  C   UNL     1      19.893   4.804 188.691  0.00  0.00    +0.000 C 
ATOM     10  C   UNL     1      22.106   0.856 193.124  0.00  0.00    +0.000 C 
ATOM     11  C   UNL     1      23.273   0.309 193.765  0.00  0.00    +0.000 C 
ATOM     12  O   UNL     1      23.402  -0.905 193.834  0.00  0.00    +0.000 OA
ENDROOT
BRANCH   9  13
ATOM     13  C   UNL     1      20.507   4.572 187.383  0.00  0.00    +0.000 A 
ATOM     14  C   UNL     1      21.603   5.331 186.962  0.00  0.00    +0.000 A 
ATOM     15  C   UNL     1      22.189   5.110 185.716  0.00  0.00    +0.000 A 
ATOM     16  C   UNL     1      21.683   4.123 184.876  0.00  0.00    +0.000 A 
ATOM     17  C   UNL     1      20.592   3.359 185.280  0.00  0.00    +0.000 A 
ATOM     18  C   UNL     1      20.010   3.585 186.526  0.00  0.00    +0.000 A 
ENDBRANCH   9  13
BRANCH  11  19
ATOM     19  C   UNL     1      24.266   1.239 194.329  0.00  0.00    +0.000 A 
ATOM     20  C   UNL     1      24.779   2.295 193.575  0.00  0.00    +0.000 A 
ATOM     21  C   UNL     1      25.712   3.161 194.138  0.00  0.00    +0.000 A 
ATOM     22  C   UNL     1      26.131   2.974 195.453  0.00  0.00    +0.000 A 
ATOM     23  C   UNL     1      25.617   1.921 196.208  0.00  0.00    +0.000 A 
ATOM     24  C   UNL     1      24.683   1.054 195.647  0.00  0.00    +0.000 A 
ENDBRANCH  11  19
BRANCH   9  25
ATOM     25  O   UNL     1      19.311   6.034 188.894  0.00  0.00    +0.000 OA
ATOM     26  H   UNL     1      18.374   6.040 188.633  0.00  0.00    +0.000 HD
ENDBRANCH   9  25
TORSDOF 3
ENDMDL
MODEL 4
REMARK VINA RESULT:      -8.7      4.608      8.476
REMARK  Name = Lobelin.pdbqt.pdb
REMARK  3 active torsions:
REMARK  status: ('A' for Active; 'I' for Inactive)
REMARK    1  A    between atoms: C_9  and  O_10
REMARK    2  A    between atoms: C_9  and  C_12
REMARK    3  A    between atoms: C_19  and  C_21
REMARK                            x       y       z     vdW  Elec       q    Type
REMARK                         _______ _______ _______ _____ _____    ______ ____
ROOT
ATOM      1  N   UNL     1      25.000   3.812 189.599  0.00  0.00    +0.000 N 
ATOM      2  C   UNL     1      25.923   3.160 190.521  0.00  0.00    +0.000 C 
ATOM      3  C   UNL     1      23.588   3.945 189.947  0.00  0.00    +0.000 C 
ATOM      4  C   UNL     1      25.336   2.729 191.751  0.00  0.00    +0.000 C 
ATOM      5  C   UNL     1      23.238   3.433 191.234  0.00  0.00    +0.000 C 
ATOM      6  C   UNL     1      23.956   2.749 192.381  0.00  0.00    +0.000 C 
ATOM      7  C   UNL     1      25.454   4.215 188.286  0.00  0.00    +0.000 C 
ATOM      8  C   UNL     1      27.301   2.978 190.226  0.00  0.00    +0.000 C 
ATOM      9  C   UNL     1      28.681   2.823 189.933  0.00  0.00    +0.000 C 
ATOM     10  C   UNL     1      22.645   4.547 189.075  0.00  0.00    +0.000 C 
ATOM     11  C   UNL     1      21.696   5.187 188.204  0.00  0.00    +0.000 C 
ATOM     12  O   UNL     1      21.000   6.092 188.643  0.00  0.00    +0.000 OA
ENDROOT
BRANCH   9  13
ATOM     13  C   UNL     1      29.610   3.935 189.733  0.00  0.00    +0.000 A 
ATOM     14  C   UNL     1      30.249   4.538 190.820  0.00  0.00    +0.000 A 
ATOM     15  C   UNL     1      31.135   5.598 190.631  0.00  0.00    +0.000 A 
ATOM     16  C   UNL     1      31.392   6.067 189.346  0.00  0.00    +0.000 A 
ATOM     17  C   UNL     1      30.763   5.478 188.254  0.00  0.00    +0.000 A 
ATOM     18  C   UNL     1      29.878   4.419 188.449  0.00  0.00    +0.000 A 
ENDBRANCH   9  13
BRANCH  11  19
ATOM     19  C   UNL     1      21.589   4.718 186.812  0.00  0.00    +0.000 A 
ATOM     20  C   UNL     1      20.630   3.777 186.437  0.00  0.00    +0.000 A 
ATOM     21  C   UNL     1      20.550   3.357 185.112  0.00  0.00    +0.000 A 
ATOM     22  C   UNL     1      21.426   3.879 184.162  0.00  0.00    +0.000 A 
ATOM     23  C   UNL     1      22.382   4.822 184.536  0.00  0.00    +0.000 A 
ATOM     24  C   UNL     1      22.464   5.243 185.861  0.00  0.00    +0.000 A 
ENDBRANCH  11  19
BRANCH   9  25
ATOM     25  O   UNL     1      29.201   1.552 189.833  0.00  0.00    +0.000 OA
ATOM     26  H   UNL     1      29.054   1.035 190.643  0.00  0.00    +0.000 HD
ENDBRANCH   9  25
TORSDOF 3
ENDMDL
MODEL 5
REMARK VINA RESULT:      -8.2      4.336      8.824
REMARK  Name = Lobelin.pdbqt.pdb
REMARK  3 active torsions:
REMARK  status: ('A' for Active; 'I' for Inactive)
REMARK    1  A    between atoms: C_9  and  O_10
REMARK    2  A    between atoms: C_9  and  C_12
REMARK    3  A    between atoms: C_19  and  C_21
REMARK                            x       y       z     vdW  Elec       q    Type
REMARK                         _______ _______ _______ _____ _____    ______ ____
ROOT
ATOM      1  N   UNL     1      25.500   2.148 190.020  0.00  0.00    +0.000 N 
ATOM      2  C   UNL     1      26.759   1.414 190.094  0.00  0.00    +0.000 C 
ATOM      3  C   UNL     1      24.322   1.653 190.727  0.00  0.00    +0.000 C 
ATOM      4  C   UNL     1      26.726   0.250 190.921  0.00  0.00    +0.000 C 
ATOM      5  C   UNL     1      24.536   0.464 191.489  0.00  0.00    +0.000 C 
ATOM      6  C   UNL     1      25.695  -0.474 191.767  0.00  0.00    +0.000 C 
ATOM      7  C   UNL     1      25.381   3.294 189.147  0.00  0.00    +0.000 C 
ATOM      8  C   UNL     1      27.930   1.832 189.406  0.00  0.00    +0.000 C 
ATOM      9  C   UNL     1      29.102   2.271 188.736  0.00  0.00    +0.000 C 
ATOM     10  C   UNL     1      23.068   2.313 190.667  0.00  0.00    +0.000 C 
ATOM     11  C   UNL     1      21.805   3.002 190.632  0.00  0.00    +0.000 C 
ATOM     12  O   UNL     1      21.252   3.286 191.685  0.00  0.00    +0.000 OA
ENDROOT
BRANCH   9  13
ATOM     13  C   UNL     1      29.782   3.537 189.010  0.00  0.00    +0.000 A 
ATOM     14  C   UNL     1      30.041   3.942 190.323  0.00  0.00    +0.000 A 
ATOM     15  C   UNL     1      30.689   5.148 190.585  0.00  0.00    +0.000 A 
ATOM     16  C   UNL     1      31.087   5.965 189.531  0.00  0.00    +0.000 A 
ATOM     17  C   UNL     1      30.835   5.577 188.219  0.00  0.00    +0.000 A 
ATOM     18  C   UNL     1      30.187   4.371 187.963  0.00  0.00    +0.000 A 
ENDBRANCH   9  13
BRANCH  11  19
ATOM     19  C   UNL     1      21.218   3.330 189.322  0.00  0.00    +0.000 A 
ATOM     20  C   UNL     1      21.165   4.646 188.862  0.00  0.00    +0.000 A 
ATOM     21  C   UNL     1      20.610   4.923 187.615  0.00  0.00    +0.000 A 
ATOM     22  C   UNL     1      20.110   3.887 186.829  0.00  0.00    +0.000 A 
ATOM     23  C   UNL     1      20.167   2.572 187.288  0.00  0.00    +0.000 A 
ATOM     24  C   UNL     1      20.722   2.292 188.534  0.00  0.00    +0.000 A 
ENDBRANCH  11  19
BRANCH   9  25
ATOM     25  O   UNL     1      29.656   1.465 187.768  0.00  0.00    +0.000 OA
ATOM     26  H   UNL     1      30.569   1.211 187.985  0.00  0.00    +0.000 HD
ENDBRANCH   9  25
TORSDOF 3
ENDMDL
MODEL 6
REMARK VINA RESULT:      -8.0      4.663      8.083
REMARK  Name = Lobelin.pdbqt.pdb
REMARK  3 active torsions:
REMARK  status: ('A' for Active; 'I' for Inactive)
REMARK    1  A    between atoms: C_9  and  O_10
REMARK    2  A    between atoms: C_9  and  C_12
REMARK    3  A    between atoms: C_19  and  C_21
REMARK                            x       y       z     vdW  Elec       q    Type
REMARK                         _______ _______ _______ _____ _____    ______ ____
ROOT
ATOM      1  N   UNL     1      25.803   2.289 189.550  0.00  0.00    +0.000 N 
ATOM      2  C   UNL     1      24.485   1.912 190.049  0.00  0.00    +0.000 C 
ATOM      3  C   UNL     1      26.986   1.542 189.968  0.00  0.00    +0.000 C 
ATOM      4  C   UNL     1      24.474   0.770 190.908  0.00  0.00    +0.000 C 
ATOM      5  C   UNL     1      26.721   0.439 190.837  0.00  0.00    +0.000 C 
ATOM      6  C   UNL     1      25.500  -0.189 191.482  0.00  0.00    +0.000 C 
ATOM      7  C   UNL     1      25.957   3.478 188.741  0.00  0.00    +0.000 C 
ATOM      8  C   UNL     1      23.302   2.618 189.697  0.00  0.00    +0.000 C 
ATOM      9  C   UNL     1      22.123   3.313 189.322  0.00  0.00    +0.000 C 
ATOM     10  C   UNL     1      28.292   1.883 189.534  0.00  0.00    +0.000 C 
ATOM     11  C   UNL     1      29.613   2.209 189.066  0.00  0.00    +0.000 C 
ATOM     12  O   UNL     1      30.300   1.333 188.561  0.00  0.00    +0.000 OA
ENDROOT
BRANCH   9  13
ATOM     13  C   UNL     1      21.620   3.398 187.950  0.00  0.00    +0.000 A 
ATOM     14  C   UNL     1      20.294   3.070 187.653  0.00  0.00    +0.000 A 
ATOM     15  C   UNL     1      19.813   3.152 186.347  0.00  0.00    +0.000 A 
ATOM     16  C   UNL     1      20.657   3.565 185.321  0.00  0.00    +0.000 A 
ATOM     17  C   UNL     1      21.980   3.894 185.600  0.00  0.00    +0.000 A 
ATOM     18  C   UNL     1      22.455   3.810 186.908  0.00  0.00    +0.000 A 
ENDBRANCH   9  13
BRANCH  11  19
ATOM     19  C   UNL     1      30.094   3.593 189.226  0.00  0.00    +0.000 A 
ATOM     20  C   UNL     1      30.312   4.141 190.490  0.00  0.00    +0.000 A 
ATOM     21  C   UNL     1      30.774   5.449 190.608  0.00  0.00    +0.000 A 
ATOM     22  C   UNL     1      31.019   6.207 189.465  0.00  0.00    +0.000 A 
ATOM     23  C   UNL     1      30.805   5.658 188.203  0.00  0.00    +0.000 A 
ATOM     24  C   UNL     1      30.344   4.350 188.081  0.00  0.00    +0.000 A 
ENDBRANCH  11  19
BRANCH   9  25
ATOM     25  O   UNL     1      21.387   3.948 190.295  0.00  0.00    +0.000 OA
ATOM     26  H   UNL     1      21.814   3.894 191.167  0.00  0.00    +0.000 HD
ENDBRANCH   9  25
TORSDOF 3
ENDMDL
MODEL 7
REMARK VINA RESULT:      -7.9      1.775      2.616
REMARK  Name = Lobelin.pdbqt.pdb
REMARK  3 active torsions:
REMARK  status: ('A' for Active; 'I' for Inactive)
REMARK    1  A    between atoms: C_9  and  O_10
REMARK    2  A    between atoms: C_9  and  C_12
REMARK    3  A    between atoms: C_19  and  C_21
REMARK                            x       y       z     vdW  Elec       q    Type
REMARK                         _______ _______ _______ _____ _____    ______ ____
ROOT
ATOM      1  N   UNL     1      21.442   1.926 190.537  0.00  0.00    +0.000 N 
ATOM      2  C   UNL     1      20.138   1.290 190.696  0.00  0.00    +0.000 C 
ATOM      3  C   UNL     1      21.701   2.789 189.389  0.00  0.00    +0.000 C 
ATOM      4  C   UNL     1      19.183   1.622 189.686  0.00  0.00    +0.000 C 
ATOM      5  C   UNL     1      20.588   2.967 188.511  0.00  0.00    +0.000 C 
ATOM      6  C   UNL     1      19.156   2.475 188.431  0.00  0.00    +0.000 C 
ATOM      7  C   UNL     1      22.519   1.603 191.446  0.00  0.00    +0.000 C 
ATOM      8  C   UNL     1      19.837   0.419 191.778  0.00  0.00    +0.000 C 
ATOM      9  C   UNL     1      19.537  -0.429 192.875  0.00  0.00    +0.000 C 
ATOM     10  C   UNL     1      22.958   3.410 189.174  0.00  0.00    +0.000 C 
ATOM     11  C   UNL     1      24.223   4.065 188.974  0.00  0.00    +0.000 C 
ATOM     12  O   UNL     1      24.247   5.275 188.796  0.00  0.00    +0.000 OA
ENDROOT
BRANCH   9  13
ATOM     13  C   UNL     1      19.537   0.002 194.273  0.00  0.00    +0.000 A 
ATOM     14  C   UNL     1      18.340   0.133 194.982  0.00  0.00    +0.000 A 
ATOM     15  C   UNL     1      18.339   0.543 196.315  0.00  0.00    +0.000 A 
ATOM     16  C   UNL     1      19.542   0.827 196.954  0.00  0.00    +0.000 A 
ATOM     17  C   UNL     1      20.743   0.702 196.262  0.00  0.00    +0.000 A 
ATOM     18  C   UNL     1      20.737   0.293 194.930  0.00  0.00    +0.000 A 
ENDBRANCH   9  13
BRANCH  11  19
ATOM     19  C   UNL     1      25.448   3.247 188.981  0.00  0.00    +0.000 A 
ATOM     20  C   UNL     1      26.684   3.798 189.321  0.00  0.00    +0.000 A 
ATOM     21  C   UNL     1      27.823   2.997 189.324  0.00  0.00    +0.000 A 
ATOM     22  C   UNL     1      27.727   1.648 188.990  0.00  0.00    +0.000 A 
ATOM     23  C   UNL     1      26.492   1.097 188.654  0.00  0.00    +0.000 A 
ATOM     24  C   UNL     1      25.351   1.896 188.650  0.00  0.00    +0.000 A 
ENDBRANCH  11  19
BRANCH   9  25
ATOM     25  O   UNL     1      19.215  -1.745 192.630  0.00  0.00    +0.000 OA
ATOM     26  H   UNL     1      19.242  -1.954 191.681  0.00  0.00    +0.000 HD
ENDBRANCH   9  25
TORSDOF 3
ENDMDL
MODEL 8
REMARK VINA RESULT:      -7.9     34.743     36.688
REMARK  Name = Lobelin.pdbqt.pdb
REMARK  3 active torsions:
REMARK  status: ('A' for Active; 'I' for Inactive)
REMARK    1  A    between atoms: C_9  and  O_10
REMARK    2  A    between atoms: C_9  and  C_12
REMARK    3  A    between atoms: C_19  and  C_21
REMARK                            x       y       z     vdW  Elec       q    Type
REMARK                         _______ _______ _______ _____ _____    ______ ____
ROOT
ATOM      1  N   UNL     1      40.218 -20.451 170.501  0.00  0.00    +0.000 N 
ATOM      2  C   UNL     1      40.514 -19.851 171.797  0.00  0.00    +0.000 C 
ATOM      3  C   UNL     1      40.992 -20.070 169.323  0.00  0.00    +0.000 C 
ATOM      4  C   UNL     1      41.610 -18.934 171.796  0.00  0.00    +0.000 C 
ATOM      5  C   UNL     1      42.038 -19.130 169.573  0.00  0.00    +0.000 C 
ATOM      6  C   UNL     1      42.581 -18.376 170.772  0.00  0.00    +0.000 C 
ATOM      7  C   UNL     1      39.079 -21.330 170.354  0.00  0.00    +0.000 C 
ATOM      8  C   UNL     1      39.778 -20.164 172.972  0.00  0.00    +0.000 C 
ATOM      9  C   UNL     1      39.054 -20.500 174.145  0.00  0.00    +0.000 C 
ATOM     10  C   UNL     1      40.728 -20.604 168.036  0.00  0.00    +0.000 C 
ATOM     11  C   UNL     1      40.481 -21.171 166.737  0.00  0.00    +0.000 C 
ATOM     12  O   UNL     1      41.410 -21.672 166.119  0.00  0.00    +0.000 OA
ENDROOT
BRANCH   9  13
ATOM     13  C   UNL     1      39.016 -21.839 174.734  0.00  0.00    +0.000 A 
ATOM     14  C   UNL     1      38.781 -22.014 176.100  0.00  0.00    +0.000 A 
ATOM     15  C   UNL     1      38.744 -23.289 176.662  0.00  0.00    +0.000 A 
ATOM     16  C   UNL     1      38.943 -24.408 175.858  0.00  0.00    +0.000 A 
ATOM     17  C   UNL     1      39.180 -24.251 174.496  0.00  0.00    +0.000 A 
ATOM     18  C   UNL     1      39.216 -22.973 173.941  0.00  0.00    +0.000 A 
ENDBRANCH   9  13
BRANCH  11  19
ATOM     19  C   UNL     1      39.113 -21.115 166.193  0.00  0.00    +0.000 A 
ATOM     20  C   UNL     1      38.732 -21.907 165.110  0.00  0.00    +0.000 A 
ATOM     21  C   UNL     1      37.430 -21.837 164.623  0.00  0.00    +0.000 A 
ATOM     22  C   UNL     1      36.509 -20.977 165.218  0.00  0.00    +0.000 A 
ATOM     23  C   UNL     1      36.889 -20.188 166.302  0.00  0.00    +0.000 A 
ATOM     24  C   UNL     1      38.191 -20.256 166.791  0.00  0.00    +0.000 A 
ENDBRANCH  11  19
BRANCH   9  25
ATOM     25  O   UNL     1      38.340 -19.517 174.792  0.00  0.00    +0.000 OA
ATOM     26  H   UNL     1      38.843 -19.128 175.528  0.00  0.00    +0.000 HD
ENDBRANCH   9  25
TORSDOF 3
ENDMDL
MODEL 9
REMARK VINA RESULT:      -7.8      2.563      4.098
REMARK  Name = Lobelin.pdbqt.pdb
REMARK  3 active torsions:
REMARK  status: ('A' for Active; 'I' for Inactive)
REMARK    1  A    between atoms: C_9  and  O_10
REMARK    2  A    between atoms: C_9  and  C_12
REMARK    3  A    between atoms: C_19  and  C_21
REMARK                            x       y       z     vdW  Elec       q    Type
REMARK                         _______ _______ _______ _____ _____    ______ ____
ROOT
ATOM      1  N   UNL     1      22.066   1.000 192.449  0.00  0.00    +0.000 N 
ATOM      2  C   UNL     1      22.643   0.416 193.656  0.00  0.00    +0.000 C 
ATOM      3  C   UNL     1      22.627   0.679 191.140  0.00  0.00    +0.000 C 
ATOM      4  C   UNL     1      23.726  -0.486 193.425  0.00  0.00    +0.000 C 
ATOM      5  C   UNL     1      23.713  -0.249 191.165  0.00  0.00    +0.000 C 
ATOM      6  C   UNL     1      24.486  -1.015 192.222  0.00  0.00    +0.000 C 
ATOM      7  C   UNL     1      21.021   1.994 192.555  0.00  0.00    +0.000 C 
ATOM      8  C   UNL     1      22.157   0.712 194.958  0.00  0.00    +0.000 C 
ATOM      9  C   UNL     1      21.649   0.994 196.253  0.00  0.00    +0.000 C 
ATOM     10  C   UNL     1      22.121   1.239 189.940  0.00  0.00    +0.000 C 
ATOM     11  C   UNL     1      21.586   1.782 188.719  0.00  0.00    +0.000 C 
ATOM     12  O   UNL     1      21.275   1.021 187.814  0.00  0.00    +0.000 OA
ENDROOT
BRANCH   9  13
ATOM     13  C   UNL     1      20.294   0.662 196.696  0.00  0.00    +0.000 A 
ATOM     14  C   UNL     1      19.957   0.696 198.052  0.00  0.00    +0.000 A 
ATOM     15  C   UNL     1      18.667   0.380 198.475  0.00  0.00    +0.000 A 
ATOM     16  C   UNL     1      17.697   0.027 197.542  0.00  0.00    +0.000 A 
ATOM     17  C   UNL     1      18.017  -0.012 196.189  0.00  0.00    +0.000 A 
ATOM     18  C   UNL     1      19.309   0.304 195.772  0.00  0.00    +0.000 A 
ENDBRANCH   9  13
BRANCH  11  19
ATOM     19  C   UNL     1      21.443   3.244 188.603  0.00  0.00    +0.000 A 
ATOM     20  C   UNL     1      22.543   4.059 188.341  0.00  0.00    +0.000 A 
ATOM     21  C   UNL     1      22.375   5.437 188.230  0.00  0.00    +0.000 A 
ATOM     22  C   UNL     1      21.109   5.998 188.378  0.00  0.00    +0.000 A 
ATOM     23  C   UNL     1      20.009   5.183 188.636  0.00  0.00    +0.000 A 
ATOM     24  C   UNL     1      20.174   3.804 188.747  0.00  0.00    +0.000 A 
ENDBRANCH  11  19
BRANCH   9  25
ATOM     25  O   UNL     1      22.469   1.613 197.169  0.00  0.00    +0.000 OA
ATOM     26  H   UNL     1      22.939   0.971 197.727  0.00  0.00    +0.000 HD
ENDBRANCH   9  25
TORSDOF 3
ENDMDL
