MODEL 1
REMARK VINA RESULT:      -6.1      0.000      0.000
REMARK  Name = LUCANTHONE.pdbqt.pdb
REMARK  5 active torsions:
REMARK  status: ('A' for Active; 'I' for Inactive)
REMARK    1  A    between atoms: C_3  and  N_17
REMARK    2  A    between atoms: N_17  and  C_19
REMARK    3  A    between atoms: C_20  and  N_21
REMARK    4  A    between atoms: N_21  and  C_22
REMARK    5  A    between atoms: N_21  and  C_24
REMARK                            x       y       z     vdW  Elec       q    Type
REMARK                         _______ _______ _______ _____ _____    ______ ____
ROOT
ATOM      1  S   UNL     1      31.527  -0.896 164.459  0.00  0.00    +0.000 S 
ATOM      2  O   UNL     1      32.326   2.421 167.134  0.00  0.00    +0.000 OA
ATOM      3  C   UNL     1      34.469   1.837 165.434  0.00  0.00    +0.000 A 
ATOM      4  C   UNL     1      33.274   1.063 165.461  0.00  0.00    +0.000 A 
ATOM      5  C   UNL     1      33.041   0.066 164.491  0.00  0.00    +0.000 A 
ATOM      6  C   UNL     1      34.028  -0.150 163.500  0.00  0.00    +0.000 A 
ATOM      7  C   UNL     1      32.273   1.351 166.528  0.00  0.00    +0.000 A 
ATOM      8  C   UNL     1      35.424   1.563 164.449  0.00  0.00    +0.000 A 
ATOM      9  C   UNL     1      31.234   0.384 166.907  0.00  0.00    +0.000 A 
ATOM     10  C   UNL     1      35.204   0.593 163.485  0.00  0.00    +0.000 A 
ATOM     11  C   UNL     1      30.859  -0.658 166.070  0.00  0.00    +0.000 A 
ATOM     12  C   UNL     1      33.902  -1.186 162.405  0.00  0.00    +0.000 C 
ATOM     13  C   UNL     1      30.611   0.551 168.148  0.00  0.00    +0.000 A 
ATOM     14  C   UNL     1      29.860  -1.537 166.493  0.00  0.00    +0.000 A 
ATOM     15  C   UNL     1      29.621  -0.334 168.564  0.00  0.00    +0.000 A 
ATOM     16  C   UNL     1      29.245  -1.384 167.735  0.00  0.00    +0.000 A 
ENDROOT
BRANCH   3  17
ATOM     17  N   UNL     1      34.788   2.757 166.467  0.00  0.00    +0.000 N 
ATOM     18  H   UNL     1      33.973   3.339 166.716  0.00  0.00    +0.000 HD
BRANCH  17  19
ATOM     19  C   UNL     1      36.080   3.423 166.460  0.00  0.00    +0.000 C 
ATOM     20  C   UNL     1      37.442   4.123 166.453  0.00  0.00    +0.000 C 
BRANCH  20  21
ATOM     21  N   UNL     1      38.736   4.786 166.458  0.00  0.00    +0.000 N 
BRANCH  21  22
ATOM     22  C   UNL     1      39.707   3.842 165.938  0.00  0.00    +0.000 C 
ATOM     23  C   UNL     1      40.731   2.851 165.376  0.00  0.00    +0.000 C 
ENDBRANCH  21  22
BRANCH  21  24
ATOM     24  C   UNL     1      39.091   5.019 167.845  0.00  0.00    +0.000 C 
ATOM     25  C   UNL     1      39.448   5.275 169.313  0.00  0.00    +0.000 C 
ENDBRANCH  21  24
ENDBRANCH  20  21
ENDBRANCH  17  19
ENDBRANCH   3  17
TORSDOF 5
ENDMDL
MODEL 2
REMARK VINA RESULT:      -6.0     26.504     28.494
REMARK  Name = LUCANTHONE.pdbqt.pdb
REMARK  5 active torsions:
REMARK  status: ('A' for Active; 'I' for Inactive)
REMARK    1  A    between atoms: C_3  and  N_17
REMARK    2  A    between atoms: N_17  and  C_19
REMARK    3  A    between atoms: C_20  and  N_21
REMARK    4  A    between atoms: N_21  and  C_22
REMARK    5  A    between atoms: N_21  and  C_24
REMARK                            x       y       z     vdW  Elec       q    Type
REMARK                         _______ _______ _______ _____ _____    ______ ____
ROOT
ATOM      1  S   UNL     1      40.442 -19.961 173.822  0.00  0.00    +0.000 S 
ATOM      2  O   UNL     1      41.611 -24.104 173.304  0.00  0.00    +0.000 OA
ATOM      3  C   UNL     1      39.907 -23.707 175.485  0.00  0.00    +0.000 A 
ATOM      4  C   UNL     1      40.395 -22.636 174.685  0.00  0.00    +0.000 A 
ATOM      5  C   UNL     1      39.890 -21.329 174.845  0.00  0.00    +0.000 A 
ATOM      6  C   UNL     1      38.894 -21.111 175.827  0.00  0.00    +0.000 A 
ATOM      7  C   UNL     1      41.438 -22.940 173.662  0.00  0.00    +0.000 A 
ATOM      8  C   UNL     1      38.942 -23.430 176.460  0.00  0.00    +0.000 A 
ATOM      9  C   UNL     1      42.294 -21.895 173.085  0.00  0.00    +0.000 A 
ATOM     10  C   UNL     1      38.430 -22.154 176.622  0.00  0.00    +0.000 A 
ATOM     11  C   UNL     1      41.950 -20.552 173.134  0.00  0.00    +0.000 A 
ATOM     12  C   UNL     1      38.269 -19.760 176.099  0.00  0.00    +0.000 C 
ATOM     13  C   UNL     1      43.480 -22.298 172.461  0.00  0.00    +0.000 A 
ATOM     14  C   UNL     1      42.810 -19.614 172.559  0.00  0.00    +0.000 A 
ATOM     15  C   UNL     1      44.334 -21.355 171.897  0.00  0.00    +0.000 A 
ATOM     16  C   UNL     1      43.999 -20.007 171.948  0.00  0.00    +0.000 A 
ENDROOT
BRANCH   3  17
ATOM     17  N   UNL     1      40.484 -25.003 175.434  0.00  0.00    +0.000 N 
ATOM     18  H   UNL     1      40.872 -25.204 174.500  0.00  0.00    +0.000 HD
BRANCH  17  19
ATOM     19  C   UNL     1      39.826 -26.107 176.113  0.00  0.00    +0.000 C 
ATOM     20  C   UNL     1      39.131 -27.270 176.829  0.00  0.00    +0.000 C 
BRANCH  20  21
ATOM     21  N   UNL     1      38.472 -28.367 177.519  0.00  0.00    +0.000 N 
BRANCH  21  22
ATOM     22  C   UNL     1      37.990 -29.286 176.504  0.00  0.00    +0.000 C 
ATOM     23  C   UNL     1      37.487 -30.247 175.424  0.00  0.00    +0.000 C 
ENDBRANCH  21  22
BRANCH  21  24
ATOM     24  C   UNL     1      37.296 -27.818 178.168  0.00  0.00    +0.000 C 
ATOM     25  C   UNL     1      36.043 -27.250 178.841  0.00  0.00    +0.000 C 
ENDBRANCH  21  24
ENDBRANCH  20  21
ENDBRANCH  17  19
ENDBRANCH   3  17
TORSDOF 5
ENDMDL
MODEL 3
REMARK VINA RESULT:      -5.9     26.451     28.435
REMARK  Name = LUCANTHONE.pdbqt.pdb
REMARK  5 active torsions:
REMARK  status: ('A' for Active; 'I' for Inactive)
REMARK    1  A    between atoms: C_3  and  N_17
REMARK    2  A    between atoms: N_17  and  C_19
REMARK    3  A    between atoms: C_20  and  N_21
REMARK    4  A    between atoms: N_21  and  C_22
REMARK    5  A    between atoms: N_21  and  C_24
REMARK                            x       y       z     vdW  Elec       q    Type
REMARK                         _______ _______ _______ _____ _____    ______ ____
ROOT
ATOM      1  S   UNL     1      42.460 -22.909 172.529  0.00  0.00    +0.000 S 
ATOM      2  O   UNL     1      40.579 -22.245 176.378  0.00  0.00    +0.000 OA
ATOM      3  C   UNL     1      40.160 -24.823 175.379  0.00  0.00    +0.000 A 
ATOM      4  C   UNL     1      40.855 -23.818 174.649  0.00  0.00    +0.000 A 
ATOM      5  C   UNL     1      41.530 -24.135 173.452  0.00  0.00    +0.000 A 
ATOM      6  C   UNL     1      41.490 -25.473 172.994  0.00  0.00    +0.000 A 
ATOM      7  C   UNL     1      40.864 -22.431 175.196  0.00  0.00    +0.000 A 
ATOM      8  C   UNL     1      40.129 -26.125 174.865  0.00  0.00    +0.000 A 
ATOM      9  C   UNL     1      41.174 -21.263 174.360  0.00  0.00    +0.000 A 
ATOM     10  C   UNL     1      40.795 -26.452 173.696  0.00  0.00    +0.000 A 
ATOM     11  C   UNL     1      41.849 -21.381 173.154  0.00  0.00    +0.000 A 
ATOM     12  C   UNL     1      42.171 -25.945 171.727  0.00  0.00    +0.000 C 
ATOM     13  C   UNL     1      40.777 -20.005 174.827  0.00  0.00    +0.000 A 
ATOM     14  C   UNL     1      42.115 -20.226 172.414  0.00  0.00    +0.000 A 
ATOM     15  C   UNL     1      41.040 -18.862 174.079  0.00  0.00    +0.000 A 
ATOM     16  C   UNL     1      41.710 -18.972 172.866  0.00  0.00    +0.000 A 
ENDROOT
BRANCH   3  17
ATOM     17  N   UNL     1      39.368 -24.511 176.515  0.00  0.00    +0.000 N 
ATOM     18  H   UNL     1      39.922 -24.563 177.383  0.00  0.00    +0.000 HD
BRANCH  17  19
ATOM     19  C   UNL     1      38.000 -24.996 176.590  0.00  0.00    +0.000 C 
ATOM     20  C   UNL     1      36.558 -25.508 176.668  0.00  0.00    +0.000 C 
BRANCH  20  21
ATOM     21  N   UNL     1      35.191 -25.999 176.732  0.00  0.00    +0.000 N 
BRANCH  21  22
ATOM     22  C   UNL     1      35.197 -27.184 177.571  0.00  0.00    +0.000 C 
ATOM     23  C   UNL     1      35.189 -28.429 178.461  0.00  0.00    +0.000 C 
ENDBRANCH  21  22
BRANCH  21  24
ATOM     24  C   UNL     1      34.834 -26.443 175.397  0.00  0.00    +0.000 C 
ATOM     25  C   UNL     1      34.478 -26.915 173.984  0.00  0.00    +0.000 C 
ENDBRANCH  21  24
ENDBRANCH  20  21
ENDBRANCH  17  19
ENDBRANCH   3  17
TORSDOF 5
ENDMDL
MODEL 4
REMARK VINA RESULT:      -5.7     33.680     36.431
REMARK  Name = LUCANTHONE.pdbqt.pdb
REMARK  5 active torsions:
REMARK  status: ('A' for Active; 'I' for Inactive)
REMARK    1  A    between atoms: C_3  and  N_17
REMARK    2  A    between atoms: N_17  and  C_19
REMARK    3  A    between atoms: C_20  and  N_21
REMARK    4  A    between atoms: N_21  and  C_22
REMARK    5  A    between atoms: N_21  and  C_24
REMARK                            x       y       z     vdW  Elec       q    Type
REMARK                         _______ _______ _______ _____ _____    ______ ____
ROOT
ATOM      1  S   UNL     1      30.787 -18.686 200.120  0.00  0.00    +0.000 S 
ATOM      2  O   UNL     1      31.854 -16.924 196.305  0.00  0.00    +0.000 OA
ATOM      3  C   UNL     1      29.873 -15.491 197.663  0.00  0.00    +0.000 A 
ATOM      4  C   UNL     1      30.409 -16.716 198.152  0.00  0.00    +0.000 A 
ATOM      5  C   UNL     1      30.094 -17.174 199.448  0.00  0.00    +0.000 A 
ATOM      6  C   UNL     1      29.225 -16.389 200.243  0.00  0.00    +0.000 A 
ATOM      7  C   UNL     1      31.326 -17.487 197.263  0.00  0.00    +0.000 A 
ATOM      8  C   UNL     1      28.997 -14.769 198.481  0.00  0.00    +0.000 A 
ATOM      9  C   UNL     1      31.602 -18.915 197.474  0.00  0.00    +0.000 A 
ATOM     10  C   UNL     1      28.686 -15.201 199.759  0.00  0.00    +0.000 A 
ATOM     11  C   UNL     1      31.368 -19.536 198.692  0.00  0.00    +0.000 A 
ATOM     12  C   UNL     1      28.807 -16.766 201.647  0.00  0.00    +0.000 C 
ATOM     13  C   UNL     1      32.128 -19.641 196.400  0.00  0.00    +0.000 A 
ATOM     14  C   UNL     1      31.659 -20.896 198.822  0.00  0.00    +0.000 A 
ATOM     15  C   UNL     1      32.408 -20.997 196.537  0.00  0.00    +0.000 A 
ATOM     16  C   UNL     1      32.170 -21.628 197.753  0.00  0.00    +0.000 A 
ENDROOT
BRANCH   3  17
ATOM     17  N   UNL     1      30.071 -15.069 196.322  0.00  0.00    +0.000 N 
ATOM     18  H   UNL     1      30.624 -15.759 195.790  0.00  0.00    +0.000 HD
BRANCH  17  19
ATOM     19  C   UNL     1      30.344 -13.669 196.045  0.00  0.00    +0.000 C 
ATOM     20  C   UNL     1      30.633 -12.193 195.753  0.00  0.00    +0.000 C 
BRANCH  20  21
ATOM     21  N   UNL     1      30.911 -10.791 195.487  0.00  0.00    +0.000 N 
BRANCH  21  22
ATOM     22  C   UNL     1      31.743 -10.733 194.300  0.00  0.00    +0.000 C 
ATOM     23  C   UNL     1      32.613 -10.683 193.041  0.00  0.00    +0.000 C 
ENDBRANCH  21  22
BRANCH  21  24
ATOM     24  C   UNL     1      31.724 -10.301 196.584  0.00  0.00    +0.000 C 
ATOM     25  C   UNL     1      32.569  -9.792 197.756  0.00  0.00    +0.000 C 
ENDBRANCH  21  24
ENDBRANCH  20  21
ENDBRANCH  17  19
ENDBRANCH   3  17
TORSDOF 5
ENDMDL
MODEL 5
REMARK VINA RESULT:      -5.6     10.594     12.196
REMARK  Name = LUCANTHONE.pdbqt.pdb
REMARK  5 active torsions:
REMARK  status: ('A' for Active; 'I' for Inactive)
REMARK    1  A    between atoms: C_3  and  N_17
REMARK    2  A    between atoms: N_17  and  C_19
REMARK    3  A    between atoms: C_20  and  N_21
REMARK    4  A    between atoms: N_21  and  C_22
REMARK    5  A    between atoms: N_21  and  C_24
REMARK                            x       y       z     vdW  Elec       q    Type
REMARK                         _______ _______ _______ _____ _____    ______ ____
ROOT
ATOM      1  S   UNL     1      23.040   8.876 168.889  0.00  0.00    +0.000 S 
ATOM      2  O   UNL     1      26.825  10.824 168.067  0.00  0.00    +0.000 OA
ATOM      3  C   UNL     1      25.694   9.620 165.810  0.00  0.00    +0.000 A 
ATOM      4  C   UNL     1      25.112   9.525 167.106  0.00  0.00    +0.000 A 
ATOM      5  C   UNL     1      23.829   8.968 167.280  0.00  0.00    +0.000 A 
ATOM      6  C   UNL     1      23.141   8.499 166.136  0.00  0.00    +0.000 A 
ATOM      7  C   UNL     1      25.890  10.049 168.266  0.00  0.00    +0.000 A 
ATOM      8  C   UNL     1      24.981   9.116 164.717  0.00  0.00    +0.000 A 
ATOM      9  C   UNL     1      25.598   9.646 169.649  0.00  0.00    +0.000 A 
ATOM     10  C   UNL     1      23.716   8.574 164.872  0.00  0.00    +0.000 A 
ATOM     11  C   UNL     1      24.379   9.093 170.011  0.00  0.00    +0.000 A 
ATOM     12  C   UNL     1      21.761   7.880 166.184  0.00  0.00    +0.000 C 
ATOM     13  C   UNL     1      26.594   9.851 170.610  0.00  0.00    +0.000 A 
ATOM     14  C   UNL     1      24.168   8.738 171.346  0.00  0.00    +0.000 A 
ATOM     15  C   UNL     1      26.378   9.488 171.936  0.00  0.00    +0.000 A 
ATOM     16  C   UNL     1      25.161   8.927 172.305  0.00  0.00    +0.000 A 
ENDROOT
BRANCH   3  17
ATOM     17  N   UNL     1      27.030  10.059 165.619  0.00  0.00    +0.000 N 
ATOM     18  H   UNL     1      27.197  10.966 166.081  0.00  0.00    +0.000 HD
BRANCH  17  19
ATOM     19  C   UNL     1      27.672   9.862 164.330  0.00  0.00    +0.000 C 
ATOM     20  C   UNL     1      28.347   9.653 162.971  0.00  0.00    +0.000 C 
BRANCH  20  21
ATOM     21  N   UNL     1      28.994   9.445 161.686  0.00  0.00    +0.000 N 
BRANCH  21  22
ATOM     22  C   UNL     1      29.756   8.214 161.780  0.00  0.00    +0.000 C 
ATOM     23  C   UNL     1      30.571   6.922 161.882  0.00  0.00    +0.000 C 
ENDBRANCH  21  22
BRANCH  21  24
ATOM     24  C   UNL     1      29.960  10.514 161.517  0.00  0.00    +0.000 C 
ATOM     25  C   UNL     1      30.985  11.635 161.319  0.00  0.00    +0.000 C 
ENDBRANCH  21  24
ENDBRANCH  20  21
ENDBRANCH  17  19
ENDBRANCH   3  17
TORSDOF 5
ENDMDL
MODEL 6
REMARK VINA RESULT:      -5.4     24.920     27.117
REMARK  Name = LUCANTHONE.pdbqt.pdb
REMARK  5 active torsions:
REMARK  status: ('A' for Active; 'I' for Inactive)
REMARK    1  A    between atoms: C_3  and  N_17
REMARK    2  A    between atoms: N_17  and  C_19
REMARK    3  A    between atoms: C_20  and  N_21
REMARK    4  A    between atoms: N_21  and  C_22
REMARK    5  A    between atoms: N_21  and  C_24
REMARK                            x       y       z     vdW  Elec       q    Type
REMARK                         _______ _______ _______ _____ _____    ______ ____
ROOT
ATOM      1  S   UNL     1      41.175 -19.913 172.860  0.00  0.00    +0.000 S 
ATOM      2  O   UNL     1      38.110 -22.081 170.692  0.00  0.00    +0.000 OA
ATOM      3  C   UNL     1      38.913 -23.367 173.042  0.00  0.00    +0.000 A 
ATOM      4  C   UNL     1      39.516 -22.163 172.578  0.00  0.00    +0.000 A 
ATOM      5  C   UNL     1      40.432 -21.458 173.386  0.00  0.00    +0.000 A 
ATOM      6  C   UNL     1      40.741 -21.984 174.663  0.00  0.00    +0.000 A 
ATOM      7  C   UNL     1      39.136 -21.662 171.225  0.00  0.00    +0.000 A 
ATOM      8  C   UNL     1      39.276 -23.856 174.302  0.00  0.00    +0.000 A 
ATOM      9  C   UNL     1      39.966 -20.701 170.486  0.00  0.00    +0.000 A 
ATOM     10  C   UNL     1      40.167 -23.170 175.110  0.00  0.00    +0.000 A 
ATOM     11  C   UNL     1      40.912 -19.908 171.119  0.00  0.00    +0.000 A 
ATOM     12  C   UNL     1      41.705 -21.328 175.627  0.00  0.00    +0.000 C 
ATOM     13  C   UNL     1      39.765 -20.595 169.106  0.00  0.00    +0.000 A 
ATOM     14  C   UNL     1      41.662 -19.011 170.354  0.00  0.00    +0.000 A 
ATOM     15  C   UNL     1      40.522 -19.704 168.351  0.00  0.00    +0.000 A 
ATOM     16  C   UNL     1      41.476 -18.911 168.977  0.00  0.00    +0.000 A 
ENDROOT
BRANCH   3  17
ATOM     17  N   UNL     1      38.088 -24.162 172.204  0.00  0.00    +0.000 N 
ATOM     18  H   UNL     1      37.672 -23.600 171.446  0.00  0.00    +0.000 HD
BRANCH  17  19
ATOM     19  C   UNL     1      37.238 -25.181 172.796  0.00  0.00    +0.000 C 
ATOM     20  C   UNL     1      36.342 -26.255 173.422  0.00  0.00    +0.000 C 
BRANCH  20  21
ATOM     21  N   UNL     1      35.499 -27.274 174.025  0.00  0.00    +0.000 N 
BRANCH  21  22
ATOM     22  C   UNL     1      35.206 -26.846 175.380  0.00  0.00    +0.000 C 
ATOM     23  C   UNL     1      34.912 -26.395 176.814  0.00  0.00    +0.000 C 
ENDBRANCH  21  22
BRANCH  21  24
ATOM     24  C   UNL     1      36.299 -28.478 174.138  0.00  0.00    +0.000 C 
ATOM     25  C   UNL     1      37.147 -29.746 174.278  0.00  0.00    +0.000 C 
ENDBRANCH  21  24
ENDBRANCH  20  21
ENDBRANCH  17  19
ENDBRANCH   3  17
TORSDOF 5
ENDMDL
MODEL 7
REMARK VINA RESULT:      -5.3     12.507     15.047
REMARK  Name = LUCANTHONE.pdbqt.pdb
REMARK  5 active torsions:
REMARK  status: ('A' for Active; 'I' for Inactive)
REMARK    1  A    between atoms: C_3  and  N_17
REMARK    2  A    between atoms: N_17  and  C_19
REMARK    3  A    between atoms: C_20  and  N_21
REMARK    4  A    between atoms: N_21  and  C_22
REMARK    5  A    between atoms: N_21  and  C_24
REMARK                            x       y       z     vdW  Elec       q    Type
REMARK                         _______ _______ _______ _____ _____    ______ ____
ROOT
ATOM      1  S   UNL     1      26.581   9.692 167.392  0.00  0.00    +0.000 S 
ATOM      2  O   UNL     1      23.111   7.680 169.038  0.00  0.00    +0.000 OA
ATOM      3  C   UNL     1      22.864   8.244 166.310  0.00  0.00    +0.000 A 
ATOM      4  C   UNL     1      23.987   8.653 167.082  0.00  0.00    +0.000 A 
ATOM      5  C   UNL     1      25.125   9.209 166.460  0.00  0.00    +0.000 A 
ATOM      6  C   UNL     1      25.115   9.356 165.053  0.00  0.00    +0.000 A 
ATOM      7  C   UNL     1      23.933   8.460 168.560  0.00  0.00    +0.000 A 
ATOM      8  C   UNL     1      22.896   8.438 164.924  0.00  0.00    +0.000 A 
ATOM      9  C   UNL     1      24.814   9.195 169.478  0.00  0.00    +0.000 A 
ATOM     10  C   UNL     1      24.010   8.973 164.299  0.00  0.00    +0.000 A 
ATOM     11  C   UNL     1      25.988   9.796 169.046  0.00  0.00    +0.000 A 
ATOM     12  C   UNL     1      26.268   9.937 164.264  0.00  0.00    +0.000 C 
ATOM     13  C   UNL     1      24.440   9.264 170.824  0.00  0.00    +0.000 A 
ATOM     14  C   UNL     1      26.780  10.475 169.976  0.00  0.00    +0.000 A 
ATOM     15  C   UNL     1      25.231   9.947 171.741  0.00  0.00    +0.000 A 
ATOM     16  C   UNL     1      26.405  10.558 171.315  0.00  0.00    +0.000 A 
ENDROOT
BRANCH   3  17
ATOM     17  N   UNL     1      21.660   7.800 166.916  0.00  0.00    +0.000 N 
ATOM     18  H   UNL     1      21.781   7.660 167.931  0.00  0.00    +0.000 HD
BRANCH  17  19
ATOM     19  C   UNL     1      20.824   6.833 166.225  0.00  0.00    +0.000 C 
ATOM     20  C   UNL     1      19.943   5.814 165.495  0.00  0.00    +0.000 C 
BRANCH  20  21
ATOM     21  N   UNL     1      19.108   4.853 164.792  0.00  0.00    +0.000 N 
BRANCH  21  22
ATOM     22  C   UNL     1      17.937   4.616 165.617  0.00  0.00    +0.000 C 
ATOM     23  C   UNL     1      16.693   4.364 166.474  0.00  0.00    +0.000 C 
ENDBRANCH  21  22
BRANCH  21  24
ATOM     24  C   UNL     1      19.840   3.602 164.749  0.00  0.00    +0.000 C 
ATOM     25  C   UNL     1      20.607   2.278 164.683  0.00  0.00    +0.000 C 
ENDBRANCH  21  24
ENDBRANCH  20  21
ENDBRANCH  17  19
ENDBRANCH   3  17
TORSDOF 5
ENDMDL
MODEL 8
REMARK VINA RESULT:      -5.3     26.799     28.669
REMARK  Name = LUCANTHONE.pdbqt.pdb
REMARK  5 active torsions:
REMARK  status: ('A' for Active; 'I' for Inactive)
REMARK    1  A    between atoms: C_3  and  N_17
REMARK    2  A    between atoms: N_17  and  C_19
REMARK    3  A    between atoms: C_20  and  N_21
REMARK    4  A    between atoms: N_21  and  C_22
REMARK    5  A    between atoms: N_21  and  C_24
REMARK                            x       y       z     vdW  Elec       q    Type
REMARK                         _______ _______ _______ _____ _____    ______ ____
ROOT
ATOM      1  S   UNL     1      52.229 -22.892 171.761  0.00  0.00    +0.000 S 
ATOM      2  O   UNL     1      50.013 -20.235 174.373  0.00  0.00    +0.000 OA
ATOM      3  C   UNL     1      48.419 -21.431 172.411  0.00  0.00    +0.000 A 
ATOM      4  C   UNL     1      49.827 -21.624 172.482  0.00  0.00    +0.000 A 
ATOM      5  C   UNL     1      50.464 -22.583 171.668  0.00  0.00    +0.000 A 
ATOM      6  C   UNL     1      49.668 -23.339 170.775  0.00  0.00    +0.000 A 
ATOM      7  C   UNL     1      50.603 -20.798 173.453  0.00  0.00    +0.000 A 
ATOM      8  C   UNL     1      47.683 -22.186 171.491  0.00  0.00    +0.000 A 
ATOM      9  C   UNL     1      52.055 -20.608 173.331  0.00  0.00    +0.000 A 
ATOM     10  C   UNL     1      48.294 -23.138 170.692  0.00  0.00    +0.000 A 
ATOM     11  C   UNL     1      52.849 -21.464 172.583  0.00  0.00    +0.000 A 
ATOM     12  C   UNL     1      50.225 -24.398 169.848  0.00  0.00    +0.000 C 
ATOM     13  C   UNL     1      52.627 -19.529 174.013  0.00  0.00    +0.000 A 
ATOM     14  C   UNL     1      54.223 -21.225 172.517  0.00  0.00    +0.000 A 
ATOM     15  C   UNL     1      53.997 -19.294 173.936  0.00  0.00    +0.000 A 
ATOM     16  C   UNL     1      54.798 -20.144 173.182  0.00  0.00    +0.000 A 
ENDROOT
BRANCH   3  17
ATOM     17  N   UNL     1      47.769 -20.389 173.124  0.00  0.00    +0.000 N 
ATOM     18  H   UNL     1      48.102 -20.339 174.099  0.00  0.00    +0.000 HD
BRANCH  17  19
ATOM     19  C   UNL     1      46.351 -20.152 172.911  0.00  0.00    +0.000 C 
ATOM     20  C   UNL     1      44.857 -19.901 172.685  0.00  0.00    +0.000 C 
BRANCH  20  21
ATOM     21  N   UNL     1      43.441 -19.653 172.464  0.00  0.00    +0.000 N 
BRANCH  21  22
ATOM     22  C   UNL     1      42.705 -20.580 173.303  0.00  0.00    +0.000 C 
ATOM     23  C   UNL     1      41.939 -21.557 174.199  0.00  0.00    +0.000 C 
ENDBRANCH  21  22
BRANCH  21  24
ATOM     24  C   UNL     1      43.152 -20.022 171.091  0.00  0.00    +0.000 C 
ATOM     25  C   UNL     1      42.854 -20.431 169.645  0.00  0.00    +0.000 C 
ENDBRANCH  21  24
ENDBRANCH  20  21
ENDBRANCH  17  19
ENDBRANCH   3  17
TORSDOF 5
ENDMDL
MODEL 9
REMARK VINA RESULT:      -5.2     27.453     29.282
REMARK  Name = LUCANTHONE.pdbqt.pdb
REMARK  5 active torsions:
REMARK  status: ('A' for Active; 'I' for Inactive)
REMARK    1  A    between atoms: C_3  and  N_17
REMARK    2  A    between atoms: N_17  and  C_19
REMARK    3  A    between atoms: C_20  and  N_21
REMARK    4  A    between atoms: N_21  and  C_22
REMARK    5  A    between atoms: N_21  and  C_24
REMARK                            x       y       z     vdW  Elec       q    Type
REMARK                         _______ _______ _______ _____ _____    ______ ____
ROOT
ATOM      1  S   UNL     1      34.165 -28.961 176.742  0.00  0.00    +0.000 S 
ATOM      2  O   UNL     1      35.281 -27.649 172.763  0.00  0.00    +0.000 OA
ATOM      3  C   UNL     1      36.482 -26.147 174.794  0.00  0.00    +0.000 A 
ATOM      4  C   UNL     1      35.540 -27.182 175.056  0.00  0.00    +0.000 A 
ATOM      5  C   UNL     1      35.305 -27.625 176.374  0.00  0.00    +0.000 A 
ATOM      6  C   UNL     1      36.022 -27.007 177.427  0.00  0.00    +0.000 A 
ATOM      7  C   UNL     1      34.828 -27.795 173.898  0.00  0.00    +0.000 A 
ATOM      8  C   UNL     1      37.142 -25.552 175.875  0.00  0.00    +0.000 A 
ATOM      9  C   UNL     1      33.577 -28.548 174.059  0.00  0.00    +0.000 A 
ATOM     10  C   UNL     1      36.928 -25.983 177.173  0.00  0.00    +0.000 A 
ATOM     11  C   UNL     1      33.188 -29.074 175.282  0.00  0.00    +0.000 A 
ATOM     12  C   UNL     1      35.864 -27.388 178.883  0.00  0.00    +0.000 C 
ATOM     13  C   UNL     1      32.780 -28.735 172.924  0.00  0.00    +0.000 A 
ATOM     14  C   UNL     1      31.988 -29.784 175.361  0.00  0.00    +0.000 A 
ATOM     15  C   UNL     1      31.582 -29.438 173.014  0.00  0.00    +0.000 A 
ATOM     16  C   UNL     1      31.183 -29.963 174.237  0.00  0.00    +0.000 A 
ENDROOT
BRANCH   3  17
ATOM     17  N   UNL     1      36.646 -25.595 173.497  0.00  0.00    +0.000 N 
ATOM     18  H   UNL     1      36.679 -26.333 172.777  0.00  0.00    +0.000 HD
BRANCH  17  19
ATOM     19  C   UNL     1      37.541 -24.466 173.307  0.00  0.00    +0.000 C 
ATOM     20  C   UNL     1      38.486 -23.277 173.107  0.00  0.00    +0.000 C 
BRANCH  20  21
ATOM     21  N   UNL     1      39.385 -22.148 172.930  0.00  0.00    +0.000 N 
BRANCH  21  22
ATOM     22  C   UNL     1      40.739 -22.645 173.092  0.00  0.00    +0.000 C 
ATOM     23  C   UNL     1      42.171 -23.157 173.272  0.00  0.00    +0.000 C 
ENDBRANCH  21  22
BRANCH  21  24
ATOM     24  C   UNL     1      39.147 -21.236 174.032  0.00  0.00    +0.000 C 
ATOM     25  C   UNL     1      38.912 -20.281 175.207  0.00  0.00    +0.000 C 
ENDBRANCH  21  24
ENDBRANCH  20  21
ENDBRANCH  17  19
ENDBRANCH   3  17
TORSDOF 5
ENDMDL
