MODEL 1
REMARK VINA RESULT:      -7.1      0.000      0.000
REMARK  Name = MeIQx.pdbqt.pdb
REMARK  0 active torsions:
REMARK  status: ('A' for Active; 'I' for Inactive)
REMARK                            x       y       z     vdW  Elec       q    Type
REMARK                         _______ _______ _______ _____ _____    ______ ____
ROOT
ATOM      1  N   UNL     1      18.910   2.168 189.675  0.00  0.00    +0.000 N 
ATOM      2  N   UNL     1      20.842   3.115 190.199  0.00  0.00    +0.000 NA
ATOM      3  N   UNL     1      22.540   4.463 188.218  0.00  0.00    +0.000 NA
ATOM      4  N   UNL     1      21.601   4.513 185.532  0.00  0.00    +0.000 NA
ATOM      5  C   UNL     1      19.381   2.673 188.493  0.00  0.00    +0.000 A 
ATOM      6  C   UNL     1      20.595   3.264 188.843  0.00  0.00    +0.000 A 
ATOM      7  C   UNL     1      21.363   3.898 187.835  0.00  0.00    +0.000 A 
ATOM      8  C   UNL     1      20.884   3.915 186.502  0.00  0.00    +0.000 A 
ATOM      9  C   UNL     1      19.818   2.448 190.684  0.00  0.00    +0.000 A 
ATOM     10  C   UNL     1      18.882   2.677 187.188  0.00  0.00    +0.000 A 
ATOM     11  C   UNL     1      19.667   3.309 186.219  0.00  0.00    +0.000 A 
ATOM     12  C   UNL     1      17.655   1.493 189.839  0.00  0.00    +0.000 C 
ATOM     13  C   UNL     1      23.243   5.055 187.232  0.00  0.00    +0.000 A 
ATOM     14  C   UNL     1      22.781   5.078 185.919  0.00  0.00    +0.000 A 
ATOM     15  C   UNL     1      24.553   5.706 187.574  0.00  0.00    +0.000 C 
ATOM     16  N   UNL     1      19.659   2.082 191.975  0.00  0.00    +0.000 N 
ATOM     17  H   UNL     1      20.269   2.501 192.671  0.00  0.00    +0.000 HD
ATOM     18  H   UNL     1      18.756   1.766 192.321  0.00  0.00    +0.000 HD
ENDROOT
TORSDOF 0
ENDMDL
MODEL 2
REMARK VINA RESULT:      -6.6      3.084      4.321
REMARK  Name = MeIQx.pdbqt.pdb
REMARK  0 active torsions:
REMARK  status: ('A' for Active; 'I' for Inactive)
REMARK                            x       y       z     vdW  Elec       q    Type
REMARK                         _______ _______ _______ _____ _____    ______ ____
ROOT
ATOM      1  N   UNL     1      23.892   0.644 189.726  0.00  0.00    +0.000 N 
ATOM      2  N   UNL     1      24.313   1.452 187.708  0.00  0.00    +0.000 NA
ATOM      3  N   UNL     1      22.268   2.777 186.069  0.00  0.00    +0.000 NA
ATOM      4  N   UNL     1      19.659   2.994 187.185  0.00  0.00    +0.000 NA
ATOM      5  C   UNL     1      22.699   1.170 189.308  0.00  0.00    +0.000 A 
ATOM      6  C   UNL     1      22.984   1.671 188.038  0.00  0.00    +0.000 A 
ATOM      7  C   UNL     1      21.948   2.299 187.302  0.00  0.00    +0.000 A 
ATOM      8  C   UNL     1      20.655   2.401 187.870  0.00  0.00    +0.000 A 
ATOM      9  C   UNL     1      24.844   0.828 188.736  0.00  0.00    +0.000 A 
ATOM     10  C   UNL     1      21.435   1.257 189.894  0.00  0.00    +0.000 A 
ATOM     11  C   UNL     1      20.437   1.881 189.138  0.00  0.00    +0.000 A 
ATOM     12  C   UNL     1      24.120   0.039 191.007  0.00  0.00    +0.000 C 
ATOM     13  C   UNL     1      21.256   3.366 185.400  0.00  0.00    +0.000 A 
ATOM     14  C   UNL     1      19.982   3.471 185.948  0.00  0.00    +0.000 A 
ATOM     15  C   UNL     1      21.529   3.923 184.031  0.00  0.00    +0.000 C 
ATOM     16  N   UNL     1      26.129   0.419 188.828  0.00  0.00    +0.000 N 
ATOM     17  H   UNL     1      26.795   0.772 188.147  0.00  0.00    +0.000 HD
ATOM     18  H   UNL     1      26.526   0.143 189.723  0.00  0.00    +0.000 HD
ENDROOT
TORSDOF 0
ENDMDL
MODEL 3
REMARK VINA RESULT:      -6.3      2.389      4.806
REMARK  Name = MeIQx.pdbqt.pdb
REMARK  0 active torsions:
REMARK  status: ('A' for Active; 'I' for Inactive)
REMARK                            x       y       z     vdW  Elec       q    Type
REMARK                         _______ _______ _______ _____ _____    ______ ____
ROOT
ATOM      1  N   UNL     1      20.090   0.959 194.040  0.00  0.00    +0.000 N 
ATOM      2  N   UNL     1      18.735   0.763 192.299  0.00  0.00    +0.000 NA
ATOM      3  N   UNL     1      19.122   2.270 189.809  0.00  0.00    +0.000 NA
ATOM      4  N   UNL     1      21.351   4.037 189.699  0.00  0.00    +0.000 NA
ATOM      5  C   UNL     1      20.606   1.812 193.102  0.00  0.00    +0.000 A 
ATOM      6  C   UNL     1      19.741   1.675 192.017  0.00  0.00    +0.000 A 
ATOM      7  C   UNL     1      19.988   2.433 190.845  0.00  0.00    +0.000 A 
ATOM      8  C   UNL     1      21.101   3.308 190.804  0.00  0.00    +0.000 A 
ATOM      9  C   UNL     1      18.959   0.346 193.525  0.00  0.00    +0.000 A 
ATOM     10  C   UNL     1      21.712   2.665 193.090  0.00  0.00    +0.000 A 
ATOM     11  C   UNL     1      21.924   3.398 191.918  0.00  0.00    +0.000 A 
ATOM     12  C   UNL     1      20.662   0.715 195.333  0.00  0.00    +0.000 C 
ATOM     13  C   UNL     1      19.390   3.008 188.712  0.00  0.00    +0.000 A 
ATOM     14  C   UNL     1      20.480   3.871 188.662  0.00  0.00    +0.000 A 
ATOM     15  C   UNL     1      18.481   2.883 187.522  0.00  0.00    +0.000 C 
ATOM     16  N   UNL     1      18.205  -0.552 194.199  0.00  0.00    +0.000 N 
ATOM     17  H   UNL     1      17.522  -1.093 193.677  0.00  0.00    +0.000 HD
ATOM     18  H   UNL     1      18.552  -0.992 195.048  0.00  0.00    +0.000 HD
ENDROOT
TORSDOF 0
ENDMDL
MODEL 4
REMARK VINA RESULT:      -5.6     31.195     33.756
REMARK  Name = MeIQx.pdbqt.pdb
REMARK  0 active torsions:
REMARK  status: ('A' for Active; 'I' for Inactive)
REMARK                            x       y       z     vdW  Elec       q    Type
REMARK                         _______ _______ _______ _____ _____    ______ ____
ROOT
ATOM      1  N   UNL     1      45.848  -1.442 165.382  0.00  0.00    +0.000 N 
ATOM      2  N   UNL     1      44.234  -1.964 166.806  0.00  0.00    +0.000 NA
ATOM      3  N   UNL     1      43.274  -4.714 167.180  0.00  0.00    +0.000 NA
ATOM      4  N   UNL     1      44.515  -6.741 165.615  0.00  0.00    +0.000 NA
ATOM      5  C   UNL     1      45.701  -2.798 165.258  0.00  0.00    +0.000 A 
ATOM      6  C   UNL     1      44.682  -3.106 166.159  0.00  0.00    +0.000 A 
ATOM      7  C   UNL     1      44.269  -4.455 166.289  0.00  0.00    +0.000 A 
ATOM      8  C   UNL     1      44.895  -5.454 165.504  0.00  0.00    +0.000 A 
ATOM      9  C   UNL     1      44.945  -0.970 166.321  0.00  0.00    +0.000 A 
ATOM     10  C   UNL     1      46.338  -3.761 164.472  0.00  0.00    +0.000 A 
ATOM     11  C   UNL     1      45.903  -5.081 164.625  0.00  0.00    +0.000 A 
ATOM     12  C   UNL     1      46.816  -0.652 164.678  0.00  0.00    +0.000 C 
ATOM     13  C   UNL     1      42.908  -6.008 167.275  0.00  0.00    +0.000 A 
ATOM     14  C   UNL     1      43.516  -6.997 166.508  0.00  0.00    +0.000 A 
ATOM     15  C   UNL     1      41.817  -6.377 168.240  0.00  0.00    +0.000 C 
ATOM     16  N   UNL     1      44.825   0.328 166.678  0.00  0.00    +0.000 N 
ATOM     17  H   UNL     1      44.284   0.550 167.509  0.00  0.00    +0.000 HD
ATOM     18  H   UNL     1      45.543   1.005 166.432  0.00  0.00    +0.000 HD
ENDROOT
TORSDOF 0
ENDMDL
MODEL 5
REMARK VINA RESULT:      -5.5      2.896      4.566
REMARK  Name = MeIQx.pdbqt.pdb
REMARK  0 active torsions:
REMARK  status: ('A' for Active; 'I' for Inactive)
REMARK                            x       y       z     vdW  Elec       q    Type
REMARK                         _______ _______ _______ _____ _____    ______ ____
ROOT
ATOM      1  N   UNL     1      22.388   0.846 193.180  0.00  0.00    +0.000 N 
ATOM      2  N   UNL     1      20.623   1.969 192.453  0.00  0.00    +0.000 NA
ATOM      3  N   UNL     1      20.113   2.453 189.602  0.00  0.00    +0.000 NA
ATOM      4  N   UNL     1      22.009   1.408 187.754  0.00  0.00    +0.000 NA
ATOM      5  C   UNL     1      22.517   0.850 191.817  0.00  0.00    +0.000 A 
ATOM      6  C   UNL     1      21.400   1.561 191.379  0.00  0.00    +0.000 A 
ATOM      7  C   UNL     1      21.216   1.757 189.988  0.00  0.00    +0.000 A 
ATOM      8  C   UNL     1      22.167   1.231 189.080  0.00  0.00    +0.000 A 
ATOM      9  C   UNL     1      21.237   1.533 193.531  0.00  0.00    +0.000 A 
ATOM     10  C   UNL     1      23.470   0.318 190.945  0.00  0.00    +0.000 A 
ATOM     11  C   UNL     1      23.258   0.533 189.580  0.00  0.00    +0.000 A 
ATOM     12  C   UNL     1      23.286   0.194 194.090  0.00  0.00    +0.000 C 
ATOM     13  C   UNL     1      19.973   2.620 188.271  0.00  0.00    +0.000 A 
ATOM     14  C   UNL     1      20.902   2.107 187.370  0.00  0.00    +0.000 A 
ATOM     15  C   UNL     1      18.779   3.376 187.764  0.00  0.00    +0.000 C 
ATOM     16  N   UNL     1      20.817   1.719 194.802  0.00  0.00    +0.000 N 
ATOM     17  H   UNL     1      19.871   2.055 194.951  0.00  0.00    +0.000 HD
ATOM     18  H   UNL     1      21.213   1.177 195.567  0.00  0.00    +0.000 HD
ENDROOT
TORSDOF 0
ENDMDL
MODEL 6
REMARK VINA RESULT:      -5.4      3.693      5.946
REMARK  Name = MeIQx.pdbqt.pdb
REMARK  0 active torsions:
REMARK  status: ('A' for Active; 'I' for Inactive)
REMARK                            x       y       z     vdW  Elec       q    Type
REMARK                         _______ _______ _______ _____ _____    ______ ____
ROOT
ATOM      1  N   UNL     1      23.642  -0.742 192.722  0.00  0.00    +0.000 N 
ATOM      2  N   UNL     1      21.503  -0.523 193.250  0.00  0.00    +0.000 NA
ATOM      3  N   UNL     1      19.559   0.797 191.489  0.00  0.00    +0.000 NA
ATOM      4  N   UNL     1      20.536   1.814 189.017  0.00  0.00    +0.000 NA
ATOM      5  C   UNL     1      23.088  -0.083 191.657  0.00  0.00    +0.000 A 
ATOM      6  C   UNL     1      21.744   0.046 192.009  0.00  0.00    +0.000 A 
ATOM      7  C   UNL     1      20.861   0.694 191.110  0.00  0.00    +0.000 A 
ATOM      8  C   UNL     1      21.361   1.195 189.883  0.00  0.00    +0.000 A 
ATOM      9  C   UNL     1      22.659  -0.988 193.667  0.00  0.00    +0.000 A 
ATOM     10  C   UNL     1      23.609   0.399 190.454  0.00  0.00    +0.000 A 
ATOM     11  C   UNL     1      22.709   1.035 189.593  0.00  0.00    +0.000 A 
ATOM     12  C   UNL     1      25.016  -1.145 192.815  0.00  0.00    +0.000 C 
ATOM     13  C   UNL     1      18.750   1.421 190.609  0.00  0.00    +0.000 A 
ATOM     14  C   UNL     1      19.231   1.917 189.401  0.00  0.00    +0.000 A 
ATOM     15  C   UNL     1      17.295   1.573 190.952  0.00  0.00    +0.000 C 
ATOM     16  N   UNL     1      22.874  -1.618 194.843  0.00  0.00    +0.000 N 
ATOM     17  H   UNL     1      22.067  -1.930 195.376  0.00  0.00    +0.000 HD
ATOM     18  H   UNL     1      23.731  -2.141 195.007  0.00  0.00    +0.000 HD
ENDROOT
TORSDOF 0
ENDMDL
MODEL 7
REMARK VINA RESULT:      -5.4     34.184     35.426
REMARK  Name = MeIQx.pdbqt.pdb
REMARK  0 active torsions:
REMARK  status: ('A' for Active; 'I' for Inactive)
REMARK                            x       y       z     vdW  Elec       q    Type
REMARK                         _______ _______ _______ _____ _____    ______ ____
ROOT
ATOM      1  N   UNL     1      40.486 -20.351 168.500  0.00  0.00    +0.000 N 
ATOM      2  N   UNL     1      39.166 -21.264 170.026  0.00  0.00    +0.000 NA
ATOM      3  N   UNL     1      39.409 -20.678 172.893  0.00  0.00    +0.000 NA
ATOM      4  N   UNL     1      41.448 -18.852 173.671  0.00  0.00    +0.000 NA
ATOM      5  C   UNL     1      40.918 -19.829 169.690  0.00  0.00    +0.000 A 
ATOM      6  C   UNL     1      40.077 -20.415 170.635  0.00  0.00    +0.000 A 
ATOM      7  C   UNL     1      40.250 -20.086 172.003  0.00  0.00    +0.000 A 
ATOM      8  C   UNL     1      41.269 -19.175 172.376  0.00  0.00    +0.000 A 
ATOM      9  C   UNL     1      39.431 -21.217 168.739  0.00  0.00    +0.000 A 
ATOM     10  C   UNL     1      41.929 -18.926 170.028  0.00  0.00    +0.000 A 
ATOM     11  C   UNL     1      42.073 -18.626 171.386  0.00  0.00    +0.000 A 
ATOM     12  C   UNL     1      41.022 -20.015 167.213  0.00  0.00    +0.000 C 
ATOM     13  C   UNL     1      39.605 -20.341 174.184  0.00  0.00    +0.000 A 
ATOM     14  C   UNL     1      40.603 -19.448 174.561  0.00  0.00    +0.000 A 
ATOM     15  C   UNL     1      38.714 -20.950 175.229  0.00  0.00    +0.000 C 
ATOM     16  N   UNL     1      38.777 -21.905 167.777  0.00  0.00    +0.000 N 
ATOM     17  H   UNL     1      37.899 -22.353 168.020  0.00  0.00    +0.000 HD
ATOM     18  H   UNL     1      38.884 -21.660 166.795  0.00  0.00    +0.000 HD
ENDROOT
TORSDOF 0
ENDMDL
MODEL 8
REMARK VINA RESULT:      -5.2     12.959     13.404
REMARK  Name = MeIQx.pdbqt.pdb
REMARK  0 active torsions:
REMARK  status: ('A' for Active; 'I' for Inactive)
REMARK                            x       y       z     vdW  Elec       q    Type
REMARK                         _______ _______ _______ _____ _____    ______ ____
ROOT
ATOM      1  N   UNL     1      10.874  -3.179 193.066  0.00  0.00    +0.000 N 
ATOM      2  N   UNL     1      10.451  -4.162 191.128  0.00  0.00    +0.000 NA
ATOM      3  N   UNL     1       8.973  -2.837 188.964  0.00  0.00    +0.000 NA
ATOM      4  N   UNL     1       8.077  -0.180 189.449  0.00  0.00    +0.000 NA
ATOM      5  C   UNL     1      10.178  -2.244 192.348  0.00  0.00    +0.000 A 
ATOM      6  C   UNL     1       9.921  -2.881 191.134  0.00  0.00    +0.000 A 
ATOM      7  C   UNL     1       9.202  -2.181 190.133  0.00  0.00    +0.000 A 
ATOM      8  C   UNL     1       8.762  -0.859 190.388  0.00  0.00    +0.000 A 
ATOM      9  C   UNL     1      11.018  -4.326 192.302  0.00  0.00    +0.000 A 
ATOM     10  C   UNL     1       9.759  -0.941 192.627  0.00  0.00    +0.000 A 
ATOM     11  C   UNL     1       9.051  -0.282 191.617  0.00  0.00    +0.000 A 
ATOM     12  C   UNL     1      11.403  -2.977 194.384  0.00  0.00    +0.000 C 
ATOM     13  C   UNL     1       8.286  -2.140 188.037  0.00  0.00    +0.000 A 
ATOM     14  C   UNL     1       7.849  -0.840 188.277  0.00  0.00    +0.000 A 
ATOM     15  C   UNL     1       7.995  -2.793 186.715  0.00  0.00    +0.000 C 
ATOM     16  N   UNL     1      11.653  -5.444 192.718  0.00  0.00    +0.000 N 
ATOM     17  H   UNL     1      11.882  -6.152 192.026  0.00  0.00    +0.000 HD
ATOM     18  H   UNL     1      12.252  -5.429 193.540  0.00  0.00    +0.000 HD
ENDROOT
TORSDOF 0
ENDMDL
MODEL 9
REMARK VINA RESULT:      -5.1     10.513     12.440
REMARK  Name = MeIQx.pdbqt.pdb
REMARK  0 active torsions:
REMARK  status: ('A' for Active; 'I' for Inactive)
REMARK                            x       y       z     vdW  Elec       q    Type
REMARK                         _______ _______ _______ _____ _____    ______ ____
ROOT
ATOM      1  N   UNL     1      33.640   5.253 191.744  0.00  0.00    +0.000 N 
ATOM      2  N   UNL     1      32.392   6.461 190.372  0.00  0.00    +0.000 NA
ATOM      3  N   UNL     1      31.376   5.423 187.820  0.00  0.00    +0.000 NA
ATOM      4  N   UNL     1      32.066   2.745 187.147  0.00  0.00    +0.000 NA
ATOM      5  C   UNL     1      33.381   4.421 190.688  0.00  0.00    +0.000 A 
ATOM      6  C   UNL     1      32.596   5.198 189.837  0.00  0.00    +0.000 A 
ATOM      7  C   UNL     1      32.140   4.632 188.620  0.00  0.00    +0.000 A 
ATOM      8  C   UNL     1      32.491   3.298 188.299  0.00  0.00    +0.000 A 
ATOM      9  C   UNL     1      33.032   6.477 191.519  0.00  0.00    +0.000 A 
ATOM     10  C   UNL     1      33.741   3.102 190.399  0.00  0.00    +0.000 A 
ATOM     11  C   UNL     1      33.274   2.578 189.189  0.00  0.00    +0.000 A 
ATOM     12  C   UNL     1      34.389   4.890 192.913  0.00  0.00    +0.000 C 
ATOM     13  C   UNL     1      30.962   4.850 186.671  0.00  0.00    +0.000 A 
ATOM     14  C   UNL     1      31.301   3.541 186.345  0.00  0.00    +0.000 A 
ATOM     15  C   UNL     1      30.110   5.657 185.732  0.00  0.00    +0.000 C 
ATOM     16  N   UNL     1      33.097   7.528 192.368  0.00  0.00    +0.000 N 
ATOM     17  H   UNL     1      32.461   8.306 192.217  0.00  0.00    +0.000 HD
ATOM     18  H   UNL     1      33.418   7.406 193.325  0.00  0.00    +0.000 HD
ENDROOT
TORSDOF 0
ENDMDL
