MODEL 1
REMARK VINA RESULT:      -7.7      0.000      0.000
REMARK  Name = 
REMARK  21 active torsions:
REMARK  status: ('A' for Active; 'I' for Inactive)
REMARK    1  A    between atoms: O_3  and  C_27
REMARK    2  A    between atoms: O_3  and  C_28
REMARK    3  A    between atoms: N_6  and  CA_9
REMARK    4  A    between atoms: N_7  and  CA_15
REMARK    5  A    between atoms: N_8  and  CA_12
REMARK    6  A    between atoms: CA_9  and  CB_10
REMARK    7  A    between atoms: CA_9  and  C_16
REMARK    8  A    between atoms: CB_10  and  CG_11
REMARK    9  A    between atoms: CG_11  and  CD1_20
REMARK   10  A    between atoms: CG_11  and  CD2_21
REMARK   11  A    between atoms: CA_12  and  CB_13
REMARK   12  A    between atoms: CA_12  and  C_18
REMARK   13  A    between atoms: CB_13  and  CG_14
REMARK   14  A    between atoms: CG_14  and  CD1_22
REMARK   15  A    between atoms: CG_14  and  CD2_23
REMARK   16  A    between atoms: CA_15  and  CB_17
REMARK   17  A    between atoms: CA_15  and  C_26
REMARK   18  A    between atoms: CB_17  and  CG_19
REMARK   19  A    between atoms: CG_19  and  CD1_24
REMARK   20  A    between atoms: CG_19  and  CD2_25
REMARK   21  A    between atoms: C_28  and  C_29
REMARK                            x       y       z     vdW  Elec       q    Type
REMARK                         _______ _______ _______ _____ _____    ______ ____
ROOT
ATOM      1  O   UNL     1      22.343   2.862 191.835  0.00  0.00    +0.000 OA
ATOM      2  N   UNL     1      22.356   1.827 189.802  0.00  0.00    +0.000 N 
ATOM      3  C   UNL     1      21.805   2.675 190.748  0.00  0.00    +0.000 C 
ATOM      4  H   UNL     1      22.164   2.103 188.841  0.00  0.00    +0.000 HD
ENDROOT
BRANCH   2   5
ATOM      5  CA  UNL     1      23.675   1.240 190.039  0.00  0.00    +0.000 C 
BRANCH   5   8
ATOM      6  O   UNL     1      23.997   0.579 187.738  0.00  0.00    +0.000 OA
ATOM      7  N   UNL     1      25.467   2.084 188.462  0.00  0.00    +0.000 N 
ATOM      8  C   UNL     1      24.385   1.286 188.673  0.00  0.00    +0.000 C 
ATOM      9  H   UNL     1      25.789   2.014 187.502  0.00  0.00    +0.000 HD
BRANCH   7  10
ATOM     10  CA  UNL     1      25.920   3.249 189.222  0.00  0.00    +0.000 C 
BRANCH  10  12
ATOM     11  O   UNL     1      27.171   1.727 190.655  0.00  0.00    +0.000 OA
ATOM     12  C   UNL     1      26.589   2.801 190.521  0.00  0.00    +0.000 C 
ENDBRANCH  10  12
BRANCH  10  13
ATOM     13  CB  UNL     1      24.799   4.279 189.429  0.00  0.00    +0.000 C 
BRANCH  13  14
ATOM     14  CG  UNL     1      24.170   4.911 188.167  0.00  0.00    +0.000 C 
ATOM     15  CD1 UNL     1      23.098   5.954 188.475  0.00  0.00    +0.000 C 
ATOM     16  CD2 UNL     1      25.274   5.549 187.315  0.00  0.00    +0.000 C 
ENDBRANCH  13  14
ENDBRANCH  10  13
ENDBRANCH   7  10
ENDBRANCH   5   8
BRANCH   5  17
ATOM     17  CB  UNL     1      23.524  -0.213 190.512  0.00  0.00    +0.000 C 
BRANCH  17  18
ATOM     18  CG  UNL     1      23.563  -0.398 192.042  0.00  0.00    +0.000 C 
ATOM     19  CD1 UNL     1      22.359  -1.184 192.564  0.00  0.00    +0.000 C 
ATOM     20  CD2 UNL     1      24.853  -1.122 192.441  0.00  0.00    +0.000 C 
ENDBRANCH  17  18
ENDBRANCH   5  17
ENDBRANCH   2   5
BRANCH   3  21
ATOM     21  CA  UNL     1      20.524   3.413 190.286  0.00  0.00    +0.000 C 
BRANCH  21  23
ATOM     22  O   UNL     1      19.629   5.280 188.368  0.00  0.00    +0.000 OA
ATOM     23  N   UNL     1      20.276   3.137 188.865  0.00  0.00    +0.000 N 
ATOM     24  C   ACE A   0      19.806   4.119 188.035  0.00  0.00    +0.000 C 
ATOM     25  H   UNL     1      20.051   2.187 188.606  0.00  0.00    +0.000 HD
BRANCH  24  26
ATOM     26  O   UNL     1      19.445   3.648 186.817  0.00  0.00    +0.000 OA
BRANCH  26  27
ATOM     27  C   UNL     1      20.407   2.807 186.170  0.00  0.00    +0.000 C 
BRANCH  27  28
ATOM     28  C   UNL     1      21.096   3.577 185.069  0.00  0.00    +0.000 A 
ATOM     29  C   UNL     1      20.880   3.242 183.726  0.00  0.00    +0.000 A 
ATOM     30  C   UNL     1      22.007   4.599 185.373  0.00  0.00    +0.000 A 
ATOM     31  C   UNL     1      21.541   3.932 182.707  0.00  0.00    +0.000 A 
ATOM     32  C   UNL     1      22.668   5.288 184.354  0.00  0.00    +0.000 A 
ATOM     33  C   UNL     1      22.434   4.955 183.021  0.00  0.00    +0.000 A 
ENDBRANCH  27  28
ENDBRANCH  26  27
ENDBRANCH  24  26
ENDBRANCH  21  23
BRANCH  21  34
ATOM     34  CB  UNL     1      19.301   2.994 191.121  0.00  0.00    +0.000 C 
BRANCH  34  35
ATOM     35  CG  UNL     1      18.957   1.490 191.107  0.00  0.00    +0.000 C 
ATOM     36  CD1 UNL     1      19.051   0.856 192.496  0.00  0.00    +0.000 C 
ATOM     37  CD2 UNL     1      17.543   1.294 190.550  0.00  0.00    +0.000 C 
ENDBRANCH  34  35
ENDBRANCH  21  34
ENDBRANCH   3  21
TORSDOF 15
ENDMDL
MODEL 2
REMARK VINA RESULT:      -7.6      2.207      4.142
REMARK  Name = 
REMARK  21 active torsions:
REMARK  status: ('A' for Active; 'I' for Inactive)
REMARK    1  A    between atoms: O_3  and  C_27
REMARK    2  A    between atoms: O_3  and  C_28
REMARK    3  A    between atoms: N_6  and  CA_9
REMARK    4  A    between atoms: N_7  and  CA_15
REMARK    5  A    between atoms: N_8  and  CA_12
REMARK    6  A    between atoms: CA_9  and  CB_10
REMARK    7  A    between atoms: CA_9  and  C_16
REMARK    8  A    between atoms: CB_10  and  CG_11
REMARK    9  A    between atoms: CG_11  and  CD1_20
REMARK   10  A    between atoms: CG_11  and  CD2_21
REMARK   11  A    between atoms: CA_12  and  CB_13
REMARK   12  A    between atoms: CA_12  and  C_18
REMARK   13  A    between atoms: CB_13  and  CG_14
REMARK   14  A    between atoms: CG_14  and  CD1_22
REMARK   15  A    between atoms: CG_14  and  CD2_23
REMARK   16  A    between atoms: CA_15  and  CB_17
REMARK   17  A    between atoms: CA_15  and  C_26
REMARK   18  A    between atoms: CB_17  and  CG_19
REMARK   19  A    between atoms: CG_19  and  CD1_24
REMARK   20  A    between atoms: CG_19  and  CD2_25
REMARK   21  A    between atoms: C_28  and  C_29
REMARK                            x       y       z     vdW  Elec       q    Type
REMARK                         _______ _______ _______ _____ _____    ______ ____
ROOT
ATOM      1  O   UNL     1      23.399   0.633 191.207  0.00  0.00    +0.000 OA
ATOM      2  N   UNL     1      22.761   2.779 190.771  0.00  0.00    +0.000 N 
ATOM      3  C   UNL     1      22.500   1.464 191.115  0.00  0.00    +0.000 C 
ATOM      4  H   UNL     1      22.117   3.448 191.187  0.00  0.00    +0.000 HD
ENDROOT
BRANCH   2   5
ATOM      5  CA  UNL     1      24.147   3.232 190.644  0.00  0.00    +0.000 C 
BRANCH   5   8
ATOM      6  O   UNL     1      23.799   4.177 192.840  0.00  0.00    +0.000 OA
ATOM      7  N   UNL     1      25.832   3.328 192.532  0.00  0.00    +0.000 N 
ATOM      8  C   UNL     1      24.579   3.601 192.076  0.00  0.00    +0.000 C 
ATOM      9  H   UNL     1      25.936   3.610 193.501  0.00  0.00    +0.000 HD
BRANCH   7  10
ATOM     10  CA  UNL     1      26.818   2.377 192.017  0.00  0.00    +0.000 C 
BRANCH  10  12
ATOM     11  O   UNL     1      28.021   1.784 194.050  0.00  0.00    +0.000 OA
ATOM     12  C   UNL     1      27.278   1.441 193.134  0.00  0.00    +0.000 C 
ENDBRANCH  10  12
BRANCH  10  13
ATOM     13  CB  UNL     1      27.973   3.077 191.284  0.00  0.00    +0.000 C 
BRANCH  13  14
ATOM     14  CG  UNL     1      27.928   3.099 189.741  0.00  0.00    +0.000 C 
ATOM     15  CD1 UNL     1      29.242   3.533 189.096  0.00  0.00    +0.000 C 
ATOM     16  CD2 UNL     1      27.541   1.708 189.224  0.00  0.00    +0.000 C 
ENDBRANCH  13  14
ENDBRANCH  10  13
ENDBRANCH   7  10
ENDBRANCH   5   8
BRANCH   5  17
ATOM     17  CB  UNL     1      24.214   4.465 189.732  0.00  0.00    +0.000 C 
BRANCH  17  18
ATOM     18  CG  UNL     1      24.889   4.220 188.369  0.00  0.00    +0.000 C 
ATOM     19  CD1 UNL     1      24.261   3.050 187.611  0.00  0.00    +0.000 C 
ATOM     20  CD2 UNL     1      24.798   5.487 187.512  0.00  0.00    +0.000 C 
ENDBRANCH  17  18
ENDBRANCH   5  17
ENDBRANCH   2   5
BRANCH   3  21
ATOM     21  CA  UNL     1      21.018   1.163 191.446  0.00  0.00    +0.000 C 
BRANCH  21  23
ATOM     22  O   UNL     1      18.726   2.736 190.952  0.00  0.00    +0.000 OA
ATOM     23  N   UNL     1      20.222   1.164 190.211  0.00  0.00    +0.000 N 
ATOM     24  C   ACE A   0      19.104   1.947 190.101  0.00  0.00    +0.000 C 
ATOM     25  H   UNL     1      20.242   0.330 189.642  0.00  0.00    +0.000 HD
BRANCH  24  26
ATOM     26  O   UNL     1      18.384   1.680 188.985  0.00  0.00    +0.000 OA
BRANCH  26  27
ATOM     27  C   UNL     1      17.972   2.824 188.226  0.00  0.00    +0.000 C 
BRANCH  27  28
ATOM     28  C   UNL     1      19.170   3.441 187.548  0.00  0.00    +0.000 A 
ATOM     29  C   UNL     1      19.837   4.526 188.134  0.00  0.00    +0.000 A 
ATOM     30  C   UNL     1      19.600   2.981 186.294  0.00  0.00    +0.000 A 
ATOM     31  C   UNL     1      20.926   5.120 187.492  0.00  0.00    +0.000 A 
ATOM     32  C   UNL     1      20.689   3.576 185.654  0.00  0.00    +0.000 A 
ATOM     33  C   UNL     1      21.352   4.644 186.254  0.00  0.00    +0.000 A 
ENDBRANCH  27  28
ENDBRANCH  26  27
ENDBRANCH  24  26
ENDBRANCH  21  23
BRANCH  21  34
ATOM     34  CB  UNL     1      20.864  -0.189 192.164  0.00  0.00    +0.000 C 
BRANCH  34  35
ATOM     35  CG  UNL     1      20.340  -0.128 193.614  0.00  0.00    +0.000 C 
ATOM     36  CD1 UNL     1      21.213   0.746 194.515  0.00  0.00    +0.000 C 
ATOM     37  CD2 UNL     1      18.904   0.407 193.617  0.00  0.00    +0.000 C 
ENDBRANCH  34  35
ENDBRANCH  21  34
ENDBRANCH   3  21
TORSDOF 15
ENDMDL
MODEL 3
REMARK VINA RESULT:      -7.4      2.135      5.783
REMARK  Name = 
REMARK  21 active torsions:
REMARK  status: ('A' for Active; 'I' for Inactive)
REMARK    1  A    between atoms: O_3  and  C_27
REMARK    2  A    between atoms: O_3  and  C_28
REMARK    3  A    between atoms: N_6  and  CA_9
REMARK    4  A    between atoms: N_7  and  CA_15
REMARK    5  A    between atoms: N_8  and  CA_12
REMARK    6  A    between atoms: CA_9  and  CB_10
REMARK    7  A    between atoms: CA_9  and  C_16
REMARK    8  A    between atoms: CB_10  and  CG_11
REMARK    9  A    between atoms: CG_11  and  CD1_20
REMARK   10  A    between atoms: CG_11  and  CD2_21
REMARK   11  A    between atoms: CA_12  and  CB_13
REMARK   12  A    between atoms: CA_12  and  C_18
REMARK   13  A    between atoms: CB_13  and  CG_14
REMARK   14  A    between atoms: CG_14  and  CD1_22
REMARK   15  A    between atoms: CG_14  and  CD2_23
REMARK   16  A    between atoms: CA_15  and  CB_17
REMARK   17  A    between atoms: CA_15  and  C_26
REMARK   18  A    between atoms: CB_17  and  CG_19
REMARK   19  A    between atoms: CG_19  and  CD1_24
REMARK   20  A    between atoms: CG_19  and  CD2_25
REMARK   21  A    between atoms: C_28  and  C_29
REMARK                            x       y       z     vdW  Elec       q    Type
REMARK                         _______ _______ _______ _____ _____    ______ ____
ROOT
ATOM      1  O   UNL     1      23.949   3.517 190.660  0.00  0.00    +0.000 OA
ATOM      2  N   UNL     1      22.897   1.981 189.341  0.00  0.00    +0.000 N 
ATOM      3  C   UNL     1      23.872   2.935 189.582  0.00  0.00    +0.000 C 
ATOM      4  H   UNL     1      23.190   1.248 188.699  0.00  0.00    +0.000 HD
ENDROOT
BRANCH   2   5
ATOM      5  CA  UNL     1      22.020   1.553 190.431  0.00  0.00    +0.000 C 
BRANCH   5   8
ATOM      6  O   UNL     1      23.370  -0.446 190.281  0.00  0.00    +0.000 OA
ATOM      7  N   UNL     1      22.516  -0.080 192.303  0.00  0.00    +0.000 N 
ATOM      8  C   UNL     1      22.683   0.285 191.002  0.00  0.00    +0.000 C 
ATOM      9  H   UNL     1      23.044  -0.919 192.517  0.00  0.00    +0.000 HD
BRANCH   7  10
ATOM     10  CA  UNL     1      22.082   0.729 193.442  0.00  0.00    +0.000 C 
BRANCH  10  12
ATOM     11  O   UNL     1      23.437   1.116 195.429  0.00  0.00    +0.000 OA
ATOM     12  C   UNL     1      23.297   1.242 194.215  0.00  0.00    +0.000 C 
ENDBRANCH  10  12
BRANCH  10  13
ATOM     13  CB  UNL     1      21.058  -0.006 194.321  0.00  0.00    +0.000 C 
BRANCH  13  14
ATOM     14  CG  UNL     1      19.830   0.796 194.806  0.00  0.00    +0.000 C 
ATOM     15  CD1 UNL     1      18.494   0.165 194.418  0.00  0.00    +0.000 C 
ATOM     16  CD2 UNL     1      19.897   0.953 196.330  0.00  0.00    +0.000 C 
ENDBRANCH  13  14
ENDBRANCH  10  13
ENDBRANCH   7  10
ENDBRANCH   5   8
BRANCH   5  17
ATOM     17  CB  UNL     1      20.625   1.223 189.882  0.00  0.00    +0.000 C 
BRANCH  17  18
ATOM     18  CG  UNL     1      19.494   1.275 190.929  0.00  0.00    +0.000 C 
ATOM     19  CD1 UNL     1      19.298   2.679 191.502  0.00  0.00    +0.000 C 
ATOM     20  CD2 UNL     1      18.183   0.798 190.296  0.00  0.00    +0.000 C 
ENDBRANCH  17  18
ENDBRANCH   5  17
ENDBRANCH   2   5
BRANCH   3  21
ATOM     21  CA  UNL     1      24.881   3.135 188.425  0.00  0.00    +0.000 C 
BRANCH  21  23
ATOM     22  O   UNL     1      24.050   5.833 188.433  0.00  0.00    +0.000 OA
ATOM     23  N   UNL     1      24.230   3.839 187.313  0.00  0.00    +0.000 N 
ATOM     24  C   ACE A   0      23.837   5.145 187.447  0.00  0.00    +0.000 C 
ATOM     25  H   UNL     1      23.713   3.283 186.646  0.00  0.00    +0.000 HD
BRANCH  24  26
ATOM     26  O   UNL     1      23.080   5.574 186.409  0.00  0.00    +0.000 OA
BRANCH  26  27
ATOM     27  C   UNL     1      22.332   4.560 185.729  0.00  0.00    +0.000 C 
BRANCH  27  28
ATOM     28  C   UNL     1      21.091   4.227 186.521  0.00  0.00    +0.000 A 
ATOM     29  C   UNL     1      20.250   3.181 186.118  0.00  0.00    +0.000 A 
ATOM     30  C   UNL     1      20.726   4.995 187.637  0.00  0.00    +0.000 A 
ATOM     31  C   UNL     1      19.085   2.892 186.831  0.00  0.00    +0.000 A 
ATOM     32  C   UNL     1      19.561   4.705 188.349  0.00  0.00    +0.000 A 
ATOM     33  C   UNL     1      18.741   3.653 187.946  0.00  0.00    +0.000 A 
ENDBRANCH  27  28
ENDBRANCH  26  27
ENDBRANCH  24  26
ENDBRANCH  21  23
BRANCH  21  34
ATOM     34  CB  UNL     1      26.119   3.924 188.888  0.00  0.00    +0.000 C 
BRANCH  34  35
ATOM     35  CG  UNL     1      27.306   3.080 189.398  0.00  0.00    +0.000 C 
ATOM     36  CD1 UNL     1      27.447   3.130 190.920  0.00  0.00    +0.000 C 
ATOM     37  CD2 UNL     1      27.131   1.626 188.948  0.00  0.00    +0.000 C 
ENDBRANCH  34  35
ENDBRANCH  21  34
ENDBRANCH   3  21
TORSDOF 15
ENDMDL
MODEL 4
REMARK VINA RESULT:      -7.3      2.040      3.233
REMARK  Name = 
REMARK  21 active torsions:
REMARK  status: ('A' for Active; 'I' for Inactive)
REMARK    1  A    between atoms: O_3  and  C_27
REMARK    2  A    between atoms: O_3  and  C_28
REMARK    3  A    between atoms: N_6  and  CA_9
REMARK    4  A    between atoms: N_7  and  CA_15
REMARK    5  A    between atoms: N_8  and  CA_12
REMARK    6  A    between atoms: CA_9  and  CB_10
REMARK    7  A    between atoms: CA_9  and  C_16
REMARK    8  A    between atoms: CB_10  and  CG_11
REMARK    9  A    between atoms: CG_11  and  CD1_20
REMARK   10  A    between atoms: CG_11  and  CD2_21
REMARK   11  A    between atoms: CA_12  and  CB_13
REMARK   12  A    between atoms: CA_12  and  C_18
REMARK   13  A    between atoms: CB_13  and  CG_14
REMARK   14  A    between atoms: CG_14  and  CD1_22
REMARK   15  A    between atoms: CG_14  and  CD2_23
REMARK   16  A    between atoms: CA_15  and  CB_17
REMARK   17  A    between atoms: CA_15  and  C_26
REMARK   18  A    between atoms: CB_17  and  CG_19
REMARK   19  A    between atoms: CG_19  and  CD1_24
REMARK   20  A    between atoms: CG_19  and  CD2_25
REMARK   21  A    between atoms: C_28  and  C_29
REMARK                            x       y       z     vdW  Elec       q    Type
REMARK                         _______ _______ _______ _____ _____    ______ ____
ROOT
ATOM      1  O   UNL     1      21.547   3.292 192.451  0.00  0.00    +0.000 OA
ATOM      2  N   UNL     1      22.126   1.089 192.335  0.00  0.00    +0.000 N 
ATOM      3  C   UNL     1      21.200   2.116 192.405  0.00  0.00    +0.000 C 
ATOM      4  H   UNL     1      21.798   0.274 191.822  0.00  0.00    +0.000 HD
ENDROOT
BRANCH   2   5
ATOM      5  CA  UNL     1      23.546   1.406 192.178  0.00  0.00    +0.000 C 
BRANCH   5   8
ATOM      6  O   UNL     1      24.386  -0.855 192.035  0.00  0.00    +0.000 OA
ATOM      7  N   UNL     1      24.446   0.257 190.108  0.00  0.00    +0.000 N 
ATOM      8  C   UNL     1      24.145   0.197 191.435  0.00  0.00    +0.000 C 
ATOM      9  H   UNL     1      24.802  -0.633 189.775  0.00  0.00    +0.000 HD
BRANCH   7  10
ATOM     10  CA  UNL     1      23.964   1.192 189.091  0.00  0.00    +0.000 C 
BRANCH  10  12
ATOM     11  O   UNL     1      24.487  -0.022 187.045  0.00  0.00    +0.000 OA
ATOM     12  C   UNL     1      23.637   0.441 187.801  0.00  0.00    +0.000 C 
ENDBRANCH  10  12
BRANCH  10  13
ATOM     13  CB  UNL     1      24.923   2.376 188.890  0.00  0.00    +0.000 C 
BRANCH  13  14
ATOM     14  CG  UNL     1      24.297   3.773 188.686  0.00  0.00    +0.000 C 
ATOM     15  CD1 UNL     1      23.777   4.404 189.976  0.00  0.00    +0.000 C 
ATOM     16  CD2 UNL     1      25.330   4.705 188.043  0.00  0.00    +0.000 C 
ENDBRANCH  13  14
ENDBRANCH  10  13
ENDBRANCH   7  10
ENDBRANCH   5   8
BRANCH   5  17
ATOM     17  CB  UNL     1      24.203   1.562 193.557  0.00  0.00    +0.000 C 
BRANCH  17  18
ATOM     18  CG  UNL     1      25.625   2.157 193.526  0.00  0.00    +0.000 C 
ATOM     19  CD1 UNL     1      25.690   3.542 194.172  0.00  0.00    +0.000 C 
ATOM     20  CD2 UNL     1      26.594   1.215 194.248  0.00  0.00    +0.000 C 
ENDBRANCH  17  18
ENDBRANCH   5  17
ENDBRANCH   2   5
BRANCH   3  21
ATOM     21  CA  UNL     1      19.722   1.660 192.335  0.00  0.00    +0.000 C 
BRANCH  21  23
ATOM     22  O   UNL     1      20.457   1.311 189.632  0.00  0.00    +0.000 OA
ATOM     23  N   UNL     1      19.065   2.279 191.176  0.00  0.00    +0.000 N 
ATOM     24  C   ACE A   0      19.535   2.063 189.909  0.00  0.00    +0.000 C 
ATOM     25  H   UNL     1      18.570   3.147 191.328  0.00  0.00    +0.000 HD
BRANCH  24  26
ATOM     26  O   UNL     1      18.944   2.860 188.986  0.00  0.00    +0.000 OA
BRANCH  26  27
ATOM     27  C   UNL     1      19.506   4.171 188.852  0.00  0.00    +0.000 C 
BRANCH  27  28
ATOM     28  C   UNL     1      20.306   4.252 187.575  0.00  0.00    +0.000 A 
ATOM     29  C   UNL     1      21.270   5.256 187.403  0.00  0.00    +0.000 A 
ATOM     30  C   UNL     1      20.060   3.365 186.517  0.00  0.00    +0.000 A 
ATOM     31  C   UNL     1      21.989   5.352 186.210  0.00  0.00    +0.000 A 
ATOM     32  C   UNL     1      20.779   3.462 185.325  0.00  0.00    +0.000 A 
ATOM     33  C   UNL     1      21.744   4.456 185.172  0.00  0.00    +0.000 A 
ENDBRANCH  27  28
ENDBRANCH  26  27
ENDBRANCH  24  26
ENDBRANCH  21  23
BRANCH  21  34
ATOM     34  CB  UNL     1      19.609   0.128 192.242  0.00  0.00    +0.000 C 
BRANCH  34  35
ATOM     35  CG  UNL     1      19.125  -0.593 193.517  0.00  0.00    +0.000 C 
ATOM     36  CD1 UNL     1      20.173  -1.555 194.078  0.00  0.00    +0.000 C 
ATOM     37  CD2 UNL     1      18.759   0.445 194.583  0.00  0.00    +0.000 C 
ENDBRANCH  34  35
ENDBRANCH  21  34
ENDBRANCH   3  21
TORSDOF 15
ENDMDL
MODEL 5
REMARK VINA RESULT:      -7.2      1.563      2.308
REMARK  Name = 
REMARK  21 active torsions:
REMARK  status: ('A' for Active; 'I' for Inactive)
REMARK    1  A    between atoms: O_3  and  C_27
REMARK    2  A    between atoms: O_3  and  C_28
REMARK    3  A    between atoms: N_6  and  CA_9
REMARK    4  A    between atoms: N_7  and  CA_15
REMARK    5  A    between atoms: N_8  and  CA_12
REMARK    6  A    between atoms: CA_9  and  CB_10
REMARK    7  A    between atoms: CA_9  and  C_16
REMARK    8  A    between atoms: CB_10  and  CG_11
REMARK    9  A    between atoms: CG_11  and  CD1_20
REMARK   10  A    between atoms: CG_11  and  CD2_21
REMARK   11  A    between atoms: CA_12  and  CB_13
REMARK   12  A    between atoms: CA_12  and  C_18
REMARK   13  A    between atoms: CB_13  and  CG_14
REMARK   14  A    between atoms: CG_14  and  CD1_22
REMARK   15  A    between atoms: CG_14  and  CD2_23
REMARK   16  A    between atoms: CA_15  and  CB_17
REMARK   17  A    between atoms: CA_15  and  C_26
REMARK   18  A    between atoms: CB_17  and  CG_19
REMARK   19  A    between atoms: CG_19  and  CD1_24
REMARK   20  A    between atoms: CG_19  and  CD2_25
REMARK   21  A    between atoms: C_28  and  C_29
REMARK                            x       y       z     vdW  Elec       q    Type
REMARK                         _______ _______ _______ _____ _____    ______ ____
ROOT
ATOM      1  O   UNL     1      22.348   3.339 192.206  0.00  0.00    +0.000 OA
ATOM      2  N   UNL     1      22.325   1.213 191.378  0.00  0.00    +0.000 N 
ATOM      3  C   UNL     1      21.720   2.313 191.962  0.00  0.00    +0.000 C 
ATOM      4  H   UNL     1      21.703   0.666 190.787  0.00  0.00    +0.000 HD
ENDROOT
BRANCH   2   5
ATOM      5  CA  UNL     1      23.710   1.312 190.915  0.00  0.00    +0.000 C 
BRANCH   5   8
ATOM      6  O   UNL     1      23.040  -0.613 189.617  0.00  0.00    +0.000 OA
ATOM      7  N   UNL     1      24.717   0.544 188.722  0.00  0.00    +0.000 N 
ATOM      8  C   UNL     1      23.796   0.360 189.708  0.00  0.00    +0.000 C 
ATOM      9  H   UNL     1      24.614  -0.154 187.992  0.00  0.00    +0.000 HD
BRANCH   7  10
ATOM     10  CA  UNL     1      25.472   1.748 188.375  0.00  0.00    +0.000 C 
BRANCH  10  12
ATOM     11  O   UNL     1      27.496   1.366 189.675  0.00  0.00    +0.000 OA
ATOM     12  C   UNL     1      26.501   2.054 189.463  0.00  0.00    +0.000 C 
ENDBRANCH  10  12
BRANCH  10  13
ATOM     13  CB  UNL     1      24.554   2.934 188.043  0.00  0.00    +0.000 C 
BRANCH  13  14
ATOM     14  CG  UNL     1      24.956   4.321 188.591  0.00  0.00    +0.000 C 
ATOM     15  CD1 UNL     1      25.225   5.356 187.501  0.00  0.00    +0.000 C 
ATOM     16  CD2 UNL     1      23.854   4.838 189.523  0.00  0.00    +0.000 C 
ENDBRANCH  13  14
ENDBRANCH  10  13
ENDBRANCH   7  10
ENDBRANCH   5   8
BRANCH   5  17
ATOM     17  CB  UNL     1      24.667   0.853 192.025  0.00  0.00    +0.000 C 
BRANCH  17  18
ATOM     18  CG  UNL     1      24.479  -0.610 192.471  0.00  0.00    +0.000 C 
ATOM     19  CD1 UNL     1      25.772  -1.419 192.372  0.00  0.00    +0.000 C 
ATOM     20  CD2 UNL     1      23.966  -0.647 193.914  0.00  0.00    +0.000 C 
ENDBRANCH  17  18
ENDBRANCH   5  17
ENDBRANCH   2   5
BRANCH   3  21
ATOM     21  CA  UNL     1      20.197   2.164 192.196  0.00  0.00    +0.000 C 
BRANCH  21  23
ATOM     22  O   UNL     1      20.038   1.384 189.487  0.00  0.00    +0.000 OA
ATOM     23  N   UNL     1      19.460   2.868 191.138  0.00  0.00    +0.000 N 
ATOM     24  C   ACE A   0      19.486   2.412 189.847  0.00  0.00    +0.000 C 
ATOM     25  H   UNL     1      19.300   3.858 191.259  0.00  0.00    +0.000 HD
BRANCH  24  26
ATOM     26  O   UNL     1      18.926   3.282 188.972  0.00  0.00    +0.000 OA
BRANCH  26  27
ATOM     27  C   UNL     1      18.963   2.883 187.596  0.00  0.00    +0.000 C 
BRANCH  27  28
ATOM     28  C   UNL     1      20.032   3.663 186.870  0.00  0.00    +0.000 A 
ATOM     29  C   UNL     1      20.480   3.249 185.608  0.00  0.00    +0.000 A 
ATOM     30  C   UNL     1      20.637   4.778 187.469  0.00  0.00    +0.000 A 
ATOM     31  C   UNL     1      21.493   3.950 184.949  0.00  0.00    +0.000 A 
ATOM     32  C   UNL     1      21.648   5.478 186.810  0.00  0.00    +0.000 A 
ATOM     33  C   UNL     1      22.075   5.065 185.549  0.00  0.00    +0.000 A 
ENDBRANCH  27  28
ENDBRANCH  26  27
ENDBRANCH  24  26
ENDBRANCH  21  23
BRANCH  21  34
ATOM     34  CB  UNL     1      19.774   0.685 192.230  0.00  0.00    +0.000 C 
BRANCH  34  35
ATOM     35  CG  UNL     1      19.858  -0.011 193.604  0.00  0.00    +0.000 C 
ATOM     36  CD1 UNL     1      18.588   0.176 194.434  0.00  0.00    +0.000 C 
ATOM     37  CD2 UNL     1      20.123  -1.508 193.403  0.00  0.00    +0.000 C 
ENDBRANCH  34  35
ENDBRANCH  21  34
ENDBRANCH   3  21
TORSDOF 15
ENDMDL
MODEL 6
REMARK VINA RESULT:      -7.1      1.773      3.002
REMARK  Name = 
REMARK  21 active torsions:
REMARK  status: ('A' for Active; 'I' for Inactive)
REMARK    1  A    between atoms: O_3  and  C_27
REMARK    2  A    between atoms: O_3  and  C_28
REMARK    3  A    between atoms: N_6  and  CA_9
REMARK    4  A    between atoms: N_7  and  CA_15
REMARK    5  A    between atoms: N_8  and  CA_12
REMARK    6  A    between atoms: CA_9  and  CB_10
REMARK    7  A    between atoms: CA_9  and  C_16
REMARK    8  A    between atoms: CB_10  and  CG_11
REMARK    9  A    between atoms: CG_11  and  CD1_20
REMARK   10  A    between atoms: CG_11  and  CD2_21
REMARK   11  A    between atoms: CA_12  and  CB_13
REMARK   12  A    between atoms: CA_12  and  C_18
REMARK   13  A    between atoms: CB_13  and  CG_14
REMARK   14  A    between atoms: CG_14  and  CD1_22
REMARK   15  A    between atoms: CG_14  and  CD2_23
REMARK   16  A    between atoms: CA_15  and  CB_17
REMARK   17  A    between atoms: CA_15  and  C_26
REMARK   18  A    between atoms: CB_17  and  CG_19
REMARK   19  A    between atoms: CG_19  and  CD1_24
REMARK   20  A    between atoms: CG_19  and  CD2_25
REMARK   21  A    between atoms: C_28  and  C_29
REMARK                            x       y       z     vdW  Elec       q    Type
REMARK                         _______ _______ _______ _____ _____    ______ ____
ROOT
ATOM      1  O   UNL     1      22.072   2.908 192.464  0.00  0.00    +0.000 OA
ATOM      2  N   UNL     1      22.001   0.829 191.528  0.00  0.00    +0.000 N 
ATOM      3  C   UNL     1      21.416   1.921 192.145  0.00  0.00    +0.000 C 
ATOM      4  H   UNL     1      21.382   0.337 190.887  0.00  0.00    +0.000 HD
ENDROOT
BRANCH   2   5
ATOM      5  CA  UNL     1      23.406   0.896 191.122  0.00  0.00    +0.000 C 
BRANCH   5   8
ATOM      6  O   UNL     1      22.649   0.559 188.852  0.00  0.00    +0.000 OA
ATOM      7  N   UNL     1      24.146   2.190 189.074  0.00  0.00    +0.000 N 
ATOM      8  C   UNL     1      23.371   1.210 189.614  0.00  0.00    +0.000 C 
ATOM      9  H   UNL     1      23.976   2.281 188.078  0.00  0.00    +0.000 HD
BRANCH   7  10
ATOM     10  CA  UNL     1      24.800   3.320 189.733  0.00  0.00    +0.000 C 
BRANCH  10  12
ATOM     11  O   UNL     1      24.926   5.209 188.200  0.00  0.00    +0.000 OA
ATOM     12  C   UNL     1      24.333   4.635 189.109  0.00  0.00    +0.000 C 
ENDBRANCH  10  12
BRANCH  10  13
ATOM     13  CB  UNL     1      26.329   3.165 189.771  0.00  0.00    +0.000 C 
BRANCH  13  14
ATOM     14  CG  UNL     1      26.909   2.051 190.670  0.00  0.00    +0.000 C 
ATOM     15  CD1 UNL     1      27.343   0.806 189.898  0.00  0.00    +0.000 C 
ATOM     16  CD2 UNL     1      28.102   2.604 191.458  0.00  0.00    +0.000 C 
ENDBRANCH  13  14
ENDBRANCH  10  13
ENDBRANCH   7  10
ENDBRANCH   5   8
BRANCH   5  17
ATOM     17  CB  UNL     1      24.088  -0.457 191.369  0.00  0.00    +0.000 C 
BRANCH  17  18
ATOM     18  CG  UNL     1      24.947  -0.519 192.647  0.00  0.00    +0.000 C 
ATOM     19  CD1 UNL     1      24.114  -0.817 193.894  0.00  0.00    +0.000 C 
ATOM     20  CD2 UNL     1      26.028  -1.594 192.490  0.00  0.00    +0.000 C 
ENDBRANCH  17  18
ENDBRANCH   5  17
ENDBRANCH   2   5
BRANCH   3  21
ATOM     21  CA  UNL     1      19.880   1.821 192.315  0.00  0.00    +0.000 C 
BRANCH  21  23
ATOM     22  O   UNL     1      19.610   1.174 189.580  0.00  0.00    +0.000 OA
ATOM     23  N   UNL     1      19.213   2.643 191.296  0.00  0.00    +0.000 N 
ATOM     24  C   ACE A   0      19.176   2.240 189.988  0.00  0.00    +0.000 C 
ATOM     25  H   UNL     1      19.161   3.639 191.459  0.00  0.00    +0.000 HD
BRANCH  24  26
ATOM     26  O   UNL     1      18.704   3.199 189.156  0.00  0.00    +0.000 OA
BRANCH  26  27
ATOM     27  C   UNL     1      18.712   2.867 187.762  0.00  0.00    +0.000 C 
BRANCH  27  28
ATOM     28  C   UNL     1      19.810   3.632 187.065  0.00  0.00    +0.000 A 
ATOM     29  C   UNL     1      20.263   3.230 185.801  0.00  0.00    +0.000 A 
ATOM     30  C   UNL     1      20.436   4.720 187.692  0.00  0.00    +0.000 A 
ATOM     31  C   UNL     1      21.302   3.917 185.168  0.00  0.00    +0.000 A 
ATOM     32  C   UNL     1      21.473   5.405 187.059  0.00  0.00    +0.000 A 
ATOM     33  C   UNL     1      21.905   5.004 185.796  0.00  0.00    +0.000 A 
ENDBRANCH  27  28
ENDBRANCH  26  27
ENDBRANCH  24  26
ENDBRANCH  21  23
BRANCH  21  34
ATOM     34  CB  UNL     1      19.395   0.364 192.209  0.00  0.00    +0.000 C 
BRANCH  34  35
ATOM     35  CG  UNL     1      19.175  -0.374 193.546  0.00  0.00    +0.000 C 
ATOM     36  CD1 UNL     1      20.228  -1.453 193.798  0.00  0.00    +0.000 C 
ATOM     37  CD2 UNL     1      19.193   0.638 194.697  0.00  0.00    +0.000 C 
ENDBRANCH  34  35
ENDBRANCH  21  34
ENDBRANCH   3  21
TORSDOF 15
ENDMDL
MODEL 7
REMARK VINA RESULT:      -7.1      2.002      6.061
REMARK  Name = 
REMARK  21 active torsions:
REMARK  status: ('A' for Active; 'I' for Inactive)
REMARK    1  A    between atoms: O_3  and  C_27
REMARK    2  A    between atoms: O_3  and  C_28
REMARK    3  A    between atoms: N_6  and  CA_9
REMARK    4  A    between atoms: N_7  and  CA_15
REMARK    5  A    between atoms: N_8  and  CA_12
REMARK    6  A    between atoms: CA_9  and  CB_10
REMARK    7  A    between atoms: CA_9  and  C_16
REMARK    8  A    between atoms: CB_10  and  CG_11
REMARK    9  A    between atoms: CG_11  and  CD1_20
REMARK   10  A    between atoms: CG_11  and  CD2_21
REMARK   11  A    between atoms: CA_12  and  CB_13
REMARK   12  A    between atoms: CA_12  and  C_18
REMARK   13  A    between atoms: CB_13  and  CG_14
REMARK   14  A    between atoms: CG_14  and  CD1_22
REMARK   15  A    between atoms: CG_14  and  CD2_23
REMARK   16  A    between atoms: CA_15  and  CB_17
REMARK   17  A    between atoms: CA_15  and  C_26
REMARK   18  A    between atoms: CB_17  and  CG_19
REMARK   19  A    between atoms: CG_19  and  CD1_24
REMARK   20  A    between atoms: CG_19  and  CD2_25
REMARK   21  A    between atoms: C_28  and  C_29
REMARK                            x       y       z     vdW  Elec       q    Type
REMARK                         _______ _______ _______ _____ _____    ______ ____
ROOT
ATOM      1  O   UNL     1      23.648   0.814 188.338  0.00  0.00    +0.000 OA
ATOM      2  N   UNL     1      23.837   1.643 190.455  0.00  0.00    +0.000 N 
ATOM      3  C   UNL     1      24.224   1.555 189.129  0.00  0.00    +0.000 C 
ATOM      4  H   UNL     1      23.992   2.560 190.869  0.00  0.00    +0.000 HD
ENDROOT
BRANCH   2   5
ATOM      5  CA  UNL     1      22.633   0.943 190.904  0.00  0.00    +0.000 C 
BRANCH   5   8
ATOM      6  O   UNL     1      22.458   2.957 192.228  0.00  0.00    +0.000 OA
ATOM      7  N   UNL     1      20.564   1.798 192.088  0.00  0.00    +0.000 N 
ATOM      8  C   UNL     1      21.878   1.965 191.774  0.00  0.00    +0.000 C 
ATOM      9  H   UNL     1      20.219   2.576 192.641  0.00  0.00    +0.000 HD
BRANCH   7  10
ATOM     10  CA  UNL     1      19.557   0.960 191.437  0.00  0.00    +0.000 C 
BRANCH  10  12
ATOM     11  O   UNL     1      17.204   1.246 190.874  0.00  0.00    +0.000 OA
ATOM     12  C   UNL     1      18.262   1.749 191.244  0.00  0.00    +0.000 C 
ENDBRANCH  10  12
BRANCH  10  13
ATOM     13  CB  UNL     1      19.360  -0.381 192.163  0.00  0.00    +0.000 C 
BRANCH  13  14
ATOM     14  CG  UNL     1      19.726  -0.440 193.662  0.00  0.00    +0.000 C 
ATOM     15  CD1 UNL     1      18.527  -0.260 194.592  0.00  0.00    +0.000 C 
ATOM     16  CD2 UNL     1      20.410  -1.777 193.965  0.00  0.00    +0.000 C 
ENDBRANCH  13  14
ENDBRANCH  10  13
ENDBRANCH   7  10
ENDBRANCH   5   8
BRANCH   5  17
ATOM     17  CB  UNL     1      23.022  -0.284 191.741  0.00  0.00    +0.000 C 
BRANCH  17  18
ATOM     18  CG  UNL     1      24.273  -0.091 192.621  0.00  0.00    +0.000 C 
ATOM     19  CD1 UNL     1      23.939  -0.094 194.113  0.00  0.00    +0.000 C 
ATOM     20  CD2 UNL     1      25.287  -1.200 192.326  0.00  0.00    +0.000 C 
ENDBRANCH  17  18
ENDBRANCH   5  17
ENDBRANCH   2   5
BRANCH   3  21
ATOM     21  CA  UNL     1      25.368   2.518 188.724  0.00  0.00    +0.000 C 
BRANCH  21  23
ATOM     22  O   UNL     1      23.784   4.615 189.754  0.00  0.00    +0.000 OA
ATOM     23  N   UNL     1      24.821   3.643 187.954  0.00  0.00    +0.000 N 
ATOM     24  C   ACE A   0      24.033   4.585 188.559  0.00  0.00    +0.000 C 
ATOM     25  H   UNL     1      24.673   3.505 186.964  0.00  0.00    +0.000 HD
BRANCH  24  26
ATOM     26  O   UNL     1      23.454   5.432 187.674  0.00  0.00    +0.000 OA
BRANCH  26  27
ATOM     27  C   UNL     1      22.144   5.892 188.025  0.00  0.00    +0.000 C 
BRANCH  27  28
ATOM     28  C   UNL     1      21.109   4.927 187.500  0.00  0.00    +0.000 A 
ATOM     29  C   UNL     1      20.049   4.509 188.317  0.00  0.00    +0.000 A 
ATOM     30  C   UNL     1      21.223   4.385 186.211  0.00  0.00    +0.000 A 
ATOM     31  C   UNL     1      19.109   3.590 187.844  0.00  0.00    +0.000 A 
ATOM     32  C   UNL     1      20.283   3.468 185.740  0.00  0.00    +0.000 A 
ATOM     33  C   UNL     1      19.225   3.071 186.557  0.00  0.00    +0.000 A 
ENDBRANCH  27  28
ENDBRANCH  26  27
ENDBRANCH  24  26
ENDBRANCH  21  23
BRANCH  21  34
ATOM     34  CB  UNL     1      26.122   3.046 189.956  0.00  0.00    +0.000 C 
BRANCH  34  35
ATOM     35  CG  UNL     1      27.439   2.322 190.306  0.00  0.00    +0.000 C 
ATOM     36  CD1 UNL     1      28.670   3.197 190.065  0.00  0.00    +0.000 C 
ATOM     37  CD2 UNL     1      27.404   1.878 191.772  0.00  0.00    +0.000 C 
ENDBRANCH  34  35
ENDBRANCH  21  34
ENDBRANCH   3  21
TORSDOF 15
ENDMDL
MODEL 8
REMARK VINA RESULT:      -7.1      2.413      5.005
REMARK  Name = 
REMARK  21 active torsions:
REMARK  status: ('A' for Active; 'I' for Inactive)
REMARK    1  A    between atoms: O_3  and  C_27
REMARK    2  A    between atoms: O_3  and  C_28
REMARK    3  A    between atoms: N_6  and  CA_9
REMARK    4  A    between atoms: N_7  and  CA_15
REMARK    5  A    between atoms: N_8  and  CA_12
REMARK    6  A    between atoms: CA_9  and  CB_10
REMARK    7  A    between atoms: CA_9  and  C_16
REMARK    8  A    between atoms: CB_10  and  CG_11
REMARK    9  A    between atoms: CG_11  and  CD1_20
REMARK   10  A    between atoms: CG_11  and  CD2_21
REMARK   11  A    between atoms: CA_12  and  CB_13
REMARK   12  A    between atoms: CA_12  and  C_18
REMARK   13  A    between atoms: CB_13  and  CG_14
REMARK   14  A    between atoms: CG_14  and  CD1_22
REMARK   15  A    between atoms: CG_14  and  CD2_23
REMARK   16  A    between atoms: CA_15  and  CB_17
REMARK   17  A    between atoms: CA_15  and  C_26
REMARK   18  A    between atoms: CB_17  and  CG_19
REMARK   19  A    between atoms: CG_19  and  CD1_24
REMARK   20  A    between atoms: CG_19  and  CD2_25
REMARK   21  A    between atoms: C_28  and  C_29
REMARK                            x       y       z     vdW  Elec       q    Type
REMARK                         _______ _______ _______ _____ _____    ______ ____
ROOT
ATOM      1  O   UNL     1      23.243   0.146 191.213  0.00  0.00    +0.000 OA
ATOM      2  N   UNL     1      23.115   2.389 191.612  0.00  0.00    +0.000 N 
ATOM      3  C   UNL     1      22.551   1.147 191.373  0.00  0.00    +0.000 C 
ATOM      4  H   UNL     1      22.544   2.995 192.195  0.00  0.00    +0.000 HD
ENDROOT
BRANCH   2   5
ATOM      5  CA  UNL     1      24.561   2.499 191.812  0.00  0.00    +0.000 C 
BRANCH   5   8
ATOM      6  O   UNL     1      24.732   4.294 193.421  0.00  0.00    +0.000 OA
ATOM      7  N   UNL     1      24.887   2.261 194.313  0.00  0.00    +0.000 N 
ATOM      8  C   UNL     1      24.724   3.073 193.232  0.00  0.00    +0.000 C 
ATOM      9  H   UNL     1      24.949   2.802 195.169  0.00  0.00    +0.000 HD
BRANCH   7  10
ATOM     10  CA  UNL     1      24.574   0.839 194.457  0.00  0.00    +0.000 C 
BRANCH  10  12
ATOM     11  O   UNL     1      22.769  -0.143 195.766  0.00  0.00    +0.000 OA
ATOM     12  C   UNL     1      23.738   0.611 195.716  0.00  0.00    +0.000 C 
ENDBRANCH  10  12
BRANCH  10  13
ATOM     13  CB  UNL     1      25.830  -0.043 194.383  0.00  0.00    +0.000 C 
BRANCH  13  14
ATOM     14  CG  UNL     1      25.664  -1.472 193.820  0.00  0.00    +0.000 C 
ATOM     15  CD1 UNL     1      26.081  -1.605 192.357  0.00  0.00    +0.000 C 
ATOM     16  CD2 UNL     1      26.477  -2.452 194.673  0.00  0.00    +0.000 C 
ENDBRANCH  13  14
ENDBRANCH  10  13
ENDBRANCH   7  10
ENDBRANCH   5   8
BRANCH   5  17
ATOM     17  CB  UNL     1      25.162   3.460 190.776  0.00  0.00    +0.000 C 
BRANCH  17  18
ATOM     18  CG  UNL     1      24.704   3.208 189.326  0.00  0.00    +0.000 C 
ATOM     19  CD1 UNL     1      24.989   4.400 188.412  0.00  0.00    +0.000 C 
ATOM     20  CD2 UNL     1      25.408   1.965 188.772  0.00  0.00    +0.000 C 
ENDBRANCH  17  18
ENDBRANCH   5  17
ENDBRANCH   2   5
BRANCH   3  21
ATOM     21  CA  UNL     1      21.003   1.122 191.410  0.00  0.00    +0.000 C 
BRANCH  21  23
ATOM     22  O   UNL     1      18.702   2.600 190.710  0.00  0.00    +0.000 OA
ATOM     23  N   UNL     1      20.471   1.297 190.052  0.00  0.00    +0.000 N 
ATOM     24  C   ACE A   0      19.321   2.010 189.839  0.00  0.00    +0.000 C 
ATOM     25  H   UNL     1      20.688   0.584 189.370  0.00  0.00    +0.000 HD
BRANCH  24  26
ATOM     26  O   UNL     1      18.866   1.904 188.567  0.00  0.00    +0.000 OA
BRANCH  26  27
ATOM     27  C   UNL     1      18.491   3.136 187.940  0.00  0.00    +0.000 C 
BRANCH  27  28
ATOM     28  C   UNL     1      19.694   3.748 187.264  0.00  0.00    +0.000 A 
ATOM     29  C   UNL     1      20.381   4.812 187.863  0.00  0.00    +0.000 A 
ATOM     30  C   UNL     1      20.108   3.303 185.999  0.00  0.00    +0.000 A 
ATOM     31  C   UNL     1      21.474   5.401 187.223  0.00  0.00    +0.000 A 
ATOM     32  C   UNL     1      21.200   3.892 185.361  0.00  0.00    +0.000 A 
ATOM     33  C   UNL     1      21.884   4.941 185.974  0.00  0.00    +0.000 A 
ENDBRANCH  27  28
ENDBRANCH  26  27
ENDBRANCH  24  26
ENDBRANCH  21  23
BRANCH  21  34
ATOM     34  CB  UNL     1      20.475  -0.192 192.013  0.00  0.00    +0.000 C 
BRANCH  34  35
ATOM     35  CG  UNL     1      20.033  -0.128 193.490  0.00  0.00    +0.000 C 
ATOM     36  CD1 UNL     1      18.729   0.648 193.678  0.00  0.00    +0.000 C 
ATOM     37  CD2 UNL     1      19.866  -1.551 194.034  0.00  0.00    +0.000 C 
ENDBRANCH  34  35
ENDBRANCH  21  34
ENDBRANCH   3  21
TORSDOF 15
ENDMDL
MODEL 9
REMARK VINA RESULT:      -7.0      2.552      4.218
REMARK  Name = 
REMARK  21 active torsions:
REMARK  status: ('A' for Active; 'I' for Inactive)
REMARK    1  A    between atoms: O_3  and  C_27
REMARK    2  A    between atoms: O_3  and  C_28
REMARK    3  A    between atoms: N_6  and  CA_9
REMARK    4  A    between atoms: N_7  and  CA_15
REMARK    5  A    between atoms: N_8  and  CA_12
REMARK    6  A    between atoms: CA_9  and  CB_10
REMARK    7  A    between atoms: CA_9  and  C_16
REMARK    8  A    between atoms: CB_10  and  CG_11
REMARK    9  A    between atoms: CG_11  and  CD1_20
REMARK   10  A    between atoms: CG_11  and  CD2_21
REMARK   11  A    between atoms: CA_12  and  CB_13
REMARK   12  A    between atoms: CA_12  and  C_18
REMARK   13  A    between atoms: CB_13  and  CG_14
REMARK   14  A    between atoms: CG_14  and  CD1_22
REMARK   15  A    between atoms: CG_14  and  CD2_23
REMARK   16  A    between atoms: CA_15  and  CB_17
REMARK   17  A    between atoms: CA_15  and  C_26
REMARK   18  A    between atoms: CB_17  and  CG_19
REMARK   19  A    between atoms: CG_19  and  CD1_24
REMARK   20  A    between atoms: CG_19  and  CD2_25
REMARK   21  A    between atoms: C_28  and  C_29
REMARK                            x       y       z     vdW  Elec       q    Type
REMARK                         _______ _______ _______ _____ _____    ______ ____
ROOT
ATOM      1  O   UNL     1      22.508   3.115 192.522  0.00  0.00    +0.000 OA
ATOM      2  N   UNL     1      22.901   0.913 192.975  0.00  0.00    +0.000 N 
ATOM      3  C   UNL     1      22.391   1.937 192.195  0.00  0.00    +0.000 C 
ATOM      4  H   UNL     1      23.201   0.101 192.441  0.00  0.00    +0.000 HD
ENDROOT
BRANCH   2   5
ATOM      5  CA  UNL     1      23.716   1.236 194.147  0.00  0.00    +0.000 C 
BRANCH   5   8
ATOM      6  O   UNL     1      24.947  -0.842 194.052  0.00  0.00    +0.000 OA
ATOM      7  N   UNL     1      26.211   0.972 193.798  0.00  0.00    +0.000 N 
ATOM      8  C   UNL     1      24.994   0.391 193.988  0.00  0.00    +0.000 C 
ATOM      9  H   UNL     1      26.935   0.270 193.684  0.00  0.00    +0.000 HD
BRANCH   7  10
ATOM     10  CA  UNL     1      26.529   2.323 193.336  0.00  0.00    +0.000 C 
BRANCH  10  12
ATOM     11  O   UNL     1      25.534   4.464 193.940  0.00  0.00    +0.000 OA
ATOM     12  C   UNL     1      25.935   3.358 194.293  0.00  0.00    +0.000 C 
ENDBRANCH  10  12
BRANCH  10  13
ATOM     13  CB  UNL     1      26.133   2.543 191.868  0.00  0.00    +0.000 C 
BRANCH  13  14
ATOM     14  CG  UNL     1      27.045   1.926 190.784  0.00  0.00    +0.000 C 
ATOM     15  CD1 UNL     1      26.446   0.693 190.110  0.00  0.00    +0.000 C 
ATOM     16  CD2 UNL     1      27.362   2.985 189.723  0.00  0.00    +0.000 C 
ENDBRANCH  13  14
ENDBRANCH  10  13
ENDBRANCH   7  10
ENDBRANCH   5   8
BRANCH   5  17
ATOM     17  CB  UNL     1      22.971   0.838 195.429  0.00  0.00    +0.000 C 
BRANCH  17  18
ATOM     18  CG  UNL     1      21.638   0.100 195.194  0.00  0.00    +0.000 C 
ATOM     19  CD1 UNL     1      21.660  -1.327 195.742  0.00  0.00    +0.000 C 
ATOM     20  CD2 UNL     1      20.494   0.878 195.851  0.00  0.00    +0.000 C 
ENDBRANCH  17  18
ENDBRANCH   5  17
ENDBRANCH   2   5
BRANCH   3  21
ATOM     21  CA  UNL     1      21.748   1.477 190.864  0.00  0.00    +0.000 C 
BRANCH  21  23
ATOM     22  O   UNL     1      19.124   0.989 189.944  0.00  0.00    +0.000 OA
ATOM     23  N   UNL     1      20.796   2.493 190.394  0.00  0.00    +0.000 N 
ATOM     24  C   ACE A   0      19.557   2.130 189.936  0.00  0.00    +0.000 C 
ATOM     25  H   UNL     1      21.174   3.354 190.026  0.00  0.00    +0.000 HD
BRANCH  24  26
ATOM     26  O   UNL     1      18.889   3.158 189.361  0.00  0.00    +0.000 OA
BRANCH  26  27
ATOM     27  C   UNL     1      18.633   3.021 187.958  0.00  0.00    +0.000 C 
BRANCH  27  28
ATOM     28  C   UNL     1      19.769   3.629 187.173  0.00  0.00    +0.000 A 
ATOM     29  C   UNL     1      20.440   4.761 187.656  0.00  0.00    +0.000 A 
ATOM     30  C   UNL     1      20.135   3.111 185.922  0.00  0.00    +0.000 A 
ATOM     31  C   UNL     1      21.471   5.346 186.917  0.00  0.00    +0.000 A 
ATOM     32  C   UNL     1      21.164   3.696 185.183  0.00  0.00    +0.000 A 
ATOM     33  C   UNL     1      21.833   4.812 185.681  0.00  0.00    +0.000 A 
ENDBRANCH  27  28
ENDBRANCH  26  27
ENDBRANCH  24  26
ENDBRANCH  21  23
BRANCH  21  34
ATOM     34  CB  UNL     1      22.813   1.222 189.782  0.00  0.00    +0.000 C 
BRANCH  34  35
ATOM     35  CG  UNL     1      22.902   2.277 188.659  0.00  0.00    +0.000 C 
ATOM     36  CD1 UNL     1      23.863   3.416 189.003  0.00  0.00    +0.000 C 
ATOM     37  CD2 UNL     1      23.352   1.602 187.359  0.00  0.00    +0.000 C 
ENDBRANCH  34  35
ENDBRANCH  21  34
ENDBRANCH   3  21
TORSDOF 15
ENDMDL
