MODEL 1
REMARK VINA RESULT:      -6.9      0.000      0.000
REMARK  Name = Monobenzone.pdbqt.pdb
REMARK  4 active torsions:
REMARK  status: ('A' for Active; 'I' for Inactive)
REMARK    1  A    between atoms: C_1  and  O_7
REMARK    2  A    between atoms: C_6  and  O_15
REMARK    3  A    between atoms: O_7  and  C_8
REMARK    4  A    between atoms: C_8  and  C_9
REMARK                            x       y       z     vdW  Elec       q    Type
REMARK                         _______ _______ _______ _____ _____    ______ ____
ROOT
ATOM      1  C   UNL     1      19.894   3.850 187.111  0.00  0.00    +0.000 A 
ATOM      2  C   UNL     1      20.673   4.875 187.654  0.00  0.00    +0.000 A 
ATOM      3  C   UNL     1      20.196   3.350 185.843  0.00  0.00    +0.000 A 
ATOM      4  C   UNL     1      21.746   5.397 186.937  0.00  0.00    +0.000 A 
ATOM      5  C   UNL     1      21.268   3.869 185.121  0.00  0.00    +0.000 A 
ATOM      6  C   UNL     1      22.035   4.889 185.674  0.00  0.00    +0.000 A 
ENDROOT
BRANCH   6   7
ATOM      7  O   UNL     1      23.080   5.381 184.949  0.00  0.00    +0.000 OA
ATOM      8  H   UNL     1      22.882   6.304 184.714  0.00  0.00    +0.000 HD
ENDBRANCH   6   7
BRANCH   1   9
ATOM      9  O   UNL     1      18.820   3.274 187.741  0.00  0.00    +0.000 OA
BRANCH   9  10
ATOM     10  C   UNL     1      19.051   2.875 188.989  0.00  0.00    +0.000 C 
BRANCH  10  11
ATOM     11  C   UNL     1      19.300   2.464 190.332  0.00  0.00    +0.000 A 
ATOM     12  C   UNL     1      20.445   2.905 190.991  0.00  0.00    +0.000 A 
ATOM     13  C   UNL     1      20.691   2.499 192.301  0.00  0.00    +0.000 A 
ATOM     14  C   UNL     1      19.793   1.653 192.948  0.00  0.00    +0.000 A 
ATOM     15  C   UNL     1      18.648   1.214 192.286  0.00  0.00    +0.000 A 
ATOM     16  C   UNL     1      18.401   1.619 190.977  0.00  0.00    +0.000 A 
ENDBRANCH  10  11
ENDBRANCH   9  10
ENDBRANCH   1   9
TORSDOF 4
ENDMDL
MODEL 2
REMARK VINA RESULT:      -6.8      0.306      1.790
REMARK  Name = Monobenzone.pdbqt.pdb
REMARK  4 active torsions:
REMARK  status: ('A' for Active; 'I' for Inactive)
REMARK    1  A    between atoms: C_1  and  O_7
REMARK    2  A    between atoms: C_6  and  O_15
REMARK    3  A    between atoms: O_7  and  C_8
REMARK    4  A    between atoms: C_8  and  C_9
REMARK                            x       y       z     vdW  Elec       q    Type
REMARK                         _______ _______ _______ _____ _____    ______ ____
ROOT
ATOM      1  C   UNL     1      19.916   3.927 187.099  0.00  0.00    +0.000 A 
ATOM      2  C   UNL     1      20.211   3.410 185.835  0.00  0.00    +0.000 A 
ATOM      3  C   UNL     1      20.720   4.931 187.640  0.00  0.00    +0.000 A 
ATOM      4  C   UNL     1      21.300   3.894 185.116  0.00  0.00    +0.000 A 
ATOM      5  C   UNL     1      21.812   5.418 186.926  0.00  0.00    +0.000 A 
ATOM      6  C   UNL     1      22.093   4.895 185.668  0.00  0.00    +0.000 A 
ENDROOT
BRANCH   6   7
ATOM      7  O   UNL     1      23.166   5.388 184.986  0.00  0.00    +0.000 OA
ATOM      8  H   UNL     1      23.964   5.240 185.523  0.00  0.00    +0.000 HD
ENDBRANCH   6   7
BRANCH   1   9
ATOM      9  O   UNL     1      18.866   3.515 187.882  0.00  0.00    +0.000 OA
BRANCH   9  10
ATOM     10  C   UNL     1      19.204   3.106 189.102  0.00  0.00    +0.000 C 
BRANCH  10  11
ATOM     11  C   UNL     1      19.580   2.661 190.404  0.00  0.00    +0.000 A 
ATOM     12  C   UNL     1      18.773   1.753 191.086  0.00  0.00    +0.000 A 
ATOM     13  C   UNL     1      19.137   1.322 192.360  0.00  0.00    +0.000 A 
ATOM     14  C   UNL     1      20.306   1.799 192.948  0.00  0.00    +0.000 A 
ATOM     15  C   UNL     1      21.112   2.707 192.263  0.00  0.00    +0.000 A 
ATOM     16  C   UNL     1      20.749   3.138 190.990  0.00  0.00    +0.000 A 
ENDBRANCH  10  11
ENDBRANCH   9  10
ENDBRANCH   1   9
TORSDOF 4
ENDMDL
MODEL 3
REMARK VINA RESULT:      -6.7      2.022      6.179
REMARK  Name = Monobenzone.pdbqt.pdb
REMARK  4 active torsions:
REMARK  status: ('A' for Active; 'I' for Inactive)
REMARK    1  A    between atoms: C_1  and  O_7
REMARK    2  A    between atoms: C_6  and  O_15
REMARK    3  A    between atoms: O_7  and  C_8
REMARK    4  A    between atoms: C_8  and  C_9
REMARK                            x       y       z     vdW  Elec       q    Type
REMARK                         _______ _______ _______ _____ _____    ______ ____
ROOT
ATOM      1  C   UNL     1      18.453   1.795 189.741  0.00  0.00    +0.000 A 
ATOM      2  C   UNL     1      17.567   1.674 190.815  0.00  0.00    +0.000 A 
ATOM      3  C   UNL     1      19.814   1.555 189.937  0.00  0.00    +0.000 A 
ATOM      4  C   UNL     1      18.037   1.315 192.076  0.00  0.00    +0.000 A 
ATOM      5  C   UNL     1      20.289   1.196 191.196  0.00  0.00    +0.000 A 
ATOM      6  C   UNL     1      19.396   1.079 192.256  0.00  0.00    +0.000 A 
ENDROOT
BRANCH   6   7
ATOM      7  O   UNL     1      19.885   0.726 193.480  0.00  0.00    +0.000 OA
ATOM      8  H   UNL     1      19.680  -0.213 193.631  0.00  0.00    +0.000 HD
ENDBRANCH   6   7
BRANCH   1   9
ATOM      9  O   UNL     1      18.084   2.142 188.466  0.00  0.00    +0.000 OA
BRANCH   9  10
ATOM     10  C   UNL     1      19.001   2.825 187.785  0.00  0.00    +0.000 C 
BRANCH  10  11
ATOM     11  C   UNL     1      19.984   3.546 187.044  0.00  0.00    +0.000 A 
ATOM     12  C   UNL     1      20.619   4.643 187.620  0.00  0.00    +0.000 A 
ATOM     13  C   UNL     1      21.575   5.351 186.894  0.00  0.00    +0.000 A 
ATOM     14  C   UNL     1      21.893   4.959 185.596  0.00  0.00    +0.000 A 
ATOM     15  C   UNL     1      21.257   3.861 185.022  0.00  0.00    +0.000 A 
ATOM     16  C   UNL     1      20.301   3.153 185.746  0.00  0.00    +0.000 A 
ENDBRANCH  10  11
ENDBRANCH   9  10
ENDBRANCH   1   9
TORSDOF 4
ENDMDL
MODEL 4
REMARK VINA RESULT:      -6.7      1.298      1.881
REMARK  Name = Monobenzone.pdbqt.pdb
REMARK  4 active torsions:
REMARK  status: ('A' for Active; 'I' for Inactive)
REMARK    1  A    between atoms: C_1  and  O_7
REMARK    2  A    between atoms: C_6  and  O_15
REMARK    3  A    between atoms: O_7  and  C_8
REMARK    4  A    between atoms: C_8  and  C_9
REMARK                            x       y       z     vdW  Elec       q    Type
REMARK                         _______ _______ _______ _____ _____    ______ ____
ROOT
ATOM      1  C   UNL     1      21.015   4.726 187.335  0.00  0.00    +0.000 A 
ATOM      2  C   UNL     1      22.045   5.357 186.633  0.00  0.00    +0.000 A 
ATOM      3  C   UNL     1      20.236   3.758 186.699  0.00  0.00    +0.000 A 
ATOM      4  C   UNL     1      22.295   5.024 185.304  0.00  0.00    +0.000 A 
ATOM      5  C   UNL     1      20.481   3.421 185.371  0.00  0.00    +0.000 A 
ATOM      6  C   UNL     1      21.510   4.057 184.683  0.00  0.00    +0.000 A 
ENDROOT
BRANCH   6   7
ATOM      7  O   UNL     1      21.732   3.711 183.383  0.00  0.00    +0.000 OA
ATOM      8  H   UNL     1      21.830   2.744 183.336  0.00  0.00    +0.000 HD
ENDBRANCH   6   7
BRANCH   1   9
ATOM      9  O   UNL     1      20.695   4.986 188.644  0.00  0.00    +0.000 OA
BRANCH   9  10
ATOM     10  C   UNL     1      19.999   4.028 189.251  0.00  0.00    +0.000 C 
BRANCH  10  11
ATOM     11  C   UNL     1      19.268   2.995 189.909  0.00  0.00    +0.000 A 
ATOM     12  C   UNL     1      19.336   2.872 191.295  0.00  0.00    +0.000 A 
ATOM     13  C   UNL     1      18.625   1.860 191.937  0.00  0.00    +0.000 A 
ATOM     14  C   UNL     1      17.850   0.975 191.192  0.00  0.00    +0.000 A 
ATOM     15  C   UNL     1      17.783   1.100 189.806  0.00  0.00    +0.000 A 
ATOM     16  C   UNL     1      18.492   2.111 189.163  0.00  0.00    +0.000 A 
ENDBRANCH  10  11
ENDBRANCH   9  10
ENDBRANCH   1   9
TORSDOF 4
ENDMDL
MODEL 5
REMARK VINA RESULT:      -6.4      1.857      5.977
REMARK  Name = Monobenzone.pdbqt.pdb
REMARK  4 active torsions:
REMARK  status: ('A' for Active; 'I' for Inactive)
REMARK    1  A    between atoms: C_1  and  O_7
REMARK    2  A    between atoms: C_6  and  O_15
REMARK    3  A    between atoms: O_7  and  C_8
REMARK    4  A    between atoms: C_8  and  C_9
REMARK                            x       y       z     vdW  Elec       q    Type
REMARK                         _______ _______ _______ _____ _____    ______ ____
ROOT
ATOM      1  C   UNL     1      18.776   2.957 188.672  0.00  0.00    +0.000 A 
ATOM      2  C   UNL     1      17.878   1.887 188.695  0.00  0.00    +0.000 A 
ATOM      3  C   UNL     1      19.470   3.302 189.833  0.00  0.00    +0.000 A 
ATOM      4  C   UNL     1      17.675   1.167 189.869  0.00  0.00    +0.000 A 
ATOM      5  C   UNL     1      19.271   2.586 191.010  0.00  0.00    +0.000 A 
ATOM      6  C   UNL     1      18.374   1.522 191.018  0.00  0.00    +0.000 A 
ENDROOT
BRANCH   6   7
ATOM      7  O   UNL     1      18.195   0.834 192.182  0.00  0.00    +0.000 OA
ATOM      8  H   UNL     1      18.868   1.131 192.820  0.00  0.00    +0.000 HD
ENDBRANCH   6   7
BRANCH   1   9
ATOM      9  O   UNL     1      19.042   3.724 187.565  0.00  0.00    +0.000 OA
BRANCH   9  10
ATOM     10  C   UNL     1      20.296   4.159 187.475  0.00  0.00    +0.000 C 
BRANCH  10  11
ATOM     11  C   UNL     1      21.643   4.621 187.394  0.00  0.00    +0.000 A 
ATOM     12  C   UNL     1      22.160   5.432 188.401  0.00  0.00    +0.000 A 
ATOM     13  C   UNL     1      23.474   5.888 188.318  0.00  0.00    +0.000 A 
ATOM     14  C   UNL     1      24.267   5.531 187.231  0.00  0.00    +0.000 A 
ATOM     15  C   UNL     1      23.748   4.719 186.224  0.00  0.00    +0.000 A 
ATOM     16  C   UNL     1      22.435   4.263 186.305  0.00  0.00    +0.000 A 
ENDBRANCH  10  11
ENDBRANCH   9  10
ENDBRANCH   1   9
TORSDOF 4
ENDMDL
MODEL 6
REMARK VINA RESULT:      -6.2      1.690      2.269
REMARK  Name = Monobenzone.pdbqt.pdb
REMARK  4 active torsions:
REMARK  status: ('A' for Active; 'I' for Inactive)
REMARK    1  A    between atoms: C_1  and  O_7
REMARK    2  A    between atoms: C_6  and  O_15
REMARK    3  A    between atoms: O_7  and  C_8
REMARK    4  A    between atoms: C_8  and  C_9
REMARK                            x       y       z     vdW  Elec       q    Type
REMARK                         _______ _______ _______ _____ _____    ______ ____
ROOT
ATOM      1  C   UNL     1      22.283   2.659 186.874  0.00  0.00    +0.000 A 
ATOM      2  C   UNL     1      23.378   3.525 186.936  0.00  0.00    +0.000 A 
ATOM      3  C   UNL     1      21.262   2.901 185.954  0.00  0.00    +0.000 A 
ATOM      4  C   UNL     1      23.452   4.624 186.084  0.00  0.00    +0.000 A 
ATOM      5  C   UNL     1      21.330   3.999 185.101  0.00  0.00    +0.000 A 
ATOM      6  C   UNL     1      22.426   4.852 185.172  0.00  0.00    +0.000 A 
ENDROOT
BRANCH   6   7
ATOM      7  O   UNL     1      22.473   5.921 184.326  0.00  0.00    +0.000 OA
ATOM      8  H   UNL     1      23.393   6.232 184.277  0.00  0.00    +0.000 HD
ENDBRANCH   6   7
BRANCH   1   9
ATOM      9  O   UNL     1      22.123   1.553 187.670  0.00  0.00    +0.000 OA
BRANCH   9  10
ATOM     10  C   UNL     1      21.193   1.674 188.614  0.00  0.00    +0.000 C 
BRANCH  10  11
ATOM     11  C   UNL     1      20.208   1.806 189.638  0.00  0.00    +0.000 A 
ATOM     12  C   UNL     1      18.911   1.351 189.414  0.00  0.00    +0.000 A 
ATOM     13  C   UNL     1      17.948   1.485 190.413  0.00  0.00    +0.000 A 
ATOM     14  C   UNL     1      18.284   2.073 191.630  0.00  0.00    +0.000 A 
ATOM     15  C   UNL     1      19.583   2.527 191.851  0.00  0.00    +0.000 A 
ATOM     16  C   UNL     1      20.546   2.394 190.855  0.00  0.00    +0.000 A 
ENDBRANCH  10  11
ENDBRANCH   9  10
ENDBRANCH   1   9
TORSDOF 4
ENDMDL
MODEL 7
REMARK VINA RESULT:      -6.2      2.750      6.609
REMARK  Name = Monobenzone.pdbqt.pdb
REMARK  4 active torsions:
REMARK  status: ('A' for Active; 'I' for Inactive)
REMARK    1  A    between atoms: C_1  and  O_7
REMARK    2  A    between atoms: C_6  and  O_15
REMARK    3  A    between atoms: O_7  and  C_8
REMARK    4  A    between atoms: C_8  and  C_9
REMARK                            x       y       z     vdW  Elec       q    Type
REMARK                         _______ _______ _______ _____ _____    ______ ____
ROOT
ATOM      1  C   UNL     1      19.973   1.548 192.147  0.00  0.00    +0.000 A 
ATOM      2  C   UNL     1      19.084   0.608 192.674  0.00  0.00    +0.000 A 
ATOM      3  C   UNL     1      21.319   1.214 191.988  0.00  0.00    +0.000 A 
ATOM      4  C   UNL     1      19.536  -0.657 193.039  0.00  0.00    +0.000 A 
ATOM      5  C   UNL     1      21.777  -0.050 192.353  0.00  0.00    +0.000 A 
ATOM      6  C   UNL     1      20.880  -0.976 192.875  0.00  0.00    +0.000 A 
ENDROOT
BRANCH   6   7
ATOM      7  O   UNL     1      21.350  -2.208 193.224  0.00  0.00    +0.000 OA
ATOM      8  H   UNL     1      21.388  -2.759 192.423  0.00  0.00    +0.000 HD
ENDBRANCH   6   7
BRANCH   1   9
ATOM      9  O   UNL     1      19.622   2.817 191.759  0.00  0.00    +0.000 OA
BRANCH   9  10
ATOM     10  C   UNL     1      19.766   3.064 190.459  0.00  0.00    +0.000 C 
BRANCH  10  11
ATOM     11  C   UNL     1      19.932   3.319 189.066  0.00  0.00    +0.000 A 
ATOM     12  C   UNL     1      19.533   2.364 188.134  0.00  0.00    +0.000 A 
ATOM     13  C   UNL     1      19.701   2.611 186.773  0.00  0.00    +0.000 A 
ATOM     14  C   UNL     1      20.266   3.811 186.348  0.00  0.00    +0.000 A 
ATOM     15  C   UNL     1      20.664   4.765 187.282  0.00  0.00    +0.000 A 
ATOM     16  C   UNL     1      20.497   4.520 188.642  0.00  0.00    +0.000 A 
ENDBRANCH  10  11
ENDBRANCH   9  10
ENDBRANCH   1   9
TORSDOF 4
ENDMDL
MODEL 8
REMARK VINA RESULT:      -6.1      2.950      6.995
REMARK  Name = Monobenzone.pdbqt.pdb
REMARK  4 active torsions:
REMARK  status: ('A' for Active; 'I' for Inactive)
REMARK    1  A    between atoms: C_1  and  O_7
REMARK    2  A    between atoms: C_6  and  O_15
REMARK    3  A    between atoms: O_7  and  C_8
REMARK    4  A    between atoms: C_8  and  C_9
REMARK                            x       y       z     vdW  Elec       q    Type
REMARK                         _______ _______ _______ _____ _____    ______ ____
ROOT
ATOM      1  C   UNL     1      20.975   0.633 191.907  0.00  0.00    +0.000 A 
ATOM      2  C   UNL     1      21.140  -0.655 192.421  0.00  0.00    +0.000 A 
ATOM      3  C   UNL     1      19.887   1.406 192.316  0.00  0.00    +0.000 A 
ATOM      4  C   UNL     1      20.226  -1.168 193.338  0.00  0.00    +0.000 A 
ATOM      5  C   UNL     1      18.969   0.898 193.232  0.00  0.00    +0.000 A 
ATOM      6  C   UNL     1      19.147  -0.386 193.737  0.00  0.00    +0.000 A 
ENDROOT
BRANCH   6   7
ATOM      7  O   UNL     1      18.236  -0.863 194.633  0.00  0.00    +0.000 OA
ATOM      8  H   UNL     1      17.977  -0.133 195.223  0.00  0.00    +0.000 HD
ENDBRANCH   6   7
BRANCH   1   9
ATOM      9  O   UNL     1      21.821   1.223 191.002  0.00  0.00    +0.000 OA
BRANCH   9  10
ATOM     10  C   UNL     1      21.234   1.662 189.891  0.00  0.00    +0.000 C 
BRANCH  10  11
ATOM     11  C   UNL     1      20.595   2.119 188.700  0.00  0.00    +0.000 A 
ATOM     12  C   UNL     1      19.254   2.493 188.733  0.00  0.00    +0.000 A 
ATOM     13  C   UNL     1      18.629   2.934 187.568  0.00  0.00    +0.000 A 
ATOM     14  C   UNL     1      19.346   3.000 186.376  0.00  0.00    +0.000 A 
ATOM     15  C   UNL     1      20.688   2.626 186.346  0.00  0.00    +0.000 A 
ATOM     16  C   UNL     1      21.314   2.185 187.509  0.00  0.00    +0.000 A 
ENDBRANCH  10  11
ENDBRANCH   9  10
ENDBRANCH   1   9
TORSDOF 4
ENDMDL
MODEL 9
REMARK VINA RESULT:      -6.0      2.983      6.389
REMARK  Name = Monobenzone.pdbqt.pdb
REMARK  4 active torsions:
REMARK  status: ('A' for Active; 'I' for Inactive)
REMARK    1  A    between atoms: C_1  and  O_7
REMARK    2  A    between atoms: C_6  and  O_15
REMARK    3  A    between atoms: O_7  and  C_8
REMARK    4  A    between atoms: C_8  and  C_9
REMARK                            x       y       z     vdW  Elec       q    Type
REMARK                         _______ _______ _______ _____ _____    ______ ____
ROOT
ATOM      1  C   UNL     1      20.908   2.172 191.144  0.00  0.00    +0.000 A 
ATOM      2  C   UNL     1      20.533   1.451 190.007  0.00  0.00    +0.000 A 
ATOM      3  C   UNL     1      19.941   2.528 192.086  0.00  0.00    +0.000 A 
ATOM      4  C   UNL     1      19.203   1.088 189.813  0.00  0.00    +0.000 A 
ATOM      5  C   UNL     1      18.609   2.169 191.896  0.00  0.00    +0.000 A 
ATOM      6  C   UNL     1      18.251   1.451 190.760  0.00  0.00    +0.000 A 
ENDROOT
BRANCH   6   7
ATOM      7  O   UNL     1      16.941   1.108 190.595  0.00  0.00    +0.000 OA
ATOM      8  H   UNL     1      16.900   0.171 190.338  0.00  0.00    +0.000 HD
ENDBRANCH   6   7
BRANCH   1   9
ATOM      9  O   UNL     1      22.190   2.573 191.422  0.00  0.00    +0.000 OA
BRANCH   9  10
ATOM     10  C   UNL     1      22.770   3.295 190.466  0.00  0.00    +0.000 C 
BRANCH  10  11
ATOM     11  C   UNL     1      23.406   4.061 189.444  0.00  0.00    +0.000 A 
ATOM     12  C   UNL     1      22.659   4.960 188.687  0.00  0.00    +0.000 A 
ATOM     13  C   UNL     1      23.279   5.704 187.685  0.00  0.00    +0.000 A 
ATOM     14  C   UNL     1      24.642   5.547 187.443  0.00  0.00    +0.000 A 
ATOM     15  C   UNL     1      25.386   4.647 188.203  0.00  0.00    +0.000 A 
ATOM     16  C   UNL     1      24.768   3.903 189.204  0.00  0.00    +0.000 A 
ENDBRANCH  10  11
ENDBRANCH   9  10
ENDBRANCH   1   9
TORSDOF 4
ENDMDL
