MODEL 1
REMARK VINA RESULT:     -10.0      0.000      0.000
REMARK  Name = OTSSP167.pdbqt.pdb
REMARK  7 active torsions:
REMARK  status: ('A' for Active; 'I' for Inactive)
REMARK    1  A    between atoms: C_5  and  N_19
REMARK    2  A    between atoms: C_7  and  C_31
REMARK    3  A    between atoms: C_11  and  C_13
REMARK    4  A    between atoms: C_18  and  O_34
REMARK    5  A    between atoms: N_19  and  C_21
REMARK    6  A    between atoms: C_24  and  C_27
REMARK    7  A    between atoms: C_27  and  N_28
REMARK                            x       y       z     vdW  Elec       q    Type
REMARK                         _______ _______ _______ _____ _____    ______ ____
ROOT
ATOM      1  N   UNL     1      20.647   2.545 188.458  0.00  0.00    +0.000 NA
ATOM      2  N   UNL     1      17.482   1.293 189.786  0.00  0.00    +0.000 NA
ATOM      3  C   UNL     1      20.200   1.328 190.519  0.00  0.00    +0.000 A 
ATOM      4  C   UNL     1      19.780   1.946 189.311  0.00  0.00    +0.000 A 
ATOM      5  C   UNL     1      19.226   0.703 191.323  0.00  0.00    +0.000 A 
ATOM      6  C   UNL     1      18.403   1.885 189.008  0.00  0.00    +0.000 A 
ATOM      7  C   UNL     1      17.908   0.714 190.923  0.00  0.00    +0.000 A 
ATOM      8  C   UNL     1      17.984   2.474 187.829  0.00  0.00    +0.000 A 
ATOM      9  C   UNL     1      20.208   3.123 187.312  0.00  0.00    +0.000 A 
ATOM     10  C   UNL     1      18.871   3.101 186.966  0.00  0.00    +0.000 A 
ENDROOT
BRANCH   9  13
ATOM     11 CL   UNL     1      21.813   4.464 182.588  0.00  0.00    +0.000 Cl
ATOM     12 CL   UNL     1      24.729   5.614 187.046  0.00  0.00    +0.000 Cl
ATOM     13  C   UNL     1      21.227   3.776 186.487  0.00  0.00    +0.000 A 
ATOM     14  C   UNL     1      22.379   4.340 187.047  0.00  0.00    +0.000 A 
ATOM     15  C   UNL     1      21.087   3.844 185.095  0.00  0.00    +0.000 A 
ATOM     16  C   UNL     1      22.054   4.445 184.293  0.00  0.00    +0.000 A 
ATOM     17  C   UNL     1      23.352   4.950 186.254  0.00  0.00    +0.000 A 
ATOM     18  C   UNL     1      23.194   5.004 184.869  0.00  0.00    +0.000 A 
BRANCH  18  19
ATOM     19  O   UNL     1      24.154   5.600 184.095  0.00  0.00    +0.000 OA
ATOM     20  H   UNL     1      24.863   5.924 184.682  0.00  0.00    +0.000 HD
ENDBRANCH  18  19
ENDBRANCH   9  13
BRANCH   5  21
ATOM     21  C   UNL     1      19.547  -0.003 192.562  0.00  0.00    +0.000 C 
ATOM     22  O   UNL     1      20.207  -1.026 192.633  0.00  0.00    +0.000 OA
ATOM     23  C   UNL     1      19.060   0.418 193.915  0.00  0.00    +0.000 C 
ENDBRANCH   5  21
BRANCH   3  24
ATOM     24  N   UNL     1      21.546   1.401 191.004  0.00  0.00    +0.000 N 
ATOM     25  H   UNL     1      21.638   1.811 191.938  0.00  0.00    +0.000 HD
BRANCH  24  26
ATOM     26  C   UNL     1      22.611   0.624 190.642  0.00  0.00    +0.000 A 
ATOM     27  C   UNL     1      23.558   0.272 191.669  0.00  0.00    +0.000 A 
ATOM     28  C   UNL     1      25.101   0.235 191.516  0.00  0.00    +0.000 A 
ATOM     29  C   UNL     1      25.819   0.564 190.308  0.00  0.00    +0.000 A 
ATOM     30  C   UNL     1      24.875   0.943 189.287  0.00  0.00    +0.000 A 
ATOM     31  C   UNL     1      23.335   0.979 189.445  0.00  0.00    +0.000 A 
BRANCH  29  32
ATOM     32  C   UNL     1      27.208   0.405 190.113  0.00  0.00    +0.000 C 
BRANCH  32  33
ATOM     33  N   UNL     1      28.634   0.232 189.896  0.00  0.00    +0.000 NA
ATOM     34  C   UNL     1      29.282   0.287 191.196  0.00  0.00    +0.000 C 
ATOM     35  C   UNL     1      29.100   1.381 189.138  0.00  0.00    +0.000 C 
ENDBRANCH  32  33
ENDBRANCH  29  32
ENDBRANCH  24  26
ENDBRANCH   3  24
TORSDOF 7
ENDMDL
MODEL 2
REMARK VINA RESULT:      -9.9      1.805      2.044
REMARK  Name = OTSSP167.pdbqt.pdb
REMARK  7 active torsions:
REMARK  status: ('A' for Active; 'I' for Inactive)
REMARK    1  A    between atoms: C_5  and  N_19
REMARK    2  A    between atoms: C_7  and  C_31
REMARK    3  A    between atoms: C_11  and  C_13
REMARK    4  A    between atoms: C_18  and  O_34
REMARK    5  A    between atoms: N_19  and  C_21
REMARK    6  A    between atoms: C_24  and  C_27
REMARK    7  A    between atoms: C_27  and  N_28
REMARK                            x       y       z     vdW  Elec       q    Type
REMARK                         _______ _______ _______ _____ _____    ______ ____
ROOT
ATOM      1  N   UNL     1      20.739   2.827 188.719  0.00  0.00    +0.000 NA
ATOM      2  N   UNL     1      17.640   1.461 190.090  0.00  0.00    +0.000 NA
ATOM      3  C   UNL     1      20.296   1.887 190.921  0.00  0.00    +0.000 A 
ATOM      4  C   UNL     1      19.887   2.273 189.617  0.00  0.00    +0.000 A 
ATOM      5  C   UNL     1      19.342   1.289 191.770  0.00  0.00    +0.000 A 
ATOM      6  C   UNL     1      18.542   2.024 189.270  0.00  0.00    +0.000 A 
ATOM      7  C   UNL     1      18.055   1.103 191.319  0.00  0.00    +0.000 A 
ATOM      8  C   UNL     1      18.136   2.386 187.998  0.00  0.00    +0.000 A 
ATOM      9  C   UNL     1      20.312   3.180 187.482  0.00  0.00    +0.000 A 
ATOM     10  C   UNL     1      19.006   2.968 187.088  0.00  0.00    +0.000 A 
ENDROOT
BRANCH   9  13
ATOM     11 CL   UNL     1      21.765   4.421 182.682  0.00  0.00    +0.000 Cl
ATOM     12 CL   UNL     1      24.847   5.617 187.014  0.00  0.00    +0.000 Cl
ATOM     13  C   UNL     1      21.308   3.807 186.610  0.00  0.00    +0.000 A 
ATOM     14  C   UNL     1      22.485   4.369 187.120  0.00  0.00    +0.000 A 
ATOM     15  C   UNL     1      21.121   3.853 185.223  0.00  0.00    +0.000 A 
ATOM     16  C   UNL     1      22.066   4.429 184.377  0.00  0.00    +0.000 A 
ATOM     17  C   UNL     1      23.436   4.954 186.283  0.00  0.00    +0.000 A 
ATOM     18  C   UNL     1      23.230   4.986 184.903  0.00  0.00    +0.000 A 
BRANCH  18  19
ATOM     19  O   UNL     1      24.169   5.557 184.086  0.00  0.00    +0.000 OA
ATOM     20  H   UNL     1      24.908   5.871 184.640  0.00  0.00    +0.000 HD
ENDBRANCH  18  19
ENDBRANCH   9  13
BRANCH   5  21
ATOM     21  C   UNL     1      19.659   0.811 193.114  0.00  0.00    +0.000 C 
ATOM     22  O   UNL     1      20.309   1.428 193.941  0.00  0.00    +0.000 OA
ATOM     23  C   UNL     1      19.263  -0.536 193.638  0.00  0.00    +0.000 C 
ENDBRANCH   5  21
BRANCH   3  24
ATOM     24  N   UNL     1      21.598   2.171 191.446  0.00  0.00    +0.000 N 
ATOM     25  H   UNL     1      21.596   2.693 192.327  0.00  0.00    +0.000 HD
BRANCH  24  26
ATOM     26  C   UNL     1      22.760   1.487 191.221  0.00  0.00    +0.000 A 
ATOM     27  C   UNL     1      22.690   0.049 191.175  0.00  0.00    +0.000 A 
ATOM     28  C   UNL     1      23.716  -0.936 191.792  0.00  0.00    +0.000 A 
ATOM     29  C   UNL     1      24.899  -0.547 192.521  0.00  0.00    +0.000 A 
ATOM     30  C   UNL     1      24.959   0.891 192.590  0.00  0.00    +0.000 A 
ATOM     31  C   UNL     1      23.930   1.871 191.973  0.00  0.00    +0.000 A 
BRANCH  29  32
ATOM     32  C   UNL     1      25.911  -1.426 192.968  0.00  0.00    +0.000 C 
BRANCH  32  33
ATOM     33  N   UNL     1      26.938  -2.338 193.440  0.00  0.00    +0.000 NA
ATOM     34  C   UNL     1      26.556  -2.771 194.774  0.00  0.00    +0.000 C 
ATOM     35  C   UNL     1      28.167  -1.575 193.575  0.00  0.00    +0.000 C 
ENDBRANCH  32  33
ENDBRANCH  29  32
ENDBRANCH  24  26
ENDBRANCH   3  24
TORSDOF 7
ENDMDL
MODEL 3
REMARK VINA RESULT:      -9.0      3.439      6.908
REMARK  Name = OTSSP167.pdbqt.pdb
REMARK  7 active torsions:
REMARK  status: ('A' for Active; 'I' for Inactive)
REMARK    1  A    between atoms: C_5  and  N_19
REMARK    2  A    between atoms: C_7  and  C_31
REMARK    3  A    between atoms: C_11  and  C_13
REMARK    4  A    between atoms: C_18  and  O_34
REMARK    5  A    between atoms: N_19  and  C_21
REMARK    6  A    between atoms: C_24  and  C_27
REMARK    7  A    between atoms: C_27  and  N_28
REMARK                            x       y       z     vdW  Elec       q    Type
REMARK                         _______ _______ _______ _____ _____    ______ ____
ROOT
ATOM      1  N   UNL     1      20.066   2.248 190.889  0.00  0.00    +0.000 NA
ATOM      2  N   UNL     1      18.116   2.277 187.798  0.00  0.00    +0.000 NA
ATOM      3  C   UNL     1      20.596   3.234 188.726  0.00  0.00    +0.000 A 
ATOM      4  C   UNL     1      19.746   2.498 189.594  0.00  0.00    +0.000 A 
ATOM      5  C   UNL     1      20.160   3.469 187.406  0.00  0.00    +0.000 A 
ATOM      6  C   UNL     1      18.518   2.053 189.060  0.00  0.00    +0.000 A 
ATOM      7  C   UNL     1      18.939   2.979 186.998  0.00  0.00    +0.000 A 
ATOM      8  C   UNL     1      17.678   1.345 189.900  0.00  0.00    +0.000 A 
ATOM      9  C   UNL     1      19.227   1.543 191.687  0.00  0.00    +0.000 A 
ATOM     10  C   UNL     1      18.015   1.077 191.219  0.00  0.00    +0.000 A 
ENDROOT
BRANCH   9  13
ATOM     11 CL   UNL     1      23.207   1.244 194.968  0.00  0.00    +0.000 Cl
ATOM     12 CL   UNL     1      18.086   0.302 196.574  0.00  0.00    +0.000 Cl
ATOM     13  C   UNL     1      19.693   1.299 193.055  0.00  0.00    +0.000 A 
ATOM     14  C   UNL     1      18.808   0.957 194.085  0.00  0.00    +0.000 A 
ATOM     15  C   UNL     1      21.054   1.385 193.376  0.00  0.00    +0.000 A 
ATOM     16  C   UNL     1      21.516   1.138 194.667  0.00  0.00    +0.000 A 
ATOM     17  C   UNL     1      19.259   0.713 195.382  0.00  0.00    +0.000 A 
ATOM     18  C   UNL     1      20.619   0.802 195.680  0.00  0.00    +0.000 A 
BRANCH  18  19
ATOM     19  O   UNL     1      21.057   0.557 196.955  0.00  0.00    +0.000 OA
ATOM     20  H   UNL     1      21.951   0.170 196.903  0.00  0.00    +0.000 HD
ENDBRANCH  18  19
ENDBRANCH   9  13
BRANCH   5  21
ATOM     21  C   UNL     1      20.927   4.251 186.440  0.00  0.00    +0.000 C 
ATOM     22  O   UNL     1      21.394   5.358 186.649  0.00  0.00    +0.000 OA
ATOM     23  C   UNL     1      21.201   3.809 185.034  0.00  0.00    +0.000 C 
ENDBRANCH   5  21
BRANCH   3  24
ATOM     24  N   UNL     1      21.913   3.657 189.098  0.00  0.00    +0.000 N 
ATOM     25  H   UNL     1      21.946   4.547 189.604  0.00  0.00    +0.000 HD
BRANCH  24  26
ATOM     26  C   UNL     1      23.020   2.878 189.294  0.00  0.00    +0.000 A 
ATOM     27  C   UNL     1      22.883   1.460 189.084  0.00  0.00    +0.000 A 
ATOM     28  C   UNL     1      23.503   0.342 189.963  0.00  0.00    +0.000 A 
ATOM     29  C   UNL     1      24.308   0.567 191.139  0.00  0.00    +0.000 A 
ATOM     30  C   UNL     1      24.424   1.986 191.366  0.00  0.00    +0.000 A 
ATOM     31  C   UNL     1      23.802   3.098 190.486  0.00  0.00    +0.000 A 
BRANCH  29  32
ATOM     32  C   UNL     1      24.990  -0.432 191.868  0.00  0.00    +0.000 C 
BRANCH  32  33
ATOM     33  N   UNL     1      25.675  -1.467 192.623  0.00  0.00    +0.000 NA
ATOM     34  C   UNL     1      25.205  -1.385 193.996  0.00  0.00    +0.000 C 
ATOM     35  C   UNL     1      27.089  -1.131 192.635  0.00  0.00    +0.000 C 
ENDBRANCH  32  33
ENDBRANCH  29  32
ENDBRANCH  24  26
ENDBRANCH   3  24
TORSDOF 7
ENDMDL
MODEL 4
REMARK VINA RESULT:      -8.7      3.411      6.892
REMARK  Name = OTSSP167.pdbqt.pdb
REMARK  7 active torsions:
REMARK  status: ('A' for Active; 'I' for Inactive)
REMARK    1  A    between atoms: C_5  and  N_19
REMARK    2  A    between atoms: C_7  and  C_31
REMARK    3  A    between atoms: C_11  and  C_13
REMARK    4  A    between atoms: C_18  and  O_34
REMARK    5  A    between atoms: N_19  and  C_21
REMARK    6  A    between atoms: C_24  and  C_27
REMARK    7  A    between atoms: C_27  and  N_28
REMARK                            x       y       z     vdW  Elec       q    Type
REMARK                         _______ _______ _______ _____ _____    ______ ____
ROOT
ATOM      1  N   UNL     1      20.037   2.217 191.069  0.00  0.00    +0.000 NA
ATOM      2  N   UNL     1      18.047   2.257 188.005  0.00  0.00    +0.000 NA
ATOM      3  C   UNL     1      20.523   3.242 188.915  0.00  0.00    +0.000 A 
ATOM      4  C   UNL     1      19.696   2.480 189.783  0.00  0.00    +0.000 A 
ATOM      5  C   UNL     1      20.066   3.488 187.603  0.00  0.00    +0.000 A 
ATOM      6  C   UNL     1      18.468   2.023 189.258  0.00  0.00    +0.000 A 
ATOM      7  C   UNL     1      18.848   2.984 187.205  0.00  0.00    +0.000 A 
ATOM      8  C   UNL     1      17.651   1.290 190.099  0.00  0.00    +0.000 A 
ATOM      9  C   UNL     1      19.220   1.487 191.868  0.00  0.00    +0.000 A 
ATOM     10  C   UNL     1      18.009   1.008 191.409  0.00  0.00    +0.000 A 
ENDROOT
BRANCH   9  13
ATOM     11 CL   UNL     1      23.259   1.071 195.063  0.00  0.00    +0.000 Cl
ATOM     12 CL   UNL     1      18.147   0.292 196.781  0.00  0.00    +0.000 Cl
ATOM     13  C   UNL     1      19.707   1.231 193.226  0.00  0.00    +0.000 A 
ATOM     14  C   UNL     1      18.835   0.919 194.276  0.00  0.00    +0.000 A 
ATOM     15  C   UNL     1      21.077   1.276 193.518  0.00  0.00    +0.000 A 
ATOM     16  C   UNL     1      21.559   1.017 194.799  0.00  0.00    +0.000 A 
ATOM     17  C   UNL     1      19.306   0.664 195.564  0.00  0.00    +0.000 A 
ATOM     18  C   UNL     1      20.674   0.711 195.832  0.00  0.00    +0.000 A 
BRANCH  18  19
ATOM     19  O   UNL     1      21.132   0.455 197.097  0.00  0.00    +0.000 OA
ATOM     20  H   UNL     1      21.571  -0.416 197.095  0.00  0.00    +0.000 HD
ENDBRANCH  18  19
ENDBRANCH   9  13
BRANCH   5  21
ATOM     21  C   UNL     1      20.808   4.296 186.639  0.00  0.00    +0.000 C 
ATOM     22  O   UNL     1      21.196   5.436 186.832  0.00  0.00    +0.000 OA
ATOM     23  C   UNL     1      21.149   3.840 185.252  0.00  0.00    +0.000 C 
ENDBRANCH   5  21
BRANCH   3  24
ATOM     24  N   UNL     1      21.837   3.680 189.276  0.00  0.00    +0.000 N 
ATOM     25  H   UNL     1      21.874   4.263 190.117  0.00  0.00    +0.000 HD
BRANCH  24  26
ATOM     26  C   UNL     1      23.032   3.091 188.969  0.00  0.00    +0.000 A 
ATOM     27  C   UNL     1      23.703   2.361 190.014  0.00  0.00    +0.000 A 
ATOM     28  C   UNL     1      25.227   2.369 190.301  0.00  0.00    +0.000 A 
ATOM     29  C   UNL     1      26.203   3.130 189.559  0.00  0.00    +0.000 A 
ATOM     30  C   UNL     1      25.531   3.882 188.529  0.00  0.00    +0.000 A 
ATOM     31  C   UNL     1      24.008   3.871 188.247  0.00  0.00    +0.000 A 
BRANCH  29  32
ATOM     32  C   UNL     1      27.603   3.042 189.720  0.00  0.00    +0.000 C 
BRANCH  32  33
ATOM     33  N   UNL     1      29.041   2.942 189.902  0.00  0.00    +0.000 NA
ATOM     34  C   UNL     1      29.659   3.934 189.037  0.00  0.00    +0.000 C 
ATOM     35  C   UNL     1      29.450   1.636 189.412  0.00  0.00    +0.000 C 
ENDBRANCH  32  33
ENDBRANCH  29  32
ENDBRANCH  24  26
ENDBRANCH   3  24
TORSDOF 7
ENDMDL
MODEL 5
REMARK VINA RESULT:      -8.7      1.926      2.272
REMARK  Name = OTSSP167.pdbqt.pdb
REMARK  7 active torsions:
REMARK  status: ('A' for Active; 'I' for Inactive)
REMARK    1  A    between atoms: C_5  and  N_19
REMARK    2  A    between atoms: C_7  and  C_31
REMARK    3  A    between atoms: C_11  and  C_13
REMARK    4  A    between atoms: C_18  and  O_34
REMARK    5  A    between atoms: N_19  and  C_21
REMARK    6  A    between atoms: C_24  and  C_27
REMARK    7  A    between atoms: C_27  and  N_28
REMARK                            x       y       z     vdW  Elec       q    Type
REMARK                         _______ _______ _______ _____ _____    ______ ____
ROOT
ATOM      1  N   UNL     1      21.604   2.239 188.871  0.00  0.00    +0.000 NA
ATOM      2  N   UNL     1      18.797   0.911 190.796  0.00  0.00    +0.000 NA
ATOM      3  C   UNL     1      21.611   0.852 190.872  0.00  0.00    +0.000 A 
ATOM      4  C   UNL     1      20.941   1.577 189.851  0.00  0.00    +0.000 A 
ATOM      5  C   UNL     1      20.831   0.170 191.829  0.00  0.00    +0.000 A 
ATOM      6  C   UNL     1      19.530   1.558 189.876  0.00  0.00    +0.000 A 
ATOM      7  C   UNL     1      19.458   0.230 191.750  0.00  0.00    +0.000 A 
ATOM      8  C   UNL     1      18.867   2.251 188.879  0.00  0.00    +0.000 A 
ATOM      9  C   UNL     1      20.929   2.919 187.912  0.00  0.00    +0.000 A 
ATOM     10  C   UNL     1      19.548   2.941 187.887  0.00  0.00    +0.000 A 
ENDROOT
BRANCH   9  13
ATOM     11 CL   UNL     1      21.644   4.284 182.980  0.00  0.00    +0.000 Cl
ATOM     12 CL   UNL     1      25.142   5.736 186.897  0.00  0.00    +0.000 Cl
ATOM     13  C   UNL     1      21.749   3.630 186.927  0.00  0.00    +0.000 A 
ATOM     14  C   UNL     1      22.929   4.290 187.289  0.00  0.00    +0.000 A 
ATOM     15  C   UNL     1      21.381   3.660 185.576  0.00  0.00    +0.000 A 
ATOM     16  C   UNL     1      22.157   4.316 184.623  0.00  0.00    +0.000 A 
ATOM     17  C   UNL     1      23.711   4.955 186.344  0.00  0.00    +0.000 A 
ATOM     18  C   UNL     1      23.328   4.970 185.003  0.00  0.00    +0.000 A 
BRANCH  18  19
ATOM     19  O   UNL     1      24.102   5.621 184.079  0.00  0.00    +0.000 OA
ATOM     20  H   UNL     1      23.535   5.873 183.326  0.00  0.00    +0.000 HD
ENDBRANCH  18  19
ENDBRANCH   9  13
BRANCH   5  21
ATOM     21  C   UNL     1      21.409  -0.644 192.896  0.00  0.00    +0.000 C 
ATOM     22  O   UNL     1      22.244  -1.518 192.735  0.00  0.00    +0.000 OA
ATOM     23  C   UNL     1      21.010  -0.541 194.336  0.00  0.00    +0.000 C 
ENDBRANCH   5  21
BRANCH   3  24
ATOM     24  N   UNL     1      23.034   0.868 191.034  0.00  0.00    +0.000 N 
ATOM     25  H   UNL     1      23.536   0.201 190.441  0.00  0.00    +0.000 HD
BRANCH  24  26
ATOM     26  C   UNL     1      23.816   1.898 191.477  0.00  0.00    +0.000 A 
ATOM     27  C   UNL     1      24.683   2.538 190.519  0.00  0.00    +0.000 A 
ATOM     28  C   UNL     1      26.142   2.998 190.771  0.00  0.00    +0.000 A 
ATOM     29  C   UNL     1      26.854   2.839 192.016  0.00  0.00    +0.000 A 
ATOM     30  C   UNL     1      25.999   2.177 192.968  0.00  0.00    +0.000 A 
ATOM     31  C   UNL     1      24.542   1.718 192.711  0.00  0.00    +0.000 A 
BRANCH  29  32
ATOM     32  C   UNL     1      28.130   3.374 192.302  0.00  0.00    +0.000 C 
BRANCH  32  33
ATOM     33  N   UNL     1      29.436   3.928 192.615  0.00  0.00    +0.000 NA
ATOM     34  C   UNL     1      29.922   4.596 191.418  0.00  0.00    +0.000 C 
ATOM     35  C   UNL     1      30.330   2.812 192.872  0.00  0.00    +0.000 C 
ENDBRANCH  32  33
ENDBRANCH  29  32
ENDBRANCH  24  26
ENDBRANCH   3  24
TORSDOF 7
ENDMDL
MODEL 6
REMARK VINA RESULT:      -8.7      2.507      3.893
REMARK  Name = OTSSP167.pdbqt.pdb
REMARK  7 active torsions:
REMARK  status: ('A' for Active; 'I' for Inactive)
REMARK    1  A    between atoms: C_5  and  N_19
REMARK    2  A    between atoms: C_7  and  C_31
REMARK    3  A    between atoms: C_11  and  C_13
REMARK    4  A    between atoms: C_18  and  O_34
REMARK    5  A    between atoms: N_19  and  C_21
REMARK    6  A    between atoms: C_24  and  C_27
REMARK    7  A    between atoms: C_27  and  N_28
REMARK                            x       y       z     vdW  Elec       q    Type
REMARK                         _______ _______ _______ _____ _____    ______ ____
ROOT
ATOM      1  N   UNL     1      20.573   0.487 191.423  0.00  0.00    +0.000 NA
ATOM      2  N   UNL     1      18.262   0.465 194.253  0.00  0.00    +0.000 NA
ATOM      3  C   UNL     1      20.608  -0.867 193.446  0.00  0.00    +0.000 A 
ATOM      4  C   UNL     1      20.042   0.142 192.622  0.00  0.00    +0.000 A 
ATOM      5  C   UNL     1      19.963  -1.176 194.661  0.00  0.00    +0.000 A 
ATOM      6  C   UNL     1      18.864   0.763 193.090  0.00  0.00    +0.000 A 
ATOM      7  C   UNL     1      18.818  -0.496 195.013  0.00  0.00    +0.000 A 
ATOM      8  C   UNL     1      18.298   1.739 192.290  0.00  0.00    +0.000 A 
ATOM      9  C   UNL     1      20.003   1.454 190.663  0.00  0.00    +0.000 A 
ATOM     10  C   UNL     1      18.853   2.102 191.072  0.00  0.00    +0.000 A 
ENDROOT
BRANCH   9  13
ATOM     11 CL   UNL     1      24.412   1.520 187.970  0.00  0.00    +0.000 Cl
ATOM     12 CL   UNL     1      19.735   3.363 185.867  0.00  0.00    +0.000 Cl
ATOM     13  C   UNL     1      20.685   1.773 189.406  0.00  0.00    +0.000 A 
ATOM     14  C   UNL     1      20.007   2.348 188.325  0.00  0.00    +0.000 A 
ATOM     15  C   UNL     1      22.055   1.525 189.249  0.00  0.00    +0.000 A 
ATOM     16  C   UNL     1      22.723   1.838 188.068  0.00  0.00    +0.000 A 
ATOM     17  C   UNL     1      20.665   2.661 187.135  0.00  0.00    +0.000 A 
ATOM     18  C   UNL     1      22.030   2.408 187.001  0.00  0.00    +0.000 A 
BRANCH  18  19
ATOM     19  O   UNL     1      22.672   2.721 185.832  0.00  0.00    +0.000 OA
ATOM     20  H   UNL     1      22.029   2.652 185.101  0.00  0.00    +0.000 HD
ENDBRANCH  18  19
ENDBRANCH   9  13
BRANCH   5  21
ATOM     21  C   UNL     1      20.427  -2.225 195.566  0.00  0.00    +0.000 C 
ATOM     22  O   UNL     1      20.817  -3.327 195.218  0.00  0.00    +0.000 OA
ATOM     23  C   UNL     1      20.436  -2.098 197.059  0.00  0.00    +0.000 C 
ENDBRANCH   5  21
BRANCH   3  24
ATOM     24  N   UNL     1      21.854  -1.507 193.149  0.00  0.00    +0.000 N 
ATOM     25  H   UNL     1      21.776  -2.323 192.535  0.00  0.00    +0.000 HD
BRANCH  24  26
ATOM     26  C   UNL     1      23.105  -0.957 193.168  0.00  0.00    +0.000 A 
ATOM     27  C   UNL     1      23.252   0.348 193.760  0.00  0.00    +0.000 A 
ATOM     28  C   UNL     1      24.131   1.505 193.218  0.00  0.00    +0.000 A 
ATOM     29  C   UNL     1      24.933   1.441 192.020  0.00  0.00    +0.000 A 
ATOM     30  C   UNL     1      24.768   0.145 191.411  0.00  0.00    +0.000 A 
ATOM     31  C   UNL     1      23.887  -1.007 191.956  0.00  0.00    +0.000 A 
BRANCH  29  32
ATOM     32  C   UNL     1      25.841   2.433 191.590  0.00  0.00    +0.000 C 
BRANCH  32  33
ATOM     33  N   UNL     1      26.763   3.459 191.135  0.00  0.00    +0.000 NA
ATOM     34  C   UNL     1      27.261   3.050 189.832  0.00  0.00    +0.000 C 
ATOM     35  C   UNL     1      27.897   3.458 192.044  0.00  0.00    +0.000 C 
ENDBRANCH  32  33
ENDBRANCH  29  32
ENDBRANCH  24  26
ENDBRANCH   3  24
TORSDOF 7
ENDMDL
MODEL 7
REMARK VINA RESULT:      -8.4      3.346      7.091
REMARK  Name = OTSSP167.pdbqt.pdb
REMARK  7 active torsions:
REMARK  status: ('A' for Active; 'I' for Inactive)
REMARK    1  A    between atoms: C_5  and  N_19
REMARK    2  A    between atoms: C_7  and  C_31
REMARK    3  A    between atoms: C_11  and  C_13
REMARK    4  A    between atoms: C_18  and  O_34
REMARK    5  A    between atoms: N_19  and  C_21
REMARK    6  A    between atoms: C_24  and  C_27
REMARK    7  A    between atoms: C_27  and  N_28
REMARK                            x       y       z     vdW  Elec       q    Type
REMARK                         _______ _______ _______ _____ _____    ______ ____
ROOT
ATOM      1  N   UNL     1      23.777   2.245 189.845  0.00  0.00    +0.000 NA
ATOM      2  N   UNL     1      27.180   0.944 189.569  0.00  0.00    +0.000 NA
ATOM      3  C   UNL     1      25.759   2.787 191.153  0.00  0.00    +0.000 A 
ATOM      4  C   UNL     1      25.092   2.067 190.126  0.00  0.00    +0.000 A 
ATOM      5  C   UNL     1      27.136   2.554 191.346  0.00  0.00    +0.000 A 
ATOM      6  C   UNL     1      25.870   1.163 189.371  0.00  0.00    +0.000 A 
ATOM      7  C   UNL     1      27.787   1.641 190.546  0.00  0.00    +0.000 A 
ATOM      8  C   UNL     1      25.234   0.465 188.361  0.00  0.00    +0.000 A 
ATOM      9  C   UNL     1      23.176   1.541 188.856  0.00  0.00    +0.000 A 
ATOM     10  C   UNL     1      23.885   0.637 188.087  0.00  0.00    +0.000 A 
ENDROOT
BRANCH   9  13
ATOM     11 CL   UNL     1      18.393   1.218 190.781  0.00  0.00    +0.000 Cl
ATOM     12 CL   UNL     1      19.358   3.234 185.811  0.00  0.00    +0.000 Cl
ATOM     13  C   UNL     1      21.744   1.785 188.668  0.00  0.00    +0.000 A 
ATOM     14  C   UNL     1      21.239   2.334 187.483  0.00  0.00    +0.000 A 
ATOM     15  C   UNL     1      20.823   1.460 189.672  0.00  0.00    +0.000 A 
ATOM     16  C   UNL     1      19.456   1.668 189.504  0.00  0.00    +0.000 A 
ATOM     17  C   UNL     1      19.872   2.552 187.306  0.00  0.00    +0.000 A 
ATOM     18  C   UNL     1      18.972   2.218 188.318  0.00  0.00    +0.000 A 
BRANCH  18  19
ATOM     19  O   UNL     1      17.631   2.431 188.137  0.00  0.00    +0.000 OA
ATOM     20  H   UNL     1      17.455   3.385 188.242  0.00  0.00    +0.000 HD
ENDBRANCH  18  19
ENDBRANCH   9  13
BRANCH   5  21
ATOM     21  C   UNL     1      27.934   3.268 192.339  0.00  0.00    +0.000 C 
ATOM     22  O   UNL     1      27.641   3.391 193.517  0.00  0.00    +0.000 OA
ATOM     23  C   UNL     1      29.208   3.994 192.024  0.00  0.00    +0.000 C 
ENDBRANCH   5  21
BRANCH   3  24
ATOM     24  N   UNL     1      25.077   3.657 192.063  0.00  0.00    +0.000 N 
ATOM     25  H   UNL     1      25.040   4.637 191.767  0.00  0.00    +0.000 HD
BRANCH  24  26
ATOM     26  C   UNL     1      24.114   3.328 192.976  0.00  0.00    +0.000 A 
ATOM     27  C   UNL     1      24.094   1.973 193.466  0.00  0.00    +0.000 A 
ATOM     28  C   UNL     1      22.830   1.110 193.713  0.00  0.00    +0.000 A 
ATOM     29  C   UNL     1      21.474   1.543 193.475  0.00  0.00    +0.000 A 
ATOM     30  C   UNL     1      21.493   2.889 192.960  0.00  0.00    +0.000 A 
ATOM     31  C   UNL     1      22.758   3.747 192.714  0.00  0.00    +0.000 A 
BRANCH  29  32
ATOM     32  C   UNL     1      20.311   0.821 193.823  0.00  0.00    +0.000 C 
BRANCH  32  33
ATOM     33  N   UNL     1      19.118   0.083 194.200  0.00  0.00    +0.000 NA
ATOM     34  C   UNL     1      18.652   0.627 195.464  0.00  0.00    +0.000 C 
ATOM     35  C   UNL     1      19.520  -1.292 194.449  0.00  0.00    +0.000 C 
ENDBRANCH  32  33
ENDBRANCH  29  32
ENDBRANCH  24  26
ENDBRANCH   3  24
TORSDOF 7
ENDMDL
MODEL 8
REMARK VINA RESULT:      -8.3      3.896      7.961
REMARK  Name = OTSSP167.pdbqt.pdb
REMARK  7 active torsions:
REMARK  status: ('A' for Active; 'I' for Inactive)
REMARK    1  A    between atoms: C_5  and  N_19
REMARK    2  A    between atoms: C_7  and  C_31
REMARK    3  A    between atoms: C_11  and  C_13
REMARK    4  A    between atoms: C_18  and  O_34
REMARK    5  A    between atoms: N_19  and  C_21
REMARK    6  A    between atoms: C_24  and  C_27
REMARK    7  A    between atoms: C_27  and  N_28
REMARK                            x       y       z     vdW  Elec       q    Type
REMARK                         _______ _______ _______ _____ _____    ______ ____
ROOT
ATOM      1  N   UNL     1      22.303   1.494 191.582  0.00  0.00    +0.000 NA
ATOM      2  N   UNL     1      25.762   0.463 192.150  0.00  0.00    +0.000 NA
ATOM      3  C   UNL     1      23.555   1.336 193.664  0.00  0.00    +0.000 A 
ATOM      4  C   UNL     1      23.443   1.196 192.255  0.00  0.00    +0.000 A 
ATOM      5  C   UNL     1      24.792   1.031 194.268  0.00  0.00    +0.000 A 
ATOM      6  C   UNL     1      24.591   0.758 191.563  0.00  0.00    +0.000 A 
ATOM      7  C   UNL     1      25.843   0.607 193.485  0.00  0.00    +0.000 A 
ATOM      8  C   UNL     1      24.495   0.629 190.189  0.00  0.00    +0.000 A 
ATOM      9  C   UNL     1      22.234   1.350 190.236  0.00  0.00    +0.000 A 
ATOM     10  C   UNL     1      23.324   0.918 189.505  0.00  0.00    +0.000 A 
ENDROOT
BRANCH   9  13
ATOM     11 CL   UNL     1      17.084   1.391 190.646  0.00  0.00    +0.000 Cl
ATOM     12 CL   UNL     1      19.619   3.089 186.131  0.00  0.00    +0.000 Cl
ATOM     13  C   UNL     1      20.943   1.662 189.619  0.00  0.00    +0.000 A 
ATOM     14  C   UNL     1      20.851   2.175 188.319  0.00  0.00    +0.000 A 
ATOM     15  C   UNL     1      19.745   1.441 190.310  0.00  0.00    +0.000 A 
ATOM     16  C   UNL     1      18.507   1.715 189.732  0.00  0.00    +0.000 A 
ATOM     17  C   UNL     1      19.617   2.459 187.733  0.00  0.00    +0.000 A 
ATOM     18  C   UNL     1      18.437   2.228 188.438  0.00  0.00    +0.000 A 
BRANCH  18  19
ATOM     19  O   UNL     1      17.228   2.504 187.856  0.00  0.00    +0.000 OA
ATOM     20  H   UNL     1      16.524   2.127 188.416  0.00  0.00    +0.000 HD
ENDBRANCH  18  19
ENDBRANCH   9  13
BRANCH   5  21
ATOM     21  C   UNL     1      25.039   1.181 195.701  0.00  0.00    +0.000 C 
ATOM     22  O   UNL     1      24.938   2.225 196.323  0.00  0.00    +0.000 OA
ATOM     23  C   UNL     1      25.502   0.068 196.591  0.00  0.00    +0.000 C 
ENDBRANCH   5  21
BRANCH   3  24
ATOM     24  N   UNL     1      22.446   1.671 194.506  0.00  0.00    +0.000 N 
ATOM     25  H   UNL     1      22.089   2.622 194.379  0.00  0.00    +0.000 HD
BRANCH  24  26
ATOM     26  C   UNL     1      21.540   0.821 195.077  0.00  0.00    +0.000 A 
ATOM     27  C   UNL     1      20.210   0.793 194.523  0.00  0.00    +0.000 A 
ATOM     28  C   UNL     1      18.887   0.712 195.327  0.00  0.00    +0.000 A 
ATOM     29  C   UNL     1      18.797   0.662 196.767  0.00  0.00    +0.000 A 
ATOM     30  C   UNL     1      20.125   0.716 197.324  0.00  0.00    +0.000 A 
ATOM     31  C   UNL     1      21.444   0.798 196.516  0.00  0.00    +0.000 A 
BRANCH  29  32
ATOM     32  C   UNL     1      17.612   0.451 197.506  0.00  0.00    +0.000 C 
BRANCH  32  33
ATOM     33  N   UNL     1      16.383   0.237 198.250  0.00  0.00    +0.000 NA
ATOM     34  C   UNL     1      16.662   0.536 199.645  0.00  0.00    +0.000 C 
ATOM     35  C   UNL     1      16.070  -1.180 198.173  0.00  0.00    +0.000 C 
ENDBRANCH  32  33
ENDBRANCH  29  32
ENDBRANCH  24  26
ENDBRANCH   3  24
TORSDOF 7
ENDMDL
MODEL 9
REMARK VINA RESULT:      -8.0      3.514      6.471
REMARK  Name = OTSSP167.pdbqt.pdb
REMARK  7 active torsions:
REMARK  status: ('A' for Active; 'I' for Inactive)
REMARK    1  A    between atoms: C_5  and  N_19
REMARK    2  A    between atoms: C_7  and  C_31
REMARK    3  A    between atoms: C_11  and  C_13
REMARK    4  A    between atoms: C_18  and  O_34
REMARK    5  A    between atoms: N_19  and  C_21
REMARK    6  A    between atoms: C_24  and  C_27
REMARK    7  A    between atoms: C_27  and  N_28
REMARK                            x       y       z     vdW  Elec       q    Type
REMARK                         _______ _______ _______ _____ _____    ______ ____
ROOT
ATOM      1  N   UNL     1      22.786  -0.023 192.095  0.00  0.00    +0.000 NA
ATOM      2  N   UNL     1      23.916  -0.951 195.444  0.00  0.00    +0.000 NA
ATOM      3  C   UNL     1      24.936  -0.908 192.820  0.00  0.00    +0.000 A 
ATOM      4  C   UNL     1      23.613  -0.459 193.078  0.00  0.00    +0.000 A 
ATOM      5  C   UNL     1      25.707  -1.373 193.905  0.00  0.00    +0.000 A 
ATOM      6  C   UNL     1      23.170  -0.514 194.417  0.00  0.00    +0.000 A 
ATOM      7  C   UNL     1      25.164  -1.373 195.171  0.00  0.00    +0.000 A 
ATOM      8  C   UNL     1      21.880  -0.089 194.678  0.00  0.00    +0.000 A 
ATOM      9  C   UNL     1      21.529   0.396 192.381  0.00  0.00    +0.000 A 
ATOM     10  C   UNL     1      21.042   0.372 193.673  0.00  0.00    +0.000 A 
ENDROOT
BRANCH   9  13
ATOM     11 CL   UNL     1      21.472   2.231 187.551  0.00  0.00    +0.000 Cl
ATOM     12 CL   UNL     1      16.890   1.568 190.425  0.00  0.00    +0.000 Cl
ATOM     13  C   UNL     1      20.739   0.884 191.248  0.00  0.00    +0.000 A 
ATOM     14  C   UNL     1      19.345   0.996 191.315  0.00  0.00    +0.000 A 
ATOM     15  C   UNL     1      21.360   1.272 190.053  0.00  0.00    +0.000 A 
ATOM     16  C   UNL     1      20.626   1.755 188.973  0.00  0.00    +0.000 A 
ATOM     17  C   UNL     1      18.599   1.473 190.236  0.00  0.00    +0.000 A 
ATOM     18  C   UNL     1      19.238   1.857 189.057  0.00  0.00    +0.000 A 
BRANCH  18  19
ATOM     19  O   UNL     1      18.501   2.328 188.003  0.00  0.00    +0.000 OA
ATOM     20  H   UNL     1      17.790   2.896 188.355  0.00  0.00    +0.000 HD
ENDBRANCH  18  19
ENDBRANCH   9  13
BRANCH   5  21
ATOM     21  C   UNL     1      27.061  -1.901 193.753  0.00  0.00    +0.000 C 
ATOM     22  O   UNL     1      27.958  -1.357 193.132  0.00  0.00    +0.000 OA
ATOM     23  C   UNL     1      27.512  -3.218 194.307  0.00  0.00    +0.000 C 
ENDBRANCH   5  21
BRANCH   3  24
ATOM     24  N   UNL     1      25.553  -0.813 191.531  0.00  0.00    +0.000 N 
ATOM     25  H   UNL     1      25.380  -1.615 190.918  0.00  0.00    +0.000 HD
BRANCH  24  26
ATOM     26  C   UNL     1      25.919   0.319 190.857  0.00  0.00    +0.000 A 
ATOM     27  C   UNL     1      25.835   1.572 191.563  0.00  0.00    +0.000 A 
ATOM     28  C   UNL     1      25.326   2.916 190.981  0.00  0.00    +0.000 A 
ATOM     29  C   UNL     1      24.848   3.103 189.632  0.00  0.00    +0.000 A 
ATOM     30  C   UNL     1      24.907   1.845 188.932  0.00  0.00    +0.000 A 
ATOM     31  C   UNL     1      25.415   0.505 189.518  0.00  0.00    +0.000 A 
BRANCH  29  32
ATOM     32  C   UNL     1      24.512   4.345 189.048  0.00  0.00    +0.000 C 
BRANCH  32  33
ATOM     33  N   UNL     1      24.150   5.613 188.440  0.00  0.00    +0.000 NA
ATOM     34  C   UNL     1      22.749   5.530 188.062  0.00  0.00    +0.000 C 
ATOM     35  C   UNL     1      24.917   5.738 187.211  0.00  0.00    +0.000 C 
ENDBRANCH  32  33
ENDBRANCH  29  32
ENDBRANCH  24  26
ENDBRANCH   3  24
TORSDOF 7
ENDMDL
