MODEL 1
REMARK VINA RESULT:      -8.5      0.000      0.000
REMARK  Name = 
REMARK  0 active torsions:
REMARK  status: ('A' for Active; 'I' for Inactive)
REMARK                            x       y       z     vdW  Elec       q    Type
REMARK                         _______ _______ _______ _____ _____    ______ ____
ROOT
ATOM      1  O   UNL     1      20.740   1.407 188.893  0.00  0.00    +0.000 OA
ATOM      2  O   UNL     1      25.099   4.053 189.968  0.00  0.00    +0.000 OA
ATOM      3  N   UNL     1      19.728   1.975 189.617  0.00  0.00    +0.000 N 
ATOM      4  N   UNL     1      22.832   4.132 189.506  0.00  0.00    +0.000 N 
ATOM      5  C   UNL     1      20.101   3.357 190.187  0.00  0.00    +0.000 C 
ATOM      6  C   UNL     1      20.391   4.403 189.093  0.00  0.00    +0.000 C 
ATOM      7  C   UNL     1      21.237   3.298 191.216  0.00  0.00    +0.000 C 
ATOM      8  C   UNL     1      21.795   4.213 188.452  0.00  0.00    +0.000 C 
ATOM      9  C   UNL     1      19.209   4.464 188.108  0.00  0.00    +0.000 C 
ATOM     10  C   UNL     1      22.601   3.128 190.549  0.00  0.00    +0.000 C 
ATOM     11  C   UNL     1      18.527   2.125 188.708  0.00  0.00    +0.000 C 
ATOM     12  C   UNL     1      20.970   2.245 192.298  0.00  0.00    +0.000 C 
ATOM     13  C   UNL     1      19.379   1.047 190.762  0.00  0.00    +0.000 C 
ATOM     14  C   UNL     1      18.811   3.097 187.569  0.00  0.00    +0.000 C 
ATOM     15  C   UNL     1      20.544   0.896 191.732  0.00  0.00    +0.000 C 
ATOM     16  C   UNL     1      22.088   5.331 187.438  0.00  0.00    +0.000 C 
ATOM     17  C   UNL     1      23.521   5.236 186.951  0.00  0.00    +0.000 C 
ATOM     18  C   UNL     1      24.172   4.435 189.251  0.00  0.00    +0.000 C 
ATOM     19  C   UNL     1      24.453   5.407 188.128  0.00  0.00    +0.000 C 
ENDROOT
TORSDOF 0
ENDMDL
MODEL 2
REMARK VINA RESULT:      -8.4      2.032      4.590
REMARK  Name = 
REMARK  0 active torsions:
REMARK  status: ('A' for Active; 'I' for Inactive)
REMARK                            x       y       z     vdW  Elec       q    Type
REMARK                         _______ _______ _______ _____ _____    ______ ____
ROOT
ATOM      1  O   UNL     1      21.758   5.387 187.556  0.00  0.00    +0.000 OA
ATOM      2  O   UNL     1      22.143   3.572 192.425  0.00  0.00    +0.000 OA
ATOM      3  N   UNL     1      22.417   4.511 186.740  0.00  0.00    +0.000 N 
ATOM      4  N   UNL     1      21.781   3.097 190.189  0.00  0.00    +0.000 N 
ATOM      5  C   UNL     1      22.716   3.163 187.424  0.00  0.00    +0.000 C 
ATOM      6  C   UNL     1      21.442   2.393 187.824  0.00  0.00    +0.000 C 
ATOM      7  C   UNL     1      23.684   3.289 188.607  0.00  0.00    +0.000 C 
ATOM      8  C   UNL     1      20.780   2.974 189.105  0.00  0.00    +0.000 C 
ATOM      9  C   UNL     1      20.519   2.247 186.601  0.00  0.00    +0.000 C 
ATOM     10  C   UNL     1      22.994   3.847 189.851  0.00  0.00    +0.000 C 
ATOM     11  C   UNL     1      21.553   4.263 185.521  0.00  0.00    +0.000 C 
ATOM     12  C   UNL     1      24.947   4.073 188.226  0.00  0.00    +0.000 C 
ATOM     13  C   UNL     1      23.723   5.146 186.309  0.00  0.00    +0.000 C 
ATOM     14  C   UNL     1      20.249   3.571 185.897  0.00  0.00    +0.000 C 
ATOM     15  C   UNL     1      24.648   5.377 187.497  0.00  0.00    +0.000 C 
ATOM     16  C   UNL     1      19.572   2.122 189.529  0.00  0.00    +0.000 C 
ATOM     17  C   UNL     1      19.042   2.593 190.870  0.00  0.00    +0.000 C 
ATOM     18  C   UNL     1      21.414   3.126 191.536  0.00  0.00    +0.000 C 
ATOM     19  C   UNL     1      20.126   2.430 191.911  0.00  0.00    +0.000 C 
ENDROOT
TORSDOF 0
ENDMDL
MODEL 3
REMARK VINA RESULT:      -8.3      1.869      5.390
REMARK  Name = 
REMARK  0 active torsions:
REMARK  status: ('A' for Active; 'I' for Inactive)
REMARK                            x       y       z     vdW  Elec       q    Type
REMARK                         _______ _______ _______ _____ _____    ______ ____
ROOT
ATOM      1  O   UNL     1      21.815   1.275 188.197  0.00  0.00    +0.000 OA
ATOM      2  O   UNL     1      16.955   1.244 190.074  0.00  0.00    +0.000 OA
ATOM      3  N   UNL     1      22.158   2.579 187.970  0.00  0.00    +0.000 N 
ATOM      4  N   UNL     1      19.047   2.234 190.092  0.00  0.00    +0.000 N 
ATOM      5  C   UNL     1      21.202   3.577 188.651  0.00  0.00    +0.000 C 
ATOM      6  C   UNL     1      21.209   3.466 190.189  0.00  0.00    +0.000 C 
ATOM      7  C   UNL     1      19.774   3.520 188.096  0.00  0.00    +0.000 C 
ATOM      8  C   UNL     1      20.399   2.239 190.696  0.00  0.00    +0.000 C 
ATOM      9  C   UNL     1      22.654   3.575 190.709  0.00  0.00    +0.000 C 
ATOM     10  C   UNL     1      19.004   2.312 188.629  0.00  0.00    +0.000 C 
ATOM     11  C   UNL     1      23.559   2.797 188.501  0.00  0.00    +0.000 C 
ATOM     12  C   UNL     1      19.755   3.608 186.565  0.00  0.00    +0.000 C 
ATOM     13  C   UNL     1      22.144   2.826 186.475  0.00  0.00    +0.000 C 
ATOM     14  C   UNL     1      23.612   2.616 190.014  0.00  0.00    +0.000 C 
ATOM     15  C   UNL     1      20.744   2.660 185.897  0.00  0.00    +0.000 C 
ATOM     16  C   UNL     1      20.346   2.217 192.231  0.00  0.00    +0.000 C 
ATOM     17  C   UNL     1      19.412   1.122 192.709  0.00  0.00    +0.000 C 
ATOM     18  C   UNL     1      17.972   1.571 190.689  0.00  0.00    +0.000 C 
ATOM     19  C   UNL     1      18.020   1.402 192.191  0.00  0.00    +0.000 C 
ENDROOT
TORSDOF 0
ENDMDL
MODEL 4
REMARK VINA RESULT:      -8.2      1.921      4.592
REMARK  Name = 
REMARK  0 active torsions:
REMARK  status: ('A' for Active; 'I' for Inactive)
REMARK                            x       y       z     vdW  Elec       q    Type
REMARK                         _______ _______ _______ _____ _____    ______ ____
ROOT
ATOM      1  O   UNL     1      22.912   2.805 186.460  0.00  0.00    +0.000 OA
ATOM      2  O   UNL     1      21.167   0.967 191.013  0.00  0.00    +0.000 OA
ATOM      3  N   UNL     1      22.317   4.019 186.254  0.00  0.00    +0.000 N 
ATOM      4  N   UNL     1      21.933   2.790 189.810  0.00  0.00    +0.000 N 
ATOM      5  C   UNL     1      21.658   4.587 187.525  0.00  0.00    +0.000 C 
ATOM      6  C   UNL     1      22.669   4.870 188.654  0.00  0.00    +0.000 C 
ATOM      7  C   UNL     1      20.485   3.737 188.029  0.00  0.00    +0.000 C 
ATOM      8  C   UNL     1      23.116   3.572 189.384  0.00  0.00    +0.000 C 
ATOM      9  C   UNL     1      23.804   5.763 188.121  0.00  0.00    +0.000 C 
ATOM     10  C   UNL     1      20.964   2.480 188.755  0.00  0.00    +0.000 C 
ATOM     11  C   UNL     1      23.377   4.987 185.773  0.00  0.00    +0.000 C 
ATOM     12  C   UNL     1      19.483   3.431 186.909  0.00  0.00    +0.000 C 
ATOM     13  C   UNL     1      21.260   3.858 185.181  0.00  0.00    +0.000 C 
ATOM     14  C   UNL     1      24.435   5.226 186.844  0.00  0.00    +0.000 C 
ATOM     15  C   UNL     1      20.144   2.924 185.633  0.00  0.00    +0.000 C 
ATOM     16  C   UNL     1      24.045   3.902 190.563  0.00  0.00    +0.000 C 
ATOM     17  C   UNL     1      24.334   2.651 191.371  0.00  0.00    +0.000 C 
ATOM     18  C   UNL     1      21.992   1.870 190.859  0.00  0.00    +0.000 C 
ATOM     19  C   UNL     1      23.035   2.113 191.926  0.00  0.00    +0.000 C 
ENDROOT
TORSDOF 0
ENDMDL
MODEL 5
REMARK VINA RESULT:      -8.1      1.972      4.873
REMARK  Name = 
REMARK  0 active torsions:
REMARK  status: ('A' for Active; 'I' for Inactive)
REMARK                            x       y       z     vdW  Elec       q    Type
REMARK                         _______ _______ _______ _____ _____    ______ ____
ROOT
ATOM      1  O   UNL     1      22.861   4.706 188.440  0.00  0.00    +0.000 OA
ATOM      2  O   UNL     1      19.733   1.073 190.480  0.00  0.00    +0.000 OA
ATOM      3  N   UNL     1      23.611   4.102 187.469  0.00  0.00    +0.000 N 
ATOM      4  N   UNL     1      20.677   1.988 188.575  0.00  0.00    +0.000 N 
ATOM      5  C   UNL     1      23.061   2.723 187.058  0.00  0.00    +0.000 C 
ATOM      6  C   UNL     1      21.654   2.796 186.431  0.00  0.00    +0.000 C 
ATOM      7  C   UNL     1      23.112   1.691 188.191  0.00  0.00    +0.000 C 
ATOM      8  C   UNL     1      20.542   2.997 187.500  0.00  0.00    +0.000 C 
ATOM      9  C   UNL     1      21.656   3.806 185.270  0.00  0.00    +0.000 C 
ATOM     10  C   UNL     1      21.995   1.910 189.212  0.00  0.00    +0.000 C 
ATOM     11  C   UNL     1      23.627   5.007 186.256  0.00  0.00    +0.000 C 
ATOM     12  C   UNL     1      24.502   1.624 188.837  0.00  0.00    +0.000 C 
ATOM     13  C   UNL     1      25.023   3.934 187.990  0.00  0.00    +0.000 C 
ATOM     14  C   UNL     1      22.233   5.161 185.660  0.00  0.00    +0.000 C 
ATOM     15  C   UNL     1      25.067   2.995 189.189  0.00  0.00    +0.000 C 
ATOM     16  C   UNL     1      19.150   2.966 186.850  0.00  0.00    +0.000 C 
ATOM     17  C   UNL     1      18.072   2.987 187.917  0.00  0.00    +0.000 C 
ATOM     18  C   UNL     1      19.599   1.618 189.382  0.00  0.00    +0.000 C 
ATOM     19  C   UNL     1      18.216   1.760 188.787  0.00  0.00    +0.000 C 
ENDROOT
TORSDOF 0
ENDMDL
MODEL 6
REMARK VINA RESULT:      -7.9      1.914      3.523
REMARK  Name = 
REMARK  0 active torsions:
REMARK  status: ('A' for Active; 'I' for Inactive)
REMARK                            x       y       z     vdW  Elec       q    Type
REMARK                         _______ _______ _______ _____ _____    ______ ____
ROOT
ATOM      1  O   UNL     1      22.070   0.886 190.327  0.00  0.00    +0.000 OA
ATOM      2  O   UNL     1      22.736   3.478 185.856  0.00  0.00    +0.000 OA
ATOM      3  N   UNL     1      22.078   1.805 191.338  0.00  0.00    +0.000 N 
ATOM      4  N   UNL     1      21.702   3.390 187.926  0.00  0.00    +0.000 N 
ATOM      5  C   UNL     1      21.913   3.252 190.834  0.00  0.00    +0.000 C 
ATOM      6  C   UNL     1      20.561   3.498 190.137  0.00  0.00    +0.000 C 
ATOM      7  C   UNL     1      23.083   3.724 189.962  0.00  0.00    +0.000 C 
ATOM      8  C   UNL     1      20.528   2.918 188.693  0.00  0.00    +0.000 C 
ATOM      9  C   UNL     1      19.413   3.054 191.062  0.00  0.00    +0.000 C 
ATOM     10  C   UNL     1      23.007   3.149 188.548  0.00  0.00    +0.000 C 
ATOM     11  C   UNL     1      20.939   1.479 192.281  0.00  0.00    +0.000 C 
ATOM     12  C   UNL     1      24.436   3.466 190.637  0.00  0.00    +0.000 C 
ATOM     13  C   UNL     1      23.394   1.690 192.081  0.00  0.00    +0.000 C 
ATOM     14  C   UNL     1      19.588   1.638 191.593  0.00  0.00    +0.000 C 
ATOM     15  C   UNL     1      24.573   2.050 191.186  0.00  0.00    +0.000 C 
ATOM     16  C   UNL     1      19.204   3.268 187.996  0.00  0.00    +0.000 C 
ATOM     17  C   UNL     1      19.252   2.852 186.538  0.00  0.00    +0.000 C 
ATOM     18  C   UNL     1      21.704   3.438 186.530  0.00  0.00    +0.000 C 
ATOM     19  C   UNL     1      20.365   3.607 185.848  0.00  0.00    +0.000 C 
ENDROOT
TORSDOF 0
ENDMDL
MODEL 7
REMARK VINA RESULT:      -7.6      1.972      4.747
REMARK  Name = 
REMARK  0 active torsions:
REMARK  status: ('A' for Active; 'I' for Inactive)
REMARK                            x       y       z     vdW  Elec       q    Type
REMARK                         _______ _______ _______ _____ _____    ______ ____
ROOT
ATOM      1  O   UNL     1      22.318   4.122 189.538  0.00  0.00    +0.000 OA
ATOM      2  O   UNL     1      21.553  -0.376 192.055  0.00  0.00    +0.000 OA
ATOM      3  N   UNL     1      22.106   3.888 188.208  0.00  0.00    +0.000 N 
ATOM      4  N   UNL     1      20.840   1.082 190.405  0.00  0.00    +0.000 N 
ATOM      5  C   UNL     1      21.388   2.550 187.942  0.00  0.00    +0.000 C 
ATOM      6  C   UNL     1      19.971   2.495 188.546  0.00  0.00    +0.000 C 
ATOM      7  C   UNL     1      22.217   1.328 188.354  0.00  0.00    +0.000 C 
ATOM      8  C   UNL     1      19.995   2.255 190.083  0.00  0.00    +0.000 C 
ATOM      9  C   UNL     1      19.157   3.713 188.072  0.00  0.00    +0.000 C 
ATOM     10  C   UNL     1      22.203   1.115 189.868  0.00  0.00    +0.000 C 
ATOM     11  C   UNL     1      21.261   5.018 187.660  0.00  0.00    +0.000 C 
ATOM     12  C   UNL     1      23.637   1.383 187.776  0.00  0.00    +0.000 C 
ATOM     13  C   UNL     1      23.447   3.876 187.503  0.00  0.00    +0.000 C 
ATOM     14  C   UNL     1      19.877   5.035 188.299  0.00  0.00    +0.000 C 
ATOM     15  C   UNL     1      24.322   2.727 187.990  0.00  0.00    +0.000 C 
ATOM     16  C   UNL     1      18.568   2.107 190.633  0.00  0.00    +0.000 C 
ATOM     17  C   UNL     1      18.607   1.701 192.094  0.00  0.00    +0.000 C 
ATOM     18  C   UNL     1      20.678   0.356 191.587  0.00  0.00    +0.000 C 
ATOM     19  C   UNL     1      19.303   0.364 192.215  0.00  0.00    +0.000 C 
ENDROOT
TORSDOF 0
ENDMDL
MODEL 8
REMARK VINA RESULT:      -7.5      2.031      3.471
REMARK  Name = 
REMARK  0 active torsions:
REMARK  status: ('A' for Active; 'I' for Inactive)
REMARK                            x       y       z     vdW  Elec       q    Type
REMARK                         _______ _______ _______ _____ _____    ______ ____
ROOT
ATOM      1  O   UNL     1      20.724   2.382 192.146  0.00  0.00    +0.000 OA
ATOM      2  O   UNL     1      20.094   6.016 188.466  0.00  0.00    +0.000 OA
ATOM      3  N   UNL     1      20.479   1.167 191.568  0.00  0.00    +0.000 N 
ATOM      4  N   UNL     1      20.928   3.931 189.026  0.00  0.00    +0.000 N 
ATOM      5  C   UNL     1      20.467   1.228 190.029  0.00  0.00    +0.000 C 
ATOM      6  C   UNL     1      21.826   1.643 189.430  0.00  0.00    +0.000 C 
ATOM      7  C   UNL     1      19.327   2.085 189.467  0.00  0.00    +0.000 C 
ATOM      8  C   UNL     1      22.084   3.171 189.556  0.00  0.00    +0.000 C 
ATOM      9  C   UNL     1      22.936   0.730 189.982  0.00  0.00    +0.000 C 
ATOM     10  C   UNL     1      19.623   3.579 189.593  0.00  0.00    +0.000 C 
ATOM     11  C   UNL     1      21.561   0.207 192.015  0.00  0.00    +0.000 C 
ATOM     12  C   UNL     1      17.972   1.695 190.072  0.00  0.00    +0.000 C 
ATOM     13  C   UNL     1      19.133   0.668 192.052  0.00  0.00    +0.000 C 
ATOM     14  C   UNL     1      22.930   0.636 191.502  0.00  0.00    +0.000 C 
ATOM     15  C   UNL     1      18.003   1.580 191.591  0.00  0.00    +0.000 C 
ATOM     16  C   UNL     1      23.399   3.562 188.863  0.00  0.00    +0.000 C 
ATOM     17  C   UNL     1      23.552   5.070 188.840  0.00  0.00    +0.000 C 
ATOM     18  C   UNL     1      21.052   5.247 188.575  0.00  0.00    +0.000 C 
ATOM     19  C   UNL     1      22.407   5.670 188.056  0.00  0.00    +0.000 C 
ENDROOT
TORSDOF 0
ENDMDL
MODEL 9
REMARK VINA RESULT:      -7.3      2.113      4.190
REMARK  Name = 
REMARK  0 active torsions:
REMARK  status: ('A' for Active; 'I' for Inactive)
REMARK                            x       y       z     vdW  Elec       q    Type
REMARK                         _______ _______ _______ _____ _____    ______ ____
ROOT
ATOM      1  O   UNL     1      22.542   3.573 190.778  0.00  0.00    +0.000 OA
ATOM      2  O   UNL     1      18.223   3.416 187.868  0.00  0.00    +0.000 OA
ATOM      3  N   UNL     1      22.846   2.287 191.128  0.00  0.00    +0.000 N 
ATOM      4  N   UNL     1      20.282   2.477 188.356  0.00  0.00    +0.000 N 
ATOM      5  C   UNL     1      22.082   1.241 190.293  0.00  0.00    +0.000 C 
ATOM      6  C   UNL     1      22.430   1.296 188.792  0.00  0.00    +0.000 C 
ATOM      7  C   UNL     1      20.566   1.284 190.514  0.00  0.00    +0.000 C 
ATOM      8  C   UNL     1      21.734   2.483 188.068  0.00  0.00    +0.000 C 
ATOM      9  C   UNL     1      23.957   1.204 188.611  0.00  0.00    +0.000 C 
ATOM     10  C   UNL     1      19.915   2.452 189.775  0.00  0.00    +0.000 C 
ATOM     11  C   UNL     1      24.334   2.084 190.930  0.00  0.00    +0.000 C 
ATOM     12  C   UNL     1      20.208   1.251 192.006  0.00  0.00    +0.000 C 
ATOM     13  C   UNL     1      22.503   2.095 192.591  0.00  0.00    +0.000 C 
ATOM     14  C   UNL     1      24.720   2.210 189.461  0.00  0.00    +0.000 C 
ATOM     15  C   UNL     1      21.008   2.247 192.837  0.00  0.00    +0.000 C 
ATOM     16  C   UNL     1      22.024   2.447 186.560  0.00  0.00    +0.000 C 
ATOM     17  C   UNL     1      21.203   3.501 185.842  0.00  0.00    +0.000 C 
ATOM     18  C   UNL     1      19.357   3.091 187.508  0.00  0.00    +0.000 C 
ATOM     19  C   UNL     1      19.735   3.207 186.049  0.00  0.00    +0.000 C 
ENDROOT
TORSDOF 0
ENDMDL
