MODEL 1
REMARK VINA RESULT:      -9.3      0.000      0.000
REMARK  Name = 
REMARK  23 active torsions:
REMARK  status: ('A' for Active; 'I' for Inactive)
REMARK    1  A    between atoms: O_2  and  C_17
REMARK    2  A    between atoms: O_2  and  C_36
REMARK    3  A    between atoms: O_3  and  C_20
REMARK    4  A    between atoms: O_3  and  C_37
REMARK    5  A    between atoms: O_4  and  C_21
REMARK    6  A    between atoms: O_5  and  C_22
REMARK    7  A    between atoms: O_6  and  C_30
REMARK    8  A    between atoms: O_6  and  C_39
REMARK    9  A    between atoms: O_8  and  C_31
REMARK   10  A    between atoms: O_8  and  C_40
REMARK   11  A    between atoms: O_13  and  C_42
REMARK   12  A    between atoms: N_15  and  C_46
REMARK   13  A    between atoms: C_18  and  C_29
REMARK   14  A    between atoms: C_24  and  C_33
REMARK   15  A    between atoms: C_24  and  C_34
REMARK   16  A    between atoms: C_32  and  C_35
REMARK   17  A    between atoms: C_36  and  C_38
REMARK   18  A    between atoms: C_37  and  C_41
REMARK   19  A    between atoms: C_39  and  C_43
REMARK   20  A    between atoms: C_40  and  C_42
REMARK   21  A    between atoms: C_42  and  C_46
REMARK   22  A    between atoms: C_46  and  C_50
REMARK   23  A    between atoms: C_53  and  C_56
REMARK                            x       y       z     vdW  Elec       q    Type
REMARK                         _______ _______ _______ _____ _____    ______ ____
ROOT
ATOM      1  O   UNL     1      25.350  -1.110 199.587  0.00  0.00    +0.000 OA
ATOM      2  O   UNL     1      28.838  -2.676 194.125  0.00  0.00    +0.000 OA
ATOM      3  C   UNL     1      26.572   0.097 196.605  0.00  0.00    +0.000 C 
ATOM      4  C   UNL     1      25.450  -0.290 197.612  0.00  0.00    +0.000 C 
ATOM      5  C   UNL     1      26.976  -1.460 195.600  0.00  0.00    +0.000 C 
ATOM      6  C   UNL     1      26.312  -1.270 198.508  0.00  0.00    +0.000 C 
ATOM      7  C   UNL     1      26.241   1.741 195.791  0.00  0.00    +0.000 C 
ATOM      8  C   UNL     1      26.950   2.919 194.487  0.00  0.00    +0.000 C 
ATOM      9  C   UNL     1      27.459  -2.509 196.687  0.00  0.00    +0.000 C 
ATOM     10  C   UNL     1      26.544  -2.652 197.941  0.00  0.00    +0.000 C 
ATOM     11  C   UNL     1      28.243   2.618 193.311  0.00  0.00    +0.000 C 
ATOM     12  C   UNL     1      25.143   0.258 199.062  0.00  0.00    +0.000 C 
ATOM     13  C   UNL     1      28.183  -1.613 194.165  0.00  0.00    +0.000 C 
ATOM     14  C   UNL     1      25.744   3.240 193.489  0.00  0.00    +0.000 C 
ATOM     15  C   UNL     1      27.955   1.307 192.430  0.00  0.00    +0.000 C 
ATOM     16  C   UNL     1      25.680  -2.149 194.998  0.00  0.00    +0.000 C 
ATOM     17  C   UNL     1      28.564  -0.350 192.768  0.00  0.00    +0.000 C 
ATOM     18  C   UNL     1      25.628   2.392 192.143  0.00  0.00    +0.000 C 
ATOM     19  C   UNL     1      26.792   1.429 191.706  0.00  0.00    +0.000 C 
ATOM     20  C   UNL     1      28.242   3.876 192.305  0.00  0.00    +0.000 C 
ATOM     21  C   UNL     1      29.732   2.798 193.751  0.00  0.00    +0.000 C 
ATOM     22  C   UNL     1      26.418   0.468 190.605  0.00  0.00    +0.000 C 
ENDROOT
BRANCH   9  23
ATOM     23  O   UNL     1      28.752  -2.129 197.158  0.00  0.00    +0.000 OA
ATOM     24  H   UNL     1      29.391  -2.730 196.724  0.00  0.00    +0.000 HD
ENDBRANCH   9  23
BRANCH   8  25
ATOM     25  O   UNL     1      27.240   4.143 195.188  0.00  0.00    +0.000 OA
ATOM     26  H   UNL     1      26.953   4.049 196.114  0.00  0.00    +0.000 HD
ENDBRANCH   8  25
BRANCH  18  27
ATOM     27  O   UNL     1      24.426   1.572 192.231  0.00  0.00    +0.000 OA
BRANCH  27  29
ATOM     28  O   UNL     1      22.947   3.228 191.794  0.00  0.00    +0.000 OA
ATOM     29  C   UNL     1      23.302   2.063 191.647  0.00  0.00    +0.000 C 
BRANCH  29  30
ATOM     30  C   UNL     1      22.445   1.012 190.936  0.00  0.00    +0.000 C 
BRANCH  30  31
ATOM     31  O   UNL     1      23.084  -0.250 190.711  0.00  0.00    +0.000 OA
ATOM     32  H   UNL     1      23.603  -0.148 189.892  0.00  0.00    +0.000 HD
ENDBRANCH  30  31
BRANCH  30  33
ATOM     33  C   UNL     1      21.952   1.620 189.593  0.00  0.00    +0.000 C 
BRANCH  33  34
ATOM     34  C   UNL     1      20.433   1.584 189.514  0.00  0.00    +0.000 A 
ATOM     35  C   UNL     1      19.705   0.903 190.505  0.00  0.00    +0.000 A 
ATOM     36  C   UNL     1      19.728   2.185 188.458  0.00  0.00    +0.000 A 
ATOM     37  C   UNL     1      18.312   0.842 190.452  0.00  0.00    +0.000 A 
ATOM     38  C   UNL     1      18.335   2.124 188.408  0.00  0.00    +0.000 A 
ATOM     39  C   UNL     1      17.627   1.455 189.405  0.00  0.00    +0.000 A 
ENDBRANCH  33  34
BRANCH  33  41
ATOM     40  O   UNL     1      24.268   0.423 187.087  0.00  0.00    +0.000 OA
ATOM     41  N   UNL     1      22.556   0.911 188.457  0.00  0.00    +0.000 N 
ATOM     42  C   UNL     1      23.618   1.280 187.677  0.00  0.00    +0.000 C 
ATOM     43  H   UNL     1      22.346  -0.082 188.417  0.00  0.00    +0.000 HD
BRANCH  42  44
ATOM     44  C   UNL     1      24.017   2.702 187.578  0.00  0.00    +0.000 A 
ATOM     45  C   UNL     1      25.043   3.228 188.370  0.00  0.00    +0.000 A 
ATOM     46  C   UNL     1      23.297   3.540 186.719  0.00  0.00    +0.000 A 
ATOM     47  C   UNL     1      25.386   4.577 188.256  0.00  0.00    +0.000 A 
ATOM     48  C   UNL     1      23.640   4.888 186.610  0.00  0.00    +0.000 A 
ATOM     49  C   UNL     1      24.690   5.402 187.371  0.00  0.00    +0.000 A 
ENDBRANCH  42  44
ENDBRANCH  33  41
ENDBRANCH  30  33
ENDBRANCH  29  30
ENDBRANCH  27  29
ENDBRANCH  18  27
BRANCH  17  50
ATOM     50  O   UNL     1      29.974  -0.259 192.475  0.00  0.00    +0.000 OA
BRANCH  50  52
ATOM     51  O   UNL     1      31.442  -1.382 191.213  0.00  0.00    +0.000 OA
ATOM     52  C   UNL     1      30.503  -0.595 191.276  0.00  0.00    +0.000 C 
ATOM     53  C   UNL     1      29.964   0.089 190.056  0.00  0.00    +0.000 C 
ENDBRANCH  50  52
ENDBRANCH  17  50
BRANCH   7  54
ATOM     54  O   UNL     1      25.695   1.044 194.817  0.00  0.00    +0.000 OA
BRANCH  54  56
ATOM     55  O   UNL     1      24.718   2.251 196.092  0.00  0.00    +0.000 OA
ATOM     56  C   UNL     1      24.442   1.472 195.185  0.00  0.00    +0.000 C 
BRANCH  56  57
ATOM     57  C   UNL     1      22.811   0.685 194.567  0.00  0.00    +0.000 A 
ATOM     58  C   UNL     1      22.663  -0.691 194.095  0.00  0.00    +0.000 A 
ATOM     59  C   UNL     1      21.503   1.258 194.596  0.00  0.00    +0.000 A 
ATOM     60  C   UNL     1      21.461  -1.349 193.735  0.00  0.00    +0.000 A 
ATOM     61  C   UNL     1      20.285   0.614 194.237  0.00  0.00    +0.000 A 
ATOM     62  C   UNL     1      20.261  -0.691 193.809  0.00  0.00    +0.000 A 
ENDBRANCH  56  57
ENDBRANCH  54  56
ENDBRANCH   7  54
BRANCH   4  63
ATOM     63  O   UNL     1      24.320  -0.916 196.961  0.00  0.00    +0.000 OA
BRANCH  63  65
ATOM     64  O   UNL     1      22.483  -2.080 197.480  0.00  0.00    +0.000 OA
ATOM     65  C   UNL     1      23.080  -1.005 197.494  0.00  0.00    +0.000 C 
ATOM     66  C   UNL     1      22.402   0.233 197.987  0.00  0.00    +0.000 C 
ENDBRANCH  63  65
ENDBRANCH   4  63
TORSDOF 17
ENDMDL
MODEL 2
REMARK VINA RESULT:      -9.3      2.655      4.638
REMARK  Name = 
REMARK  23 active torsions:
REMARK  status: ('A' for Active; 'I' for Inactive)
REMARK    1  A    between atoms: O_2  and  C_17
REMARK    2  A    between atoms: O_2  and  C_36
REMARK    3  A    between atoms: O_3  and  C_20
REMARK    4  A    between atoms: O_3  and  C_37
REMARK    5  A    between atoms: O_4  and  C_21
REMARK    6  A    between atoms: O_5  and  C_22
REMARK    7  A    between atoms: O_6  and  C_30
REMARK    8  A    between atoms: O_6  and  C_39
REMARK    9  A    between atoms: O_8  and  C_31
REMARK   10  A    between atoms: O_8  and  C_40
REMARK   11  A    between atoms: O_13  and  C_42
REMARK   12  A    between atoms: N_15  and  C_46
REMARK   13  A    between atoms: C_18  and  C_29
REMARK   14  A    between atoms: C_24  and  C_33
REMARK   15  A    between atoms: C_24  and  C_34
REMARK   16  A    between atoms: C_32  and  C_35
REMARK   17  A    between atoms: C_36  and  C_38
REMARK   18  A    between atoms: C_37  and  C_41
REMARK   19  A    between atoms: C_39  and  C_43
REMARK   20  A    between atoms: C_40  and  C_42
REMARK   21  A    between atoms: C_42  and  C_46
REMARK   22  A    between atoms: C_46  and  C_50
REMARK   23  A    between atoms: C_53  and  C_56
REMARK                            x       y       z     vdW  Elec       q    Type
REMARK                         _______ _______ _______ _____ _____    ______ ____
ROOT
ATOM      1  O   UNL     1      31.088  -1.004 197.061  0.00  0.00    +0.000 OA
ATOM      2  O   UNL     1      33.340  -0.833 190.787  0.00  0.00    +0.000 OA
ATOM      3  C   UNL     1      31.246   0.894 194.194  0.00  0.00    +0.000 C 
ATOM      4  C   UNL     1      30.517   0.096 195.315  0.00  0.00    +0.000 C 
ATOM      5  C   UNL     1      31.697  -0.349 192.834  0.00  0.00    +0.000 C 
ATOM      6  C   UNL     1      31.761  -0.759 195.794  0.00  0.00    +0.000 C 
ATOM      7  C   UNL     1      30.388   2.506 193.816  0.00  0.00    +0.000 C 
ATOM      8  C   UNL     1      30.487   4.001 192.657  0.00  0.00    +0.000 C 
ATOM      9  C   UNL     1      32.645  -1.392 193.561  0.00  0.00    +0.000 C 
ATOM     10  C   UNL     1      32.123  -1.941 194.924  0.00  0.00    +0.000 C 
ATOM     11  C   UNL     1      31.476   4.207 191.199  0.00  0.00    +0.000 C 
ATOM     12  C   UNL     1      30.478   0.331 196.877  0.00  0.00    +0.000 C 
ATOM     13  C   UNL     1      32.510   0.016 191.177  0.00  0.00    +0.000 C 
ATOM     14  C   UNL     1      29.030   4.155 192.020  0.00  0.00    +0.000 C 
ATOM     15  C   UNL     1      31.255   3.010 190.153  0.00  0.00    +0.000 C 
ATOM     16  C   UNL     1      30.464  -1.241 192.391  0.00  0.00    +0.000 C 
ATOM     17  C   UNL     1      32.258   1.525 190.015  0.00  0.00    +0.000 C 
ATOM     18  C   UNL     1      28.757   3.513 190.586  0.00  0.00    +0.000 C 
ATOM     19  C   UNL     1      29.947   2.945 189.729  0.00  0.00    +0.000 C 
ATOM     20  C   UNL     1      30.962   5.560 190.491  0.00  0.00    +0.000 C 
ATOM     21  C   UNL     1      32.958   4.685 191.344  0.00  0.00    +0.000 C 
ATOM     22  C   UNL     1      29.517   2.093 188.561  0.00  0.00    +0.000 C 
ENDROOT
BRANCH   9  23
ATOM     23  O   UNL     1      33.906  -0.776 193.817  0.00  0.00    +0.000 OA
ATOM     24  H   UNL     1      34.430  -0.871 192.996  0.00  0.00    +0.000 HD
ENDBRANCH   9  23
BRANCH   8  25
ATOM     25  O   UNL     1      30.684   5.142 193.513  0.00  0.00    +0.000 OA
ATOM     26  H   UNL     1      30.701   5.946 192.965  0.00  0.00    +0.000 HD
ENDBRANCH   8  25
BRANCH  18  27
ATOM     27  O   UNL     1      27.813   2.416 190.757  0.00  0.00    +0.000 OA
BRANCH  27  29
ATOM     28  O   UNL     1      26.015   3.693 191.265  0.00  0.00    +0.000 OA
ATOM     29  C   UNL     1      26.492   2.725 190.684  0.00  0.00    +0.000 C 
BRANCH  29  30
ATOM     30  C   UNL     1      25.636   1.683 189.957  0.00  0.00    +0.000 C 
BRANCH  30  31
ATOM     31  O   UNL     1      26.245   1.083 188.808  0.00  0.00    +0.000 OA
ATOM     32  H   UNL     1      25.572   1.105 188.103  0.00  0.00    +0.000 HD
ENDBRANCH  30  31
BRANCH  30  33
ATOM     33  C   UNL     1      24.286   2.350 189.573  0.00  0.00    +0.000 C 
BRANCH  33  34
ATOM     34  C   UNL     1      23.216   2.031 190.608  0.00  0.00    +0.000 A 
ATOM     35  C   UNL     1      22.643   0.748 190.636  0.00  0.00    +0.000 A 
ATOM     36  C   UNL     1      22.755   2.992 191.522  0.00  0.00    +0.000 A 
ATOM     37  C   UNL     1      21.651   0.430 191.564  0.00  0.00    +0.000 A 
ATOM     38  C   UNL     1      21.764   2.672 192.451  0.00  0.00    +0.000 A 
ATOM     39  C   UNL     1      21.214   1.391 192.473  0.00  0.00    +0.000 A 
ENDBRANCH  33  34
BRANCH  33  41
ATOM     40  O   UNL     1      23.032   2.306 186.181  0.00  0.00    +0.000 OA
ATOM     41  N   UNL     1      23.866   1.922 188.233  0.00  0.00    +0.000 N 
ATOM     42  C   UNL     1      22.954   2.498 187.391  0.00  0.00    +0.000 C 
ATOM     43  H   UNL     1      24.515   1.296 187.764  0.00  0.00    +0.000 HD
BRANCH  42  44
ATOM     44  C   UNL     1      21.900   3.391 187.924  0.00  0.00    +0.000 A 
ATOM     45  C   UNL     1      20.676   2.887 188.374  0.00  0.00    +0.000 A 
ATOM     46  C   UNL     1      22.122   4.773 187.904  0.00  0.00    +0.000 A 
ATOM     47  C   UNL     1      19.702   3.760 188.861  0.00  0.00    +0.000 A 
ATOM     48  C   UNL     1      21.146   5.643 188.388  0.00  0.00    +0.000 A 
ATOM     49  C   UNL     1      19.941   5.135 188.875  0.00  0.00    +0.000 A 
ENDBRANCH  42  44
ENDBRANCH  33  41
ENDBRANCH  30  33
ENDBRANCH  29  30
ENDBRANCH  27  29
ENDBRANCH  18  27
BRANCH  17  50
ATOM     50  O   UNL     1      33.499   2.007 189.456  0.00  0.00    +0.000 OA
BRANCH  50  52
ATOM     51  O   UNL     1      34.754   0.865 187.996  0.00  0.00    +0.000 OA
ATOM     52  C   UNL     1      33.901   1.725 188.196  0.00  0.00    +0.000 C 
ATOM     53  C   UNL     1      33.338   2.552 187.079  0.00  0.00    +0.000 C 
ENDBRANCH  50  52
ENDBRANCH  17  50
BRANCH   7  54
ATOM     54  O   UNL     1      29.771   1.845 192.858  0.00  0.00    +0.000 OA
BRANCH  54  56
ATOM     55  O   UNL     1      28.891   2.658 194.471  0.00  0.00    +0.000 OA
ATOM     56  C   UNL     1      28.586   1.905 193.552  0.00  0.00    +0.000 C 
BRANCH  56  57
ATOM     57  C   UNL     1      27.082   0.771 193.212  0.00  0.00    +0.000 A 
ATOM     58  C   UNL     1      27.117  -0.469 192.440  0.00  0.00    +0.000 A 
ATOM     59  C   UNL     1      25.767   0.887 193.756  0.00  0.00    +0.000 A 
ATOM     60  C   UNL     1      26.061  -1.395 192.257  0.00  0.00    +0.000 A 
ATOM     61  C   UNL     1      24.692  -0.031 193.582  0.00  0.00    +0.000 A 
ATOM     62  C   UNL     1      24.838  -1.176 192.835  0.00  0.00    +0.000 A 
ENDBRANCH  56  57
ENDBRANCH  54  56
ENDBRANCH   7  54
BRANCH   4  63
ATOM     63  O   UNL     1      29.415  -0.688 194.803  0.00  0.00    +0.000 OA
BRANCH  63  65
ATOM     64  O   UNL     1      28.766  -2.715 195.490  0.00  0.00    +0.000 OA
ATOM     65  C   UNL     1      28.632  -1.494 195.556  0.00  0.00    +0.000 C 
ATOM     66  C   UNL     1      27.531  -0.895 196.371  0.00  0.00    +0.000 C 
ENDBRANCH  63  65
ENDBRANCH   4  63
TORSDOF 17
ENDMDL
MODEL 3
REMARK VINA RESULT:      -9.3      1.830      2.604
REMARK  Name = 
REMARK  23 active torsions:
REMARK  status: ('A' for Active; 'I' for Inactive)
REMARK    1  A    between atoms: O_2  and  C_17
REMARK    2  A    between atoms: O_2  and  C_36
REMARK    3  A    between atoms: O_3  and  C_20
REMARK    4  A    between atoms: O_3  and  C_37
REMARK    5  A    between atoms: O_4  and  C_21
REMARK    6  A    between atoms: O_5  and  C_22
REMARK    7  A    between atoms: O_6  and  C_30
REMARK    8  A    between atoms: O_6  and  C_39
REMARK    9  A    between atoms: O_8  and  C_31
REMARK   10  A    between atoms: O_8  and  C_40
REMARK   11  A    between atoms: O_13  and  C_42
REMARK   12  A    between atoms: N_15  and  C_46
REMARK   13  A    between atoms: C_18  and  C_29
REMARK   14  A    between atoms: C_24  and  C_33
REMARK   15  A    between atoms: C_24  and  C_34
REMARK   16  A    between atoms: C_32  and  C_35
REMARK   17  A    between atoms: C_36  and  C_38
REMARK   18  A    between atoms: C_37  and  C_41
REMARK   19  A    between atoms: C_39  and  C_43
REMARK   20  A    between atoms: C_40  and  C_42
REMARK   21  A    between atoms: C_42  and  C_46
REMARK   22  A    between atoms: C_46  and  C_50
REMARK   23  A    between atoms: C_53  and  C_56
REMARK                            x       y       z     vdW  Elec       q    Type
REMARK                         _______ _______ _______ _____ _____    ______ ____
ROOT
ATOM      1  O   UNL     1      27.106  -0.748 199.067  0.00  0.00    +0.000 OA
ATOM      2  O   UNL     1      30.614  -2.865 193.807  0.00  0.00    +0.000 OA
ATOM      3  C   UNL     1      28.543   0.212 196.092  0.00  0.00    +0.000 C 
ATOM      4  C   UNL     1      27.354  -0.024 197.068  0.00  0.00    +0.000 C 
ATOM      5  C   UNL     1      28.828  -1.417 195.162  0.00  0.00    +0.000 C 
ATOM      6  C   UNL     1      28.085  -1.044 198.033  0.00  0.00    +0.000 C 
ATOM      7  C   UNL     1      28.401   1.846 195.203  0.00  0.00    +0.000 C 
ATOM      8  C   UNL     1      29.266   2.895 193.884  0.00  0.00    +0.000 C 
ATOM      9  C   UNL     1      29.169  -2.461 196.306  0.00  0.00    +0.000 C 
ATOM     10  C   UNL     1      28.201  -2.464 197.528  0.00  0.00    +0.000 C 
ATOM     11  C   UNL     1      30.564   2.424 192.771  0.00  0.00    +0.000 C 
ATOM     12  C   UNL     1      27.051   0.610 198.483  0.00  0.00    +0.000 C 
ATOM     13  C   UNL     1      30.064  -1.743 193.781  0.00  0.00    +0.000 C 
ATOM     14  C   UNL     1      28.133   3.288 192.829  0.00  0.00    +0.000 C 
ATOM     15  C   UNL     1      30.181   1.111 191.930  0.00  0.00    +0.000 C 
ATOM     16  C   UNL     1      27.494  -2.002 194.537  0.00  0.00    +0.000 C 
ATOM     17  C   UNL     1      30.614  -0.582 192.353  0.00  0.00    +0.000 C 
ATOM     18  C   UNL     1      27.981   2.401 191.512  0.00  0.00    +0.000 C 
ATOM     19  C   UNL     1      29.061   1.314 191.157  0.00  0.00    +0.000 C 
ATOM     20  C   UNL     1      30.720   3.633 191.719  0.00  0.00    +0.000 C 
ATOM     21  C   UNL     1      32.047   2.478 193.261  0.00  0.00    +0.000 C 
ATOM     22  C   UNL     1      28.634   0.348 190.080  0.00  0.00    +0.000 C 
ENDROOT
BRANCH   9  23
ATOM     23  O   UNL     1      30.476  -2.187 196.812  0.00  0.00    +0.000 OA
ATOM     24  H   UNL     1      30.834  -1.458 196.267  0.00  0.00    +0.000 HD
ENDBRANCH   9  23
BRANCH   8  25
ATOM     25  O   UNL     1      29.649   4.113 194.549  0.00  0.00    +0.000 OA
ATOM     26  H   UNL     1      29.165   4.856 194.147  0.00  0.00    +0.000 HD
ENDBRANCH   8  25
BRANCH  18  27
ATOM     27  O   UNL     1      26.703   1.704 191.585  0.00  0.00    +0.000 OA
BRANCH  27  29
ATOM     28  O   UNL     1      25.433   3.545 191.240  0.00  0.00    +0.000 OA
ATOM     29  C   UNL     1      25.623   2.345 191.069  0.00  0.00    +0.000 C 
BRANCH  29  30
ATOM     30  C   UNL     1      24.596   1.424 190.404  0.00  0.00    +0.000 C 
BRANCH  30  31
ATOM     31  O   UNL     1      25.125   0.518 189.429  0.00  0.00    +0.000 OA
ATOM     32  H   UNL     1      24.786  -0.365 189.668  0.00  0.00    +0.000 HD
ENDBRANCH  30  31
BRANCH  30  33
ATOM     33  C   UNL     1      23.486   2.313 189.776  0.00  0.00    +0.000 C 
BRANCH  33  34
ATOM     34  C   UNL     1      22.176   2.151 190.535  0.00  0.00    +0.000 A 
ATOM     35  C   UNL     1      21.423   0.976 190.371  0.00  0.00    +0.000 A 
ATOM     36  C   UNL     1      21.674   3.158 191.375  0.00  0.00    +0.000 A 
ATOM     37  C   UNL     1      20.212   0.805 191.042  0.00  0.00    +0.000 A 
ATOM     38  C   UNL     1      20.463   2.984 192.047  0.00  0.00    +0.000 A 
ATOM     39  C   UNL     1      19.734   1.807 191.883  0.00  0.00    +0.000 A 
ENDBRANCH  33  34
BRANCH  33  41
ATOM     40  O   UNL     1      22.906   2.540 186.214  0.00  0.00    +0.000 OA
ATOM     41  N   UNL     1      23.314   1.989 188.354  0.00  0.00    +0.000 N 
ATOM     42  C   UNL     1      22.605   2.663 187.397  0.00  0.00    +0.000 C 
ATOM     43  H   UNL     1      24.014   1.359 187.974  0.00  0.00    +0.000 HD
BRANCH  42  44
ATOM     44  C   UNL     1      21.506   3.578 187.782  0.00  0.00    +0.000 A 
ATOM     45  C   UNL     1      20.173   3.158 187.778  0.00  0.00    +0.000 A 
ATOM     46  C   UNL     1      21.819   4.908 188.085  0.00  0.00    +0.000 A 
ATOM     47  C   UNL     1      19.162   4.051 188.137  0.00  0.00    +0.000 A 
ATOM     48  C   UNL     1      20.807   5.799 188.440  0.00  0.00    +0.000 A 
ATOM     49  C   UNL     1      19.481   5.367 188.475  0.00  0.00    +0.000 A 
ENDBRANCH  42  44
ENDBRANCH  33  41
ENDBRANCH  30  33
ENDBRANCH  29  30
ENDBRANCH  27  29
ENDBRANCH  18  27
BRANCH  17  50
ATOM     50  O   UNL     1      32.036  -0.637 192.111  0.00  0.00    +0.000 OA
BRANCH  50  52
ATOM     51  O   UNL     1      32.217  -1.429 190.026  0.00  0.00    +0.000 OA
ATOM     52  C   UNL     1      32.576  -0.615 190.872  0.00  0.00    +0.000 C 
ATOM     53  C   UNL     1      33.675   0.368 190.603  0.00  0.00    +0.000 C 
ENDBRANCH  50  52
ENDBRANCH  17  50
BRANCH   7  54
ATOM     54  O   UNL     1      27.824   1.164 194.236  0.00  0.00    +0.000 OA
BRANCH  54  56
ATOM     55  O   UNL     1      26.931   2.575 195.352  0.00  0.00    +0.000 OA
ATOM     56  C   UNL     1      26.600   1.698 194.563  0.00  0.00    +0.000 C 
BRANCH  56  57
ATOM     57  C   UNL     1      24.922   0.914 194.080  0.00  0.00    +0.000 A 
ATOM     58  C   UNL     1      24.753  -0.367 193.398  0.00  0.00    +0.000 A 
ATOM     59  C   UNL     1      23.616   1.381 194.419  0.00  0.00    +0.000 A 
ATOM     60  C   UNL     1      23.536  -1.038 193.121  0.00  0.00    +0.000 A 
ATOM     61  C   UNL     1      22.382   0.723 194.148  0.00  0.00    +0.000 A 
ATOM     62  C   UNL     1      22.339  -0.489 193.502  0.00  0.00    +0.000 A 
ENDBRANCH  56  57
ENDBRANCH  54  56
ENDBRANCH   7  54
BRANCH   4  63
ATOM     63  O   UNL     1      26.191  -0.565 196.398  0.00  0.00    +0.000 OA
BRANCH  63  65
ATOM     64  O   UNL     1      24.363   0.173 197.451  0.00  0.00    +0.000 OA
ATOM     65  C   UNL     1      24.993  -0.776 196.989  0.00  0.00    +0.000 C 
ATOM     66  C   UNL     1      24.504  -2.176 197.179  0.00  0.00    +0.000 C 
ENDBRANCH  63  65
ENDBRANCH   4  63
TORSDOF 17
ENDMDL
MODEL 4
REMARK VINA RESULT:      -8.7      2.284      6.366
REMARK  Name = 
REMARK  23 active torsions:
REMARK  status: ('A' for Active; 'I' for Inactive)
REMARK    1  A    between atoms: O_2  and  C_17
REMARK    2  A    between atoms: O_2  and  C_36
REMARK    3  A    between atoms: O_3  and  C_20
REMARK    4  A    between atoms: O_3  and  C_37
REMARK    5  A    between atoms: O_4  and  C_21
REMARK    6  A    between atoms: O_5  and  C_22
REMARK    7  A    between atoms: O_6  and  C_30
REMARK    8  A    between atoms: O_6  and  C_39
REMARK    9  A    between atoms: O_8  and  C_31
REMARK   10  A    between atoms: O_8  and  C_40
REMARK   11  A    between atoms: O_13  and  C_42
REMARK   12  A    between atoms: N_15  and  C_46
REMARK   13  A    between atoms: C_18  and  C_29
REMARK   14  A    between atoms: C_24  and  C_33
REMARK   15  A    between atoms: C_24  and  C_34
REMARK   16  A    between atoms: C_32  and  C_35
REMARK   17  A    between atoms: C_36  and  C_38
REMARK   18  A    between atoms: C_37  and  C_41
REMARK   19  A    between atoms: C_39  and  C_43
REMARK   20  A    between atoms: C_40  and  C_42
REMARK   21  A    between atoms: C_42  and  C_46
REMARK   22  A    between atoms: C_46  and  C_50
REMARK   23  A    between atoms: C_53  and  C_56
REMARK                            x       y       z     vdW  Elec       q    Type
REMARK                         _______ _______ _______ _____ _____    ______ ____
ROOT
ATOM      1  O   UNL     1      33.014  -0.944 194.298  0.00  0.00    +0.000 OA
ATOM      2  O   UNL     1      28.208   2.186 197.699  0.00  0.00    +0.000 OA
ATOM      3  C   UNL     1      29.623  -0.387 194.481  0.00  0.00    +0.000 C 
ATOM      4  C   UNL     1      31.026  -0.318 193.810  0.00  0.00    +0.000 C 
ATOM      5  C   UNL     1      29.459   1.150 195.582  0.00  0.00    +0.000 C 
ATOM      6  C   UNL     1      31.887  -0.532 195.121  0.00  0.00    +0.000 C 
ATOM      7  C   UNL     1      28.294  -0.881 193.270  0.00  0.00    +0.000 C 
ATOM      8  C   UNL     1      26.423  -1.150 193.151  0.00  0.00    +0.000 C 
ATOM      9  C   UNL     1      30.647   1.008 196.623  0.00  0.00    +0.000 C 
ATOM     10  C   UNL     1      32.043   0.678 196.013  0.00  0.00    +0.000 C 
ATOM     11  C   UNL     1      25.165  -0.707 194.321  0.00  0.00    +0.000 C 
ATOM     12  C   UNL     1      32.002  -1.476 193.359  0.00  0.00    +0.000 C 
ATOM     13  C   UNL     1      27.958   1.684 196.582  0.00  0.00    +0.000 C 
ATOM     14  C   UNL     1      25.939  -0.290 191.894  0.00  0.00    +0.000 C 
ATOM     15  C   UNL     1      25.237   0.847 194.715  0.00  0.00    +0.000 C 
ATOM     16  C   UNL     1      29.820   2.489 194.814  0.00  0.00    +0.000 C 
ATOM     17  C   UNL     1      26.095   1.540 196.135  0.00  0.00    +0.000 C 
ATOM     18  C   UNL     1      25.353   1.171 192.154  0.00  0.00    +0.000 C 
ATOM     19  C   UNL     1      25.050   1.657 193.619  0.00  0.00    +0.000 C 
ATOM     20  C   UNL     1      23.754  -0.944 193.580  0.00  0.00    +0.000 C 
ATOM     21  C   UNL     1      24.857  -1.672 195.511  0.00  0.00    +0.000 C 
ATOM     22  C   UNL     1      24.810   3.141 193.740  0.00  0.00    +0.000 C 
ENDROOT
BRANCH   9  23
ATOM     23  O   UNL     1      30.338  -0.038 197.543  0.00  0.00    +0.000 OA
ATOM     24  H   UNL     1      30.032   0.399 198.364  0.00  0.00    +0.000 HD
ENDBRANCH   9  23
BRANCH   8  25
ATOM     25  O   UNL     1      26.252  -2.534 192.792  0.00  0.00    +0.000 OA
ATOM     26  H   UNL     1      25.513  -2.606 192.162  0.00  0.00    +0.000 HD
ENDBRANCH   8  25
BRANCH  18  27
ATOM     27  O   UNL     1      26.283   2.136 191.583  0.00  0.00    +0.000 OA
BRANCH  27  29
ATOM     28  O   UNL     1      26.094   3.935 190.224  0.00  0.00    +0.000 OA
ATOM     29  C   UNL     1      25.909   2.740 190.426  0.00  0.00    +0.000 C 
BRANCH  29  30
ATOM     30  C   UNL     1      25.103   1.847 189.477  0.00  0.00    +0.000 C 
BRANCH  30  31
ATOM     31  O   UNL     1      25.789   1.443 188.286  0.00  0.00    +0.000 OA
ATOM     32  H   UNL     1      26.645   1.079 188.578  0.00  0.00    +0.000 HD
ENDBRANCH  30  31
BRANCH  30  33
ATOM     33  C   UNL     1      23.784   2.588 189.122  0.00  0.00    +0.000 C 
BRANCH  33  34
ATOM     34  C   UNL     1      22.720   2.326 190.178  0.00  0.00    +0.000 A 
ATOM     35  C   UNL     1      22.153   1.045 190.284  0.00  0.00    +0.000 A 
ATOM     36  C   UNL     1      22.259   3.337 191.037  0.00  0.00    +0.000 A 
ATOM     37  C   UNL     1      21.166   0.778 191.234  0.00  0.00    +0.000 A 
ATOM     38  C   UNL     1      21.274   3.067 191.988  0.00  0.00    +0.000 A 
ATOM     39  C   UNL     1      20.729   1.788 192.088  0.00  0.00    +0.000 A 
ENDBRANCH  33  34
BRANCH  33  41
ATOM     40  O   UNL     1      22.440   2.617 185.764  0.00  0.00    +0.000 OA
ATOM     41  N   UNL     1      23.313   2.187 187.790  0.00  0.00    +0.000 N 
ATOM     42  C   UNL     1      22.401   2.802 186.977  0.00  0.00    +0.000 C 
ATOM     43  H   UNL     1      23.926   1.542 187.300  0.00  0.00    +0.000 HD
BRANCH  42  44
ATOM     44  C   UNL     1      21.395   3.728 187.544  0.00  0.00    +0.000 A 
ATOM     45  C   UNL     1      21.699   5.069 187.798  0.00  0.00    +0.000 A 
ATOM     46  C   UNL     1      20.139   3.218 187.895  0.00  0.00    +0.000 A 
ATOM     47  C   UNL     1      20.728   5.911 188.343  0.00  0.00    +0.000 A 
ATOM     48  C   UNL     1      19.172   4.061 188.442  0.00  0.00    +0.000 A 
ATOM     49  C   UNL     1      19.465   5.408 188.657  0.00  0.00    +0.000 A 
ENDBRANCH  42  44
ENDBRANCH  33  41
ENDBRANCH  30  33
ENDBRANCH  29  30
ENDBRANCH  27  29
ENDBRANCH  18  27
BRANCH  17  50
ATOM     50  O   UNL     1      25.288   1.121 197.256  0.00  0.00    +0.000 OA
BRANCH  50  52
ATOM     51  O   UNL     1      25.088   2.941 198.543  0.00  0.00    +0.000 OA
ATOM     52  C   UNL     1      24.553   1.979 197.999  0.00  0.00    +0.000 C 
ATOM     53  C   UNL     1      23.101   1.665 198.202  0.00  0.00    +0.000 C 
ENDBRANCH  50  52
ENDBRANCH  17  50
BRANCH   7  54
ATOM     54  O   UNL     1      28.086   0.409 193.114  0.00  0.00    +0.000 OA
BRANCH  54  56
ATOM     55  O   UNL     1      28.844  -0.837 191.732  0.00  0.00    +0.000 OA
ATOM     56  C   UNL     1      28.630   0.364 191.851  0.00  0.00    +0.000 C 
BRANCH  56  57
ATOM     57  C   UNL     1      29.153   1.910 190.851  0.00  0.00    +0.000 A 
ATOM     58  C   UNL     1      29.454   3.222 191.419  0.00  0.00    +0.000 A 
ATOM     59  C   UNL     1      29.452   1.981 189.456  0.00  0.00    +0.000 A 
ATOM     60  C   UNL     1      29.951   4.359 190.735  0.00  0.00    +0.000 A 
ATOM     61  C   UNL     1      29.950   3.113 188.751  0.00  0.00    +0.000 A 
ATOM     62  C   UNL     1      30.204   4.304 189.389  0.00  0.00    +0.000 A 
ENDBRANCH  56  57
ENDBRANCH  54  56
ENDBRANCH   7  54
BRANCH   4  63
ATOM     63  O   UNL     1      31.255   0.946 193.145  0.00  0.00    +0.000 OA
BRANCH  63  65
ATOM     64  O   UNL     1      32.234   0.552 191.174  0.00  0.00    +0.000 OA
ATOM     65  C   UNL     1      32.232   1.170 192.237  0.00  0.00    +0.000 C 
ATOM     66  C   UNL     1      33.366   2.080 192.588  0.00  0.00    +0.000 C 
ENDBRANCH  63  65
ENDBRANCH   4  63
TORSDOF 17
ENDMDL
MODEL 5
REMARK VINA RESULT:      -8.6      1.600      2.254
REMARK  Name = 
REMARK  23 active torsions:
REMARK  status: ('A' for Active; 'I' for Inactive)
REMARK    1  A    between atoms: O_2  and  C_17
REMARK    2  A    between atoms: O_2  and  C_36
REMARK    3  A    between atoms: O_3  and  C_20
REMARK    4  A    between atoms: O_3  and  C_37
REMARK    5  A    between atoms: O_4  and  C_21
REMARK    6  A    between atoms: O_5  and  C_22
REMARK    7  A    between atoms: O_6  and  C_30
REMARK    8  A    between atoms: O_6  and  C_39
REMARK    9  A    between atoms: O_8  and  C_31
REMARK   10  A    between atoms: O_8  and  C_40
REMARK   11  A    between atoms: O_13  and  C_42
REMARK   12  A    between atoms: N_15  and  C_46
REMARK   13  A    between atoms: C_18  and  C_29
REMARK   14  A    between atoms: C_24  and  C_33
REMARK   15  A    between atoms: C_24  and  C_34
REMARK   16  A    between atoms: C_32  and  C_35
REMARK   17  A    between atoms: C_36  and  C_38
REMARK   18  A    between atoms: C_37  and  C_41
REMARK   19  A    between atoms: C_39  and  C_43
REMARK   20  A    between atoms: C_40  and  C_42
REMARK   21  A    between atoms: C_42  and  C_46
REMARK   22  A    between atoms: C_46  and  C_50
REMARK   23  A    between atoms: C_53  and  C_56
REMARK                            x       y       z     vdW  Elec       q    Type
REMARK                         _______ _______ _______ _____ _____    ______ ____
ROOT
ATOM      1  O   UNL     1      24.060   0.020 199.090  0.00  0.00    +0.000 OA
ATOM      2  O   UNL     1      28.717  -2.366 194.958  0.00  0.00    +0.000 OA
ATOM      3  C   UNL     1      25.865   0.670 196.233  0.00  0.00    +0.000 C 
ATOM      4  C   UNL     1      24.563   0.411 197.047  0.00  0.00    +0.000 C 
ATOM      5  C   UNL     1      26.535  -1.026 195.706  0.00  0.00    +0.000 C 
ATOM      6  C   UNL     1      25.241  -0.283 198.297  0.00  0.00    +0.000 C 
ATOM      7  C   UNL     1      25.664   2.073 195.021  0.00  0.00    +0.000 C 
ATOM      8  C   UNL     1      26.600   3.004 193.663  0.00  0.00    +0.000 C 
ATOM      9  C   UNL     1      26.804  -1.778 197.076  0.00  0.00    +0.000 C 
ATOM     10  C   UNL     1      25.641  -1.729 198.113  0.00  0.00    +0.000 C 
ATOM     11  C   UNL     1      28.129   2.571 192.877  0.00  0.00    +0.000 C 
ATOM     12  C   UNL     1      23.926   1.225 198.242  0.00  0.00    +0.000 C 
ATOM     13  C   UNL     1      28.032  -1.376 194.623  0.00  0.00    +0.000 C 
ATOM     14  C   UNL     1      25.632   3.008 192.392  0.00  0.00    +0.000 C 
ATOM     15  C   UNL     1      28.089   1.085 192.271  0.00  0.00    +0.000 C 
ATOM     16  C   UNL     1      25.429  -1.930 195.019  0.00  0.00    +0.000 C 
ATOM     17  C   UNL     1      28.666  -0.408 193.089  0.00  0.00    +0.000 C 
ATOM     18  C   UNL     1      25.844   1.889 191.274  0.00  0.00    +0.000 C 
ATOM     19  C   UNL     1      27.109   0.955 191.314  0.00  0.00    +0.000 C 
ATOM     20  C   UNL     1      28.305   3.585 191.638  0.00  0.00    +0.000 C 
ATOM     21  C   UNL     1      29.478   2.961 193.564  0.00  0.00    +0.000 C 
ATOM     22  C   UNL     1      27.021  -0.244 190.403  0.00  0.00    +0.000 C 
ENDROOT
BRANCH   9  23
ATOM     23  O   UNL     1      27.947  -1.202 197.707  0.00  0.00    +0.000 OA
ATOM     24  H   UNL     1      28.429  -1.940 198.132  0.00  0.00    +0.000 HD
ENDBRANCH   9  23
BRANCH   8  25
ATOM     25  O   UNL     1      26.685   4.368 194.118  0.00  0.00    +0.000 OA
ATOM     26  H   UNL     1      26.517   4.390 195.077  0.00  0.00    +0.000 HD
ENDBRANCH   8  25
BRANCH  18  27
ATOM     27  O   UNL     1      24.682   1.009 191.293  0.00  0.00    +0.000 OA
BRANCH  27  29
ATOM     28  O   UNL     1      23.841  -0.371 189.709  0.00  0.00    +0.000 OA
ATOM     29  C   UNL     1      24.076   0.767 190.103  0.00  0.00    +0.000 C 
BRANCH  29  30
ATOM     30  C   UNL     1      23.863   2.011 189.234  0.00  0.00    +0.000 C 
BRANCH  30  31
ATOM     31  O   UNL     1      25.050   2.562 188.651  0.00  0.00    +0.000 OA
ATOM     32  H   UNL     1      25.546   1.806 188.284  0.00  0.00    +0.000 HD
ENDBRANCH  30  31
BRANCH  30  33
ATOM     33  C   UNL     1      23.131   3.079 190.093  0.00  0.00    +0.000 C 
BRANCH  33  34
ATOM     34  C   UNL     1      21.652   2.743 190.222  0.00  0.00    +0.000 A 
ATOM     35  C   UNL     1      20.835   3.529 191.054  0.00  0.00    +0.000 A 
ATOM     36  C   UNL     1      21.077   1.647 189.559  0.00  0.00    +0.000 A 
ATOM     37  C   UNL     1      19.479   3.237 191.203  0.00  0.00    +0.000 A 
ATOM     38  C   UNL     1      19.720   1.358 189.708  0.00  0.00    +0.000 A 
ATOM     39  C   UNL     1      18.921   2.154 190.527  0.00  0.00    +0.000 A 
ENDBRANCH  33  34
BRANCH  33  41
ATOM     40  O   UNL     1      22.571   6.284 188.513  0.00  0.00    +0.000 OA
ATOM     41  N   UNL     1      23.318   4.417 189.516  0.00  0.00    +0.000 N 
ATOM     42  C   UNL     1      22.570   5.058 188.566  0.00  0.00    +0.000 C 
ATOM     43  H   UNL     1      23.893   5.042 190.072  0.00  0.00    +0.000 HD
BRANCH  42  44
ATOM     44  C   UNL     1      21.721   4.285 187.632  0.00  0.00    +0.000 A 
ATOM     45  C   UNL     1      22.280   3.485 186.630  0.00  0.00    +0.000 A 
ATOM     46  C   UNL     1      20.331   4.423 187.721  0.00  0.00    +0.000 A 
ATOM     47  C   UNL     1      21.448   2.778 185.760  0.00  0.00    +0.000 A 
ATOM     48  C   UNL     1      19.502   3.718 186.849  0.00  0.00    +0.000 A 
ATOM     49  C   UNL     1      20.062   2.889 185.876  0.00  0.00    +0.000 A 
ENDBRANCH  42  44
ENDBRANCH  33  41
ENDBRANCH  30  33
ENDBRANCH  29  30
ENDBRANCH  27  29
ENDBRANCH  18  27
BRANCH  17  50
ATOM     50  O   UNL     1      30.103  -0.264 193.081  0.00  0.00    +0.000 OA
BRANCH  50  52
ATOM     51  O   UNL     1      31.525  -1.964 192.770  0.00  0.00    +0.000 OA
ATOM     52  C   UNL     1      30.915  -1.009 192.298  0.00  0.00    +0.000 C 
ATOM     53  C   UNL     1      31.109  -0.576 190.876  0.00  0.00    +0.000 C 
ENDBRANCH  50  52
ENDBRANCH  17  50
BRANCH   7  54
ATOM     54  O   UNL     1      25.370   1.143 194.137  0.00  0.00    +0.000 OA
BRANCH  54  56
ATOM     55  O   UNL     1      24.132   2.604 194.746  0.00  0.00    +0.000 OA
ATOM     56  C   UNL     1      24.062   1.567 194.096  0.00  0.00    +0.000 C 
BRANCH  56  57
ATOM     57  C   UNL     1      22.608   0.504 193.449  0.00  0.00    +0.000 A 
ATOM     58  C   UNL     1      22.716  -0.870 192.964  0.00  0.00    +0.000 A 
ATOM     59  C   UNL     1      21.218   0.832 193.466  0.00  0.00    +0.000 A 
ATOM     60  C   UNL     1      21.657  -1.731 192.583  0.00  0.00    +0.000 A 
ATOM     61  C   UNL     1      20.141  -0.018 193.085  0.00  0.00    +0.000 A 
ATOM     62  C   UNL     1      20.357  -1.302 192.646  0.00  0.00    +0.000 A 
ENDBRANCH  56  57
ENDBRANCH  54  56
ENDBRANCH   7  54
BRANCH   4  63
ATOM     63  O   UNL     1      23.627  -0.429 196.332  0.00  0.00    +0.000 OA
BRANCH  63  65
ATOM     64  O   UNL     1      21.672   0.554 196.793  0.00  0.00    +0.000 OA
ATOM     65  C   UNL     1      22.299  -0.483 196.582  0.00  0.00    +0.000 C 
ATOM     66  C   UNL     1      21.630  -1.814 196.717  0.00  0.00    +0.000 C 
ENDBRANCH  63  65
ENDBRANCH   4  63
TORSDOF 17
ENDMDL
MODEL 6
REMARK VINA RESULT:      -8.4      2.075      6.840
REMARK  Name = 
REMARK  23 active torsions:
REMARK  status: ('A' for Active; 'I' for Inactive)
REMARK    1  A    between atoms: O_2  and  C_17
REMARK    2  A    between atoms: O_2  and  C_36
REMARK    3  A    between atoms: O_3  and  C_20
REMARK    4  A    between atoms: O_3  and  C_37
REMARK    5  A    between atoms: O_4  and  C_21
REMARK    6  A    between atoms: O_5  and  C_22
REMARK    7  A    between atoms: O_6  and  C_30
REMARK    8  A    between atoms: O_6  and  C_39
REMARK    9  A    between atoms: O_8  and  C_31
REMARK   10  A    between atoms: O_8  and  C_40
REMARK   11  A    between atoms: O_13  and  C_42
REMARK   12  A    between atoms: N_15  and  C_46
REMARK   13  A    between atoms: C_18  and  C_29
REMARK   14  A    between atoms: C_24  and  C_33
REMARK   15  A    between atoms: C_24  and  C_34
REMARK   16  A    between atoms: C_32  and  C_35
REMARK   17  A    between atoms: C_36  and  C_38
REMARK   18  A    between atoms: C_37  and  C_41
REMARK   19  A    between atoms: C_39  and  C_43
REMARK   20  A    between atoms: C_40  and  C_42
REMARK   21  A    between atoms: C_42  and  C_46
REMARK   22  A    between atoms: C_46  and  C_50
REMARK   23  A    between atoms: C_53  and  C_56
REMARK                            x       y       z     vdW  Elec       q    Type
REMARK                         _______ _______ _______ _____ _____    ______ ____
ROOT
ATOM      1  O   UNL     1      31.586   1.499 190.584  0.00  0.00    +0.000 OA
ATOM      2  O   UNL     1      28.232   3.786 195.874  0.00  0.00    +0.000 OA
ATOM      3  C   UNL     1      28.859   0.965 192.614  0.00  0.00    +0.000 C 
ATOM      4  C   UNL     1      29.569   1.276 191.264  0.00  0.00    +0.000 C 
ATOM      5  C   UNL     1      28.603   2.622 193.501  0.00  0.00    +0.000 C 
ATOM      6  C   UNL     1      30.952   1.754 191.868  0.00  0.00    +0.000 C 
ATOM      7  C   UNL     1      27.477  -0.270 192.407  0.00  0.00    +0.000 C 
ATOM      8  C   UNL     1      26.115  -1.148 193.388  0.00  0.00    +0.000 C 
ATOM      9  C   UNL     1      30.072   3.189 193.694  0.00  0.00    +0.000 C 
ATOM     10  C   UNL     1      30.979   3.158 192.426  0.00  0.00    +0.000 C 
ATOM     11  C   UNL     1      25.536  -0.804 195.029  0.00  0.00    +0.000 C 
ATOM     12  C   UNL     1      30.592   0.415 190.424  0.00  0.00    +0.000 C 
ATOM     13  C   UNL     1      27.718   2.919 195.135  0.00  0.00    +0.000 C 
ATOM     14  C   UNL     1      24.765  -0.908 192.568  0.00  0.00    +0.000 C 
ATOM     15  C   UNL     1      25.109   0.734 195.201  0.00  0.00    +0.000 C 
ATOM     16  C   UNL     1      27.924   3.711 192.571  0.00  0.00    +0.000 C 
ATOM     17  C   UNL     1      26.149   2.057 195.832  0.00  0.00    +0.000 C 
ATOM     18  C   UNL     1      23.812   0.294 193.010  0.00  0.00    +0.000 C 
ATOM     19  C   UNL     1      24.084   1.072 194.349  0.00  0.00    +0.000 C 
ATOM     20  C   UNL     1      24.209  -1.693 195.236  0.00  0.00    +0.000 C 
ATOM     21  C   UNL     1      26.299  -1.413 196.250  0.00  0.00    +0.000 C 
ATOM     22  C   UNL     1      23.316   2.365 194.479  0.00  0.00    +0.000 C 
ENDROOT
BRANCH   9  23
ATOM     23  O   UNL     1      30.737   2.426 194.700  0.00  0.00    +0.000 OA
ATOM     24  H   UNL     1      30.147   2.425 195.480  0.00  0.00    +0.000 HD
ENDBRANCH   9  23
BRANCH   8  25
ATOM     25  O   UNL     1      26.412  -2.554 193.289  0.00  0.00    +0.000 OA
ATOM     26  H   UNL     1      25.575  -3.051 193.285  0.00  0.00    +0.000 HD
ENDBRANCH   8  25
BRANCH  18  27
ATOM     27  O   UNL     1      23.823   1.290 191.945  0.00  0.00    +0.000 OA
BRANCH  27  29
ATOM     28  O   UNL     1      22.632   0.164 190.384  0.00  0.00    +0.000 OA
ATOM     29  C   UNL     1      22.843   1.198 191.009  0.00  0.00    +0.000 C 
BRANCH  29  30
ATOM     30  C   UNL     1      22.145   2.524 190.690  0.00  0.00    +0.000 C 
BRANCH  30  31
ATOM     31  O   UNL     1      21.814   3.330 191.827  0.00  0.00    +0.000 OA
ATOM     32  H   UNL     1      22.256   4.189 191.687  0.00  0.00    +0.000 HD
ENDBRANCH  30  31
BRANCH  30  33
ATOM     33  C   UNL     1      20.872   2.210 189.856  0.00  0.00    +0.000 C 
BRANCH  33  34
ATOM     34  C   UNL     1      20.938   2.896 188.498  0.00  0.00    +0.000 A 
ATOM     35  C   UNL     1      20.984   2.115 187.331  0.00  0.00    +0.000 A 
ATOM     36  C   UNL     1      20.986   4.294 188.372  0.00  0.00    +0.000 A 
ATOM     37  C   UNL     1      21.058   2.715 186.073  0.00  0.00    +0.000 A 
ATOM     38  C   UNL     1      21.058   4.892 187.113  0.00  0.00    +0.000 A 
ATOM     39  C   UNL     1      21.092   4.103 185.965  0.00  0.00    +0.000 A 
ENDBRANCH  33  34
BRANCH  33  41
ATOM     40  O   UNL     1      18.461   2.863 192.471  0.00  0.00    +0.000 OA
ATOM     41  N   UNL     1      19.665   2.611 190.590  0.00  0.00    +0.000 N 
ATOM     42  C   UNL     1      19.196   2.153 191.791  0.00  0.00    +0.000 C 
ATOM     43  H   UNL     1      19.285   3.513 190.322  0.00  0.00    +0.000 HD
BRANCH  42  44
ATOM     44  C   UNL     1      19.606   0.824 192.300  0.00  0.00    +0.000 A 
ATOM     45  C   UNL     1      19.384  -0.340 191.559  0.00  0.00    +0.000 A 
ATOM     46  C   UNL     1      20.162   0.742 193.582  0.00  0.00    +0.000 A 
ATOM     47  C   UNL     1      19.775  -1.577 192.076  0.00  0.00    +0.000 A 
ATOM     48  C   UNL     1      20.549  -0.495 194.097  0.00  0.00    +0.000 A 
ATOM     49  C   UNL     1      20.364  -1.652 193.339  0.00  0.00    +0.000 A 
ENDBRANCH  42  44
ENDBRANCH  33  41
ENDBRANCH  30  33
ENDBRANCH  29  30
ENDBRANCH  27  29
ENDBRANCH  18  27
BRANCH  17  50
ATOM     50  O   UNL     1      26.262   1.757 197.239  0.00  0.00    +0.000 OA
BRANCH  50  52
ATOM     51  O   UNL     1      26.360   3.289 198.868  0.00  0.00    +0.000 OA
ATOM     52  C   UNL     1      25.685   2.509 198.204  0.00  0.00    +0.000 C 
ATOM     53  C   UNL     1      24.229   2.290 198.486  0.00  0.00    +0.000 C 
ENDBRANCH  50  52
ENDBRANCH  17  50
BRANCH   7  54
ATOM     54  O   UNL     1      26.684   0.776 192.304  0.00  0.00    +0.000 OA
BRANCH  54  56
ATOM     55  O   UNL     1      27.146  -0.499 190.822  0.00  0.00    +0.000 OA
ATOM     56  C   UNL     1      26.533   0.555 190.955  0.00  0.00    +0.000 C 
BRANCH  56  57
ATOM     57  C   UNL     1      25.825   1.841 189.727  0.00  0.00    +0.000 A 
ATOM     58  C   UNL     1      25.190   1.527 188.449  0.00  0.00    +0.000 A 
ATOM     59  C   UNL     1      25.691   3.248 189.925  0.00  0.00    +0.000 A 
ATOM     60  C   UNL     1      24.554   2.431 187.563  0.00  0.00    +0.000 A 
ATOM     61  C   UNL     1      25.058   4.173 189.046  0.00  0.00    +0.000 A 
ATOM     62  C   UNL     1      24.485   3.766 187.865  0.00  0.00    +0.000 A 
ENDBRANCH  56  57
ENDBRANCH  54  56
ENDBRANCH   7  54
BRANCH   4  63
ATOM     63  O   UNL     1      28.871   2.287 190.498  0.00  0.00    +0.000 OA
BRANCH  63  65
ATOM     64  O   UNL     1      28.979   1.699 188.343  0.00  0.00    +0.000 OA
ATOM     65  C   UNL     1      29.118   2.571 189.199  0.00  0.00    +0.000 C 
ATOM     66  C   UNL     1      29.672   3.911 188.834  0.00  0.00    +0.000 C 
ENDBRANCH  63  65
ENDBRANCH   4  63
TORSDOF 17
ENDMDL
MODEL 7
REMARK VINA RESULT:      -8.2      2.751      7.350
REMARK  Name = 
REMARK  23 active torsions:
REMARK  status: ('A' for Active; 'I' for Inactive)
REMARK    1  A    between atoms: O_2  and  C_17
REMARK    2  A    between atoms: O_2  and  C_36
REMARK    3  A    between atoms: O_3  and  C_20
REMARK    4  A    between atoms: O_3  and  C_37
REMARK    5  A    between atoms: O_4  and  C_21
REMARK    6  A    between atoms: O_5  and  C_22
REMARK    7  A    between atoms: O_6  and  C_30
REMARK    8  A    between atoms: O_6  and  C_39
REMARK    9  A    between atoms: O_8  and  C_31
REMARK   10  A    between atoms: O_8  and  C_40
REMARK   11  A    between atoms: O_13  and  C_42
REMARK   12  A    between atoms: N_15  and  C_46
REMARK   13  A    between atoms: C_18  and  C_29
REMARK   14  A    between atoms: C_24  and  C_33
REMARK   15  A    between atoms: C_24  and  C_34
REMARK   16  A    between atoms: C_32  and  C_35
REMARK   17  A    between atoms: C_36  and  C_38
REMARK   18  A    between atoms: C_37  and  C_41
REMARK   19  A    between atoms: C_39  and  C_43
REMARK   20  A    between atoms: C_40  and  C_42
REMARK   21  A    between atoms: C_42  and  C_46
REMARK   22  A    between atoms: C_46  and  C_50
REMARK   23  A    between atoms: C_53  and  C_56
REMARK                            x       y       z     vdW  Elec       q    Type
REMARK                         _______ _______ _______ _____ _____    ______ ____
ROOT
ATOM      1  O   UNL     1      33.263   3.004 189.334  0.00  0.00    +0.000 OA
ATOM      2  O   UNL     1      30.981   4.837 195.325  0.00  0.00    +0.000 OA
ATOM      3  C   UNL     1      31.525   1.948 192.110  0.00  0.00    +0.000 C 
ATOM      4  C   UNL     1      31.693   2.287 190.600  0.00  0.00    +0.000 C 
ATOM      5  C   UNL     1      31.020   3.553 192.985  0.00  0.00    +0.000 C 
ATOM      6  C   UNL     1      32.967   3.216 190.742  0.00  0.00    +0.000 C 
ATOM      7  C   UNL     1      30.601   0.349 192.367  0.00  0.00    +0.000 C 
ATOM      8  C   UNL     1      29.916  -0.763 193.739  0.00  0.00    +0.000 C 
ATOM      9  C   UNL     1      32.228   4.543 192.707  0.00  0.00    +0.000 C 
ATOM     10  C   UNL     1      32.706   4.624 191.225  0.00  0.00    +0.000 C 
ATOM     11  C   UNL     1      29.742  -0.407 195.468  0.00  0.00    +0.000 C 
ATOM     12  C   UNL     1      32.658   1.666 189.514  0.00  0.00    +0.000 C 
ATOM     13  C   UNL     1      30.580   3.775 194.801  0.00  0.00    +0.000 C 
ATOM     14  C   UNL     1      28.387  -1.028 193.362  0.00  0.00    +0.000 C 
ATOM     15  C   UNL     1      28.919   0.949 195.718  0.00  0.00    +0.000 C 
ATOM     16  C   UNL     1      29.801   4.276 192.274  0.00  0.00    +0.000 C 
ATOM     17  C   UNL     1      29.622   2.584 195.965  0.00  0.00    +0.000 C 
ATOM     18  C   UNL     1      27.269  -0.112 194.037  0.00  0.00    +0.000 C 
ATOM     19  C   UNL     1      27.644   0.868 195.208  0.00  0.00    +0.000 C 
ATOM     20  C   UNL     1      28.875  -1.611 196.094  0.00  0.00    +0.000 C 
ATOM     21  C   UNL     1      30.967  -0.614 196.417  0.00  0.00    +0.000 C 
ATOM     22  C   UNL     1      26.578   1.886 195.528  0.00  0.00    +0.000 C 
ENDROOT
BRANCH   9  23
ATOM     23  O   UNL     1      33.353   4.135 193.484  0.00  0.00    +0.000 OA
ATOM     24  H   UNL     1      33.106   3.284 193.900  0.00  0.00    +0.000 HD
ENDBRANCH   9  23
BRANCH   8  25
ATOM     25  O   UNL     1      30.600  -2.022 193.595  0.00  0.00    +0.000 OA
ATOM     26  H   UNL     1      31.477  -1.952 194.012  0.00  0.00    +0.000 HD
ENDBRANCH   8  25
BRANCH  18  27
ATOM     27  O   UNL     1      26.667   0.707 192.991  0.00  0.00    +0.000 OA
BRANCH  27  29
ATOM     28  O   UNL     1      24.824  -0.590 192.782  0.00  0.00    +0.000 OA
ATOM     29  C   UNL     1      25.344   0.521 192.751  0.00  0.00    +0.000 C 
BRANCH  29  30
ATOM     30  C   UNL     1      24.601   1.777 192.283  0.00  0.00    +0.000 C 
BRANCH  30  31
ATOM     31  O   UNL     1      24.720   2.915 193.145  0.00  0.00    +0.000 OA
ATOM     32  H   UNL     1      24.570   3.697 192.582  0.00  0.00    +0.000 HD
ENDBRANCH  30  31
BRANCH  30  33
ATOM     33  C   UNL     1      23.107   1.404 192.074  0.00  0.00    +0.000 C 
BRANCH  33  34
ATOM     34  C   UNL     1      22.591   1.975 190.761  0.00  0.00    +0.000 A 
ATOM     35  C   UNL     1      22.439   3.365 190.624  0.00  0.00    +0.000 A 
ATOM     36  C   UNL     1      22.227   1.151 189.683  0.00  0.00    +0.000 A 
ATOM     37  C   UNL     1      21.955   3.917 189.437  0.00  0.00    +0.000 A 
ATOM     38  C   UNL     1      21.745   1.705 188.497  0.00  0.00    +0.000 A 
ATOM     39  C   UNL     1      21.611   3.087 188.372  0.00  0.00    +0.000 A 
ENDBRANCH  33  34
BRANCH  33  41
ATOM     40  O   UNL     1      20.556   1.724 194.618  0.00  0.00    +0.000 OA
ATOM     41  N   UNL     1      22.299   1.874 193.206  0.00  0.00    +0.000 N 
ATOM     42  C   UNL     1      20.972   1.662 193.464  0.00  0.00    +0.000 C 
ATOM     43  H   UNL     1      22.834   2.151 194.024  0.00  0.00    +0.000 HD
BRANCH  42  44
ATOM     44  C   UNL     1      20.041   1.310 192.368  0.00  0.00    +0.000 A 
ATOM     45  C   UNL     1      19.293   2.287 191.705  0.00  0.00    +0.000 A 
ATOM     46  C   UNL     1      19.865  -0.041 192.049  0.00  0.00    +0.000 A 
ATOM     47  C   UNL     1      18.417   1.918 190.683  0.00  0.00    +0.000 A 
ATOM     48  C   UNL     1      18.988  -0.408 191.029  0.00  0.00    +0.000 A 
ATOM     49  C   UNL     1      18.272   0.573 190.341  0.00  0.00    +0.000 A 
ENDBRANCH  42  44
ENDBRANCH  33  41
ENDBRANCH  30  33
ENDBRANCH  29  30
ENDBRANCH  27  29
ENDBRANCH  18  27
BRANCH  17  50
ATOM     50  O   UNL     1      30.213   2.503 197.281  0.00  0.00    +0.000 OA
BRANCH  50  52
ATOM     51  O   UNL     1      30.441   3.285 199.365  0.00  0.00    +0.000 OA
ATOM     52  C   UNL     1      29.783   3.239 198.330  0.00  0.00    +0.000 C 
ATOM     53  C   UNL     1      28.450   3.915 198.213  0.00  0.00    +0.000 C 
ENDBRANCH  50  52
ENDBRANCH  17  50
BRANCH   7  54
ATOM     54  O   UNL     1      29.524   1.097 192.480  0.00  0.00    +0.000 OA
BRANCH  54  56
ATOM     55  O   UNL     1      29.926  -0.171 190.974  0.00  0.00    +0.000 OA
ATOM     56  C   UNL     1      29.056   0.641 191.271  0.00  0.00    +0.000 C 
BRANCH  56  57
ATOM     57  C   UNL     1      27.602   1.435 190.312  0.00  0.00    +0.000 A 
ATOM     58  C   UNL     1      27.265   2.857 190.315  0.00  0.00    +0.000 A 
ATOM     59  C   UNL     1      26.734   0.802 189.370  0.00  0.00    +0.000 A 
ATOM     60  C   UNL     1      26.273   3.505 189.537  0.00  0.00    +0.000 A 
ATOM     61  C   UNL     1      25.732   1.435 188.582  0.00  0.00    +0.000 A 
ATOM     62  C   UNL     1      25.501   2.787 188.661  0.00  0.00    +0.000 A 
ENDBRANCH  56  57
ENDBRANCH  54  56
ENDBRANCH   7  54
BRANCH   4  63
ATOM     63  O   UNL     1      30.529   2.949 190.053  0.00  0.00    +0.000 OA
BRANCH  63  65
ATOM     64  O   UNL     1      30.091   2.054 188.051  0.00  0.00    +0.000 OA
ATOM     65  C   UNL     1      30.261   3.064 188.732  0.00  0.00    +0.000 C 
ATOM     66  C   UNL     1      30.291   4.415 188.092  0.00  0.00    +0.000 C 
ENDBRANCH  63  65
ENDBRANCH   4  63
TORSDOF 17
ENDMDL
MODEL 8
REMARK VINA RESULT:      -8.2      2.163      6.408
REMARK  Name = 
REMARK  23 active torsions:
REMARK  status: ('A' for Active; 'I' for Inactive)
REMARK    1  A    between atoms: O_2  and  C_17
REMARK    2  A    between atoms: O_2  and  C_36
REMARK    3  A    between atoms: O_3  and  C_20
REMARK    4  A    between atoms: O_3  and  C_37
REMARK    5  A    between atoms: O_4  and  C_21
REMARK    6  A    between atoms: O_5  and  C_22
REMARK    7  A    between atoms: O_6  and  C_30
REMARK    8  A    between atoms: O_6  and  C_39
REMARK    9  A    between atoms: O_8  and  C_31
REMARK   10  A    between atoms: O_8  and  C_40
REMARK   11  A    between atoms: O_13  and  C_42
REMARK   12  A    between atoms: N_15  and  C_46
REMARK   13  A    between atoms: C_18  and  C_29
REMARK   14  A    between atoms: C_24  and  C_33
REMARK   15  A    between atoms: C_24  and  C_34
REMARK   16  A    between atoms: C_32  and  C_35
REMARK   17  A    between atoms: C_36  and  C_38
REMARK   18  A    between atoms: C_37  and  C_41
REMARK   19  A    between atoms: C_39  and  C_43
REMARK   20  A    between atoms: C_40  and  C_42
REMARK   21  A    between atoms: C_42  and  C_46
REMARK   22  A    between atoms: C_46  and  C_50
REMARK   23  A    between atoms: C_53  and  C_56
REMARK                            x       y       z     vdW  Elec       q    Type
REMARK                         _______ _______ _______ _____ _____    ______ ____
ROOT
ATOM      1  O   UNL     1      32.592  -0.503 193.518  0.00  0.00    +0.000 OA
ATOM      2  O   UNL     1      28.697   2.657 197.912  0.00  0.00    +0.000 OA
ATOM      3  C   UNL     1      29.447  -0.412 194.912  0.00  0.00    +0.000 C 
ATOM      4  C   UNL     1      30.472  -0.313 193.744  0.00  0.00    +0.000 C 
ATOM      5  C   UNL     1      29.332   1.312 195.695  0.00  0.00    +0.000 C 
ATOM      6  C   UNL     1      31.761  -0.064 194.628  0.00  0.00    +0.000 C 
ATOM      7  C   UNL     1      27.929  -1.381 194.427  0.00  0.00    +0.000 C 
ATOM      8  C   UNL     1      26.248  -1.937 195.100  0.00  0.00    +0.000 C 
ATOM      9  C   UNL     1      30.807   1.610 196.195  0.00  0.00    +0.000 C 
ATOM     10  C   UNL     1      31.938   1.341 195.157  0.00  0.00    +0.000 C 
ATOM     11  C   UNL     1      25.413  -1.400 196.570  0.00  0.00    +0.000 C 
ATOM     12  C   UNL     1      31.466  -1.394 193.161  0.00  0.00    +0.000 C 
ATOM     13  C   UNL     1      28.195   1.859 197.091  0.00  0.00    +0.000 C 
ATOM     14  C   UNL     1      25.174  -1.500 194.002  0.00  0.00    +0.000 C 
ATOM     15  C   UNL     1      25.261   0.197 196.621  0.00  0.00    +0.000 C 
ATOM     16  C   UNL     1      29.086   2.453 194.622  0.00  0.00    +0.000 C 
ATOM     17  C   UNL     1      26.378   1.341 197.442  0.00  0.00    +0.000 C 
ATOM     18  C   UNL     1      24.398  -0.121 194.206  0.00  0.00    +0.000 C 
ATOM     19  C   UNL     1      24.524   0.669 195.560  0.00  0.00    +0.000 C 
ATOM     20  C   UNL     1      23.926  -2.017 196.496  0.00  0.00    +0.000 C 
ATOM     21  C   UNL     1      25.769  -2.068 197.937  0.00  0.00    +0.000 C 
ATOM     22  C   UNL     1      24.008   2.086 195.499  0.00  0.00    +0.000 C 
ENDROOT
BRANCH   9  23
ATOM     23  O   UNL     1      31.086   0.796 197.334  0.00  0.00    +0.000 OA
ATOM     24  H   UNL     1      30.285   0.823 197.895  0.00  0.00    +0.000 HD
ENDBRANCH   9  23
BRANCH   8  25
ATOM     25  O   UNL     1      26.285  -3.377 195.090  0.00  0.00    +0.000 OA
ATOM     26  H   UNL     1      25.466  -3.713 195.494  0.00  0.00    +0.000 HD
ENDBRANCH   8  25
BRANCH  18  27
ATOM     27  O   UNL     1      24.824   0.794 193.154  0.00  0.00    +0.000 OA
BRANCH  27  29
ATOM     28  O   UNL     1      23.286   0.102 191.645  0.00  0.00    +0.000 OA
ATOM     29  C   UNL     1      23.951   1.008 192.136  0.00  0.00    +0.000 C 
BRANCH  29  30
ATOM     30  C   UNL     1      23.989   2.425 191.555  0.00  0.00    +0.000 C 
BRANCH  30  31
ATOM     31  O   UNL     1      23.870   3.483 192.513  0.00  0.00    +0.000 OA
ATOM     32  H   UNL     1      22.982   3.865 192.384  0.00  0.00    +0.000 HD
ENDBRANCH  30  31
BRANCH  30  33
ATOM     33  C   UNL     1      22.873   2.535 190.479  0.00  0.00    +0.000 C 
BRANCH  33  34
ATOM     34  C   UNL     1      23.343   3.381 189.304  0.00  0.00    +0.000 A 
ATOM     35  C   UNL     1      23.647   4.738 189.507  0.00  0.00    +0.000 A 
ATOM     36  C   UNL     1      23.454   2.856 188.006  0.00  0.00    +0.000 A 
ATOM     37  C   UNL     1      24.067   5.542 188.446  0.00  0.00    +0.000 A 
ATOM     38  C   UNL     1      23.876   3.661 186.947  0.00  0.00    +0.000 A 
ATOM     39  C   UNL     1      24.184   5.003 187.167  0.00  0.00    +0.000 A 
ENDBRANCH  33  34
BRANCH  33  41
ATOM     40  O   UNL     1      19.413   3.293 191.208  0.00  0.00    +0.000 OA
ATOM     41  N   UNL     1      21.647   3.088 191.068  0.00  0.00    +0.000 N 
ATOM     42  C   UNL     1      20.413   3.245 190.498  0.00  0.00    +0.000 C 
ATOM     43  H   UNL     1      21.631   3.099 192.083  0.00  0.00    +0.000 HD
BRANCH  42  44
ATOM     44  C   UNL     1      20.269   3.311 189.026  0.00  0.00    +0.000 A 
ATOM     45  C   UNL     1      20.328   4.529 188.341  0.00  0.00    +0.000 A 
ATOM     46  C   UNL     1      19.999   2.129 188.327  0.00  0.00    +0.000 A 
ATOM     47  C   UNL     1      20.178   4.554 186.954  0.00  0.00    +0.000 A 
ATOM     48  C   UNL     1      19.846   2.157 186.941  0.00  0.00    +0.000 A 
ATOM     49  C   UNL     1      19.946   3.369 186.255  0.00  0.00    +0.000 A 
ENDBRANCH  42  44
ENDBRANCH  33  41
ENDBRANCH  30  33
ENDBRANCH  29  30
ENDBRANCH  27  29
ENDBRANCH  18  27
BRANCH  17  50
ATOM     50  O   UNL     1      26.132   1.105 198.845  0.00  0.00    +0.000 OA
BRANCH  50  52
ATOM     51  O   UNL     1      26.266   2.461 200.621  0.00  0.00    +0.000 OA
ATOM     52  C   UNL     1      25.612   2.041 199.671  0.00  0.00    +0.000 C 
ATOM     53  C   UNL     1      24.195   2.472 199.438  0.00  0.00    +0.000 C 
ENDBRANCH  50  52
ENDBRANCH  17  50
BRANCH   7  54
ATOM     54  O   UNL     1      27.391  -0.215 194.137  0.00  0.00    +0.000 OA
BRANCH  54  56
ATOM     55  O   UNL     1      27.806  -1.671 192.816  0.00  0.00    +0.000 OA
ATOM     56  C   UNL     1      27.460  -0.494 192.793  0.00  0.00    +0.000 C 
BRANCH  56  57
ATOM     57  C   UNL     1      27.350   0.827 191.412  0.00  0.00    +0.000 A 
ATOM     58  C   UNL     1      26.956   0.572 190.029  0.00  0.00    +0.000 A 
ATOM     59  C   UNL     1      27.501   2.241 191.549  0.00  0.00    +0.000 A 
ATOM     60  C   UNL     1      26.753   1.530 189.004  0.00  0.00    +0.000 A 
ATOM     61  C   UNL     1      27.303   3.218 190.533  0.00  0.00    +0.000 A 
ATOM     62  C   UNL     1      26.925   2.866 189.260  0.00  0.00    +0.000 A 
ENDBRANCH  56  57
ENDBRANCH  54  56
ENDBRANCH   7  54
BRANCH   4  63
ATOM     63  O   UNL     1      30.159   0.763 192.829  0.00  0.00    +0.000 OA
BRANCH  63  65
ATOM     64  O   UNL     1      31.608   2.016 191.675  0.00  0.00    +0.000 OA
ATOM     65  C   UNL     1      30.858   1.042 191.705  0.00  0.00    +0.000 C 
ATOM     66  C   UNL     1      30.620   0.231 190.472  0.00  0.00    +0.000 C 
ENDBRANCH  63  65
ENDBRANCH   4  63
TORSDOF 17
ENDMDL
MODEL 9
REMARK VINA RESULT:      -7.7      3.442      8.769
REMARK  Name = 
REMARK  23 active torsions:
REMARK  status: ('A' for Active; 'I' for Inactive)
REMARK    1  A    between atoms: O_2  and  C_17
REMARK    2  A    between atoms: O_2  and  C_36
REMARK    3  A    between atoms: O_3  and  C_20
REMARK    4  A    between atoms: O_3  and  C_37
REMARK    5  A    between atoms: O_4  and  C_21
REMARK    6  A    between atoms: O_5  and  C_22
REMARK    7  A    between atoms: O_6  and  C_30
REMARK    8  A    between atoms: O_6  and  C_39
REMARK    9  A    between atoms: O_8  and  C_31
REMARK   10  A    between atoms: O_8  and  C_40
REMARK   11  A    between atoms: O_13  and  C_42
REMARK   12  A    between atoms: N_15  and  C_46
REMARK   13  A    between atoms: C_18  and  C_29
REMARK   14  A    between atoms: C_24  and  C_33
REMARK   15  A    between atoms: C_24  and  C_34
REMARK   16  A    between atoms: C_32  and  C_35
REMARK   17  A    between atoms: C_36  and  C_38
REMARK   18  A    between atoms: C_37  and  C_41
REMARK   19  A    between atoms: C_39  and  C_43
REMARK   20  A    between atoms: C_40  and  C_42
REMARK   21  A    between atoms: C_42  and  C_46
REMARK   22  A    between atoms: C_46  and  C_50
REMARK   23  A    between atoms: C_53  and  C_56
REMARK                            x       y       z     vdW  Elec       q    Type
REMARK                         _______ _______ _______ _____ _____    ______ ____
ROOT
ATOM      1  O   UNL     1      27.020   1.394 189.833  0.00  0.00    +0.000 OA
ATOM      2  O   UNL     1      27.159   4.009 195.964  0.00  0.00    +0.000 OA
ATOM      3  C   UNL     1      26.329   0.790 193.149  0.00  0.00    +0.000 C 
ATOM      4  C   UNL     1      25.966   0.966 191.645  0.00  0.00    +0.000 C 
ATOM      5  C   UNL     1      26.275   2.515 193.938  0.00  0.00    +0.000 C 
ATOM      6  C   UNL     1      27.262   1.767 191.217  0.00  0.00    +0.000 C 
ATOM      7  C   UNL     1      25.458  -0.673 193.910  0.00  0.00    +0.000 C 
ATOM      8  C   UNL     1      25.240  -1.573 195.563  0.00  0.00    +0.000 C 
ATOM      9  C   UNL     1      27.363   3.342 193.135  0.00  0.00    +0.000 C 
ATOM     10  C   UNL     1      27.283   3.234 191.582  0.00  0.00    +0.000 C 
ATOM     11  C   UNL     1      25.720  -1.040 197.185  0.00  0.00    +0.000 C 
ATOM     12  C   UNL     1      26.435   0.149 190.378  0.00  0.00    +0.000 C 
ATOM     13  C   UNL     1      26.530   2.951 195.750  0.00  0.00    +0.000 C 
ATOM     14  C   UNL     1      23.663  -1.712 195.778  0.00  0.00    +0.000 C 
ATOM     15  C   UNL     1      25.130   0.412 197.535  0.00  0.00    +0.000 C 
ATOM     16  C   UNL     1      24.931   3.290 193.612  0.00  0.00    +0.000 C 
ATOM     17  C   UNL     1      25.979   1.981 197.315  0.00  0.00    +0.000 C 
ATOM     18  C   UNL     1      22.922  -0.625 196.681  0.00  0.00    +0.000 C 
ATOM     19  C   UNL     1      23.755   0.417 197.515  0.00  0.00    +0.000 C 
ATOM     20  C   UNL     1      25.060  -2.083 198.219  0.00  0.00    +0.000 C 
ATOM     21  C   UNL     1      27.188  -1.283 197.665  0.00  0.00    +0.000 C 
ATOM     22  C   UNL     1      22.942   1.566 198.057  0.00  0.00    +0.000 C 
ENDROOT
BRANCH   9  23
ATOM     23  O   UNL     1      28.663   2.894 193.515  0.00  0.00    +0.000 OA
ATOM     24  H   UNL     1      28.635   2.758 194.484  0.00  0.00    +0.000 HD
ENDBRANCH   9  23
BRANCH   8  25
ATOM     25  O   UNL     1      25.744  -2.905 195.347  0.00  0.00    +0.000 OA
ATOM     26  H   UNL     1      26.712  -2.861 195.247  0.00  0.00    +0.000 HD
ENDBRANCH   8  25
BRANCH  18  27
ATOM     27  O   UNL     1      22.040   0.151 195.817  0.00  0.00    +0.000 OA
BRANCH  27  29
ATOM     28  O   UNL     1      19.868   0.769 195.679  0.00  0.00    +0.000 OA
ATOM     29  C   UNL     1      20.708  -0.090 195.925  0.00  0.00    +0.000 C 
BRANCH  29  30
ATOM     30  C   UNL     1      20.356  -1.453 196.529  0.00  0.00    +0.000 C 
BRANCH  30  31
ATOM     31  O   UNL     1      19.938  -2.450 195.588  0.00  0.00    +0.000 OA
ATOM     32  H   UNL     1      20.377  -2.227 194.746  0.00  0.00    +0.000 HD
ENDBRANCH  30  31
BRANCH  30  33
ATOM     33  C   UNL     1      19.265  -1.234 197.612  0.00  0.00    +0.000 C 
BRANCH  33  34
ATOM     34  C   UNL     1      19.844  -0.511 198.820  0.00  0.00    +0.000 A 
ATOM     35  C   UNL     1      20.801  -1.160 199.620  0.00  0.00    +0.000 A 
ATOM     36  C   UNL     1      19.430   0.780 199.185  0.00  0.00    +0.000 A 
ATOM     37  C   UNL     1      21.341  -0.529 200.741  0.00  0.00    +0.000 A 
ATOM     38  C   UNL     1      19.973   1.410 200.305  0.00  0.00    +0.000 A 
ATOM     39  C   UNL     1      20.929   0.758 201.081  0.00  0.00    +0.000 A 
ENDBRANCH  33  34
BRANCH  33  41
ATOM     40  O   UNL     1      16.929  -3.816 198.589  0.00  0.00    +0.000 OA
ATOM     41  N   UNL     1      18.666  -2.517 198.004  0.00  0.00    +0.000 N 
ATOM     42  C   UNL     1      17.525  -2.751 198.721  0.00  0.00    +0.000 C 
ATOM     43  H   UNL     1      18.973  -3.314 197.454  0.00  0.00    +0.000 HD
BRANCH  42  44
ATOM     44  C   UNL     1      16.976  -1.711 199.620  0.00  0.00    +0.000 A 
ATOM     45  C   UNL     1      17.315  -1.666 200.976  0.00  0.00    +0.000 A 
ATOM     46  C   UNL     1      16.044  -0.804 199.102  0.00  0.00    +0.000 A 
ATOM     47  C   UNL     1      16.770  -0.677 201.796  0.00  0.00    +0.000 A 
ATOM     48  C   UNL     1      15.498   0.181 199.924  0.00  0.00    +0.000 A 
ATOM     49  C   UNL     1      15.870   0.250 201.268  0.00  0.00    +0.000 A 
ENDBRANCH  42  44
ENDBRANCH  33  41
ENDBRANCH  30  33
ENDBRANCH  29  30
ENDBRANCH  27  29
ENDBRANCH  18  27
BRANCH  17  50
ATOM     50  O   UNL     1      26.995   1.962 198.340  0.00  0.00    +0.000 OA
BRANCH  50  52
ATOM     51  O   UNL     1      28.002   2.917 200.096  0.00  0.00    +0.000 OA
ATOM     52  C   UNL     1      27.008   2.824 199.382  0.00  0.00    +0.000 C 
ATOM     53  C   UNL     1      25.749   3.581 199.682  0.00  0.00    +0.000 C 
ENDBRANCH  50  52
ENDBRANCH  17  50
BRANCH   7  54
ATOM     54  O   UNL     1      24.543   0.191 194.297  0.00  0.00    +0.000 OA
BRANCH  54  56
ATOM     55  O   UNL     1      24.298  -1.242 192.911  0.00  0.00    +0.000 OA
ATOM     56  C   UNL     1      23.651  -0.312 193.380  0.00  0.00    +0.000 C 
BRANCH  56  57
ATOM     57  C   UNL     1      22.023   0.558 192.874  0.00  0.00    +0.000 A 
ATOM     58  C   UNL     1      21.768   1.994 192.970  0.00  0.00    +0.000 A 
ATOM     59  C   UNL     1      20.894  -0.023 192.221  0.00  0.00    +0.000 A 
ATOM     60  C   UNL     1      20.628   2.695 192.506  0.00  0.00    +0.000 A 
ATOM     61  C   UNL     1      19.739   0.664 191.749  0.00  0.00    +0.000 A 
ATOM     62  C   UNL     1      19.605   2.024 191.888  0.00  0.00    +0.000 A 
ENDBRANCH  56  57
ENDBRANCH  54  56
ENDBRANCH   7  54
BRANCH   4  63
ATOM     63  O   UNL     1      24.728   1.692 191.461  0.00  0.00    +0.000 OA
BRANCH  63  65
ATOM     64  O   UNL     1      24.212   3.036 189.750  0.00  0.00    +0.000 OA
ATOM     65  C   UNL     1      24.144   1.920 190.263  0.00  0.00    +0.000 C 
ATOM     66  C   UNL     1      23.319   0.845 189.631  0.00  0.00    +0.000 C 
ENDBRANCH  63  65
ENDBRANCH   4  63
TORSDOF 17
ENDMDL
