MODEL 1
REMARK VINA RESULT:      -9.7      0.000      0.000
REMARK  Name = 
REMARK  5 active torsions:
REMARK  status: ('A' for Active; 'I' for Inactive)
REMARK    1  A    between atoms: O_1  and  C_16
REMARK    2  A    between atoms: O_3  and  C_25
REMARK    3  A    between atoms: C_11  and  C_22
REMARK    4  A    between atoms: C_16  and  C_28
REMARK    5  A    between atoms: C_29  and  C_31
REMARK                            x       y       z     vdW  Elec       q    Type
REMARK                         _______ _______ _______ _____ _____    ______ ____
ROOT
ATOM      1  O   UNL     1      22.584  -1.538 197.778  0.00  0.00    +0.000 OA
ATOM      2  N   UNL     1      20.521   2.260 189.324  0.00  0.00    +0.000 NA
ATOM      3  C   UNL     1      20.979  -0.261 192.198  0.00  0.00    +0.000 C 
ATOM      4  C   UNL     1      22.190  -0.888 192.938  0.00  0.00    +0.000 C 
ATOM      5  C   UNL     1      20.353  -0.673 194.474  0.00  0.00    +0.000 C 
ATOM      6  C   UNL     1      21.886  -0.682 194.431  0.00  0.00    +0.000 C 
ATOM      7  C   UNL     1      21.377   0.804 191.158  0.00  0.00    +0.000 C 
ATOM      8  C   UNL     1      20.028   0.248 193.302  0.00  0.00    +0.000 C 
ATOM      9  C   UNL     1      19.801  -0.338 195.885  0.00  0.00    +0.000 C 
ATOM     10  C   UNL     1      22.454   0.220 190.217  0.00  0.00    +0.000 C 
ATOM     11  C   UNL     1      23.527  -0.279 192.526  0.00  0.00    +0.000 C 
ATOM     12  C   UNL     1      20.352  -1.442 196.838  0.00  0.00    +0.000 C 
ATOM     13  C   UNL     1      23.707  -0.230 191.011  0.00  0.00    +0.000 C 
ATOM     14  C   UNL     1      22.777   1.203 189.055  0.00  0.00    +0.000 C 
ATOM     15  C   UNL     1      22.475  -1.712 195.384  0.00  0.00    +0.000 C 
ATOM     16  C   UNL     1      20.155   1.280 190.361  0.00  0.00    +0.000 C 
ATOM     17  C   UNL     1      21.456   1.659 188.331  0.00  0.00    +0.000 C 
ATOM     18  C   UNL     1      18.254  -0.430 195.888  0.00  0.00    +0.000 C 
ATOM     19  C   UNL     1      21.879  -1.519 196.771  0.00  0.00    +0.000 C 
ATOM     20  C   UNL     1      20.219   1.080 196.348  0.00  0.00    +0.000 C 
ATOM     21  C   UNL     1      19.806  -1.314 198.260  0.00  0.00    +0.000 C 
ATOM     22  C   UNL     1      17.651  -0.364 197.294  0.00  0.00    +0.000 C 
ATOM     23  C   UNL     1      18.278  -1.373 198.256  0.00  0.00    +0.000 C 
ATOM     24  C   UNL     1      21.758   2.671 187.197  0.00  0.00    +0.000 C 
ATOM     25  C   UNL     1      19.282   2.745 188.682  0.00  0.00    +0.000 C 
ATOM     26  C   UNL     1      23.766   0.569 188.065  0.00  0.00    +0.000 C 
ATOM     27  C   UNL     1      19.543   3.810 187.612  0.00  0.00    +0.000 C 
ATOM     28  C   UNL     1      20.498   3.248 186.562  0.00  0.00    +0.000 C 
ATOM     29  C   UNL     1      20.062   5.115 188.223  0.00  0.00    +0.000 C 
ENDROOT
BRANCH  14  30
ATOM     30  O   UNL     1      23.413   2.364 189.616  0.00  0.00    +0.000 OA
ATOM     31  H   UNL     1      22.917   3.125 189.254  0.00  0.00    +0.000 HD
ENDBRANCH  14  30
BRANCH  23  32
ATOM     32  O   UNL     1      17.781  -1.114 199.565  0.00  0.00    +0.000 OA
ATOM     33  H   UNL     1      16.973  -0.580 199.476  0.00  0.00    +0.000 HD
ENDBRANCH  23  32
TORSDOF 2
ENDMDL
MODEL 2
REMARK VINA RESULT:      -9.5      5.356      9.316
REMARK  Name = 
REMARK  5 active torsions:
REMARK  status: ('A' for Active; 'I' for Inactive)
REMARK    1  A    between atoms: O_1  and  C_16
REMARK    2  A    between atoms: O_3  and  C_25
REMARK    3  A    between atoms: C_11  and  C_22
REMARK    4  A    between atoms: C_16  and  C_28
REMARK    5  A    between atoms: C_29  and  C_31
REMARK                            x       y       z     vdW  Elec       q    Type
REMARK                         _______ _______ _______ _____ _____    ______ ____
ROOT
ATOM      1  O   UNL     1      31.093  -0.805 190.436  0.00  0.00    +0.000 OA
ATOM      2  N   UNL     1      23.167   4.166 188.820  0.00  0.00    +0.000 NA
ATOM      3  C   UNL     1      26.300   2.711 190.521  0.00  0.00    +0.000 C 
ATOM      4  C   UNL     1      26.721   1.317 191.058  0.00  0.00    +0.000 C 
ATOM      5  C   UNL     1      28.667   2.469 190.241  0.00  0.00    +0.000 C 
ATOM      6  C   UNL     1      28.100   1.057 190.430  0.00  0.00    +0.000 C 
ATOM      7  C   UNL     1      24.927   2.712 189.821  0.00  0.00    +0.000 C 
ATOM      8  C   UNL     1      27.468   3.192 189.635  0.00  0.00    +0.000 C 
ATOM      9  C   UNL     1      30.022   2.468 189.484  0.00  0.00    +0.000 C 
ATOM     10  C   UNL     1      23.882   2.054 190.749  0.00  0.00    +0.000 C 
ATOM     11  C   UNL     1      25.715   0.218 190.731  0.00  0.00    +0.000 C 
ATOM     12  C   UNL     1      31.000   1.615 190.348  0.00  0.00    +0.000 C 
ATOM     13  C   UNL     1      24.285   0.600 191.107  0.00  0.00    +0.000 C 
ATOM     14  C   UNL     1      22.449   2.169 190.153  0.00  0.00    +0.000 C 
ATOM     15  C   UNL     1      29.043   0.168 191.227  0.00  0.00    +0.000 C 
ATOM     16  C   UNL     1      24.501   4.136 189.442  0.00  0.00    +0.000 C 
ATOM     17  C   UNL     1      22.130   3.660 189.763  0.00  0.00    +0.000 C 
ATOM     18  C   UNL     1      30.587   3.909 189.400  0.00  0.00    +0.000 C 
ATOM     19  C   UNL     1      30.433   0.218 190.608  0.00  0.00    +0.000 C 
ATOM     20  C   UNL     1      29.882   1.901 188.049  0.00  0.00    +0.000 C 
ATOM     21  C   UNL     1      32.422   1.606 189.787  0.00  0.00    +0.000 C 
ATOM     22  C   UNL     1      32.033   3.959 188.897  0.00  0.00    +0.000 C 
ATOM     23  C   UNL     1      32.965   3.032 189.676  0.00  0.00    +0.000 C 
ATOM     24  C   UNL     1      20.721   3.784 189.129  0.00  0.00    +0.000 C 
ATOM     25  C   UNL     1      22.883   5.551 188.390  0.00  0.00    +0.000 C 
ATOM     26  C   UNL     1      21.405   1.612 191.132  0.00  0.00    +0.000 C 
ATOM     27  C   UNL     1      21.532   5.690 187.683  0.00  0.00    +0.000 C 
ATOM     28  C   UNL     1      20.424   5.185 188.606  0.00  0.00    +0.000 C 
ATOM     29  C   UNL     1      21.521   4.977 186.328  0.00  0.00    +0.000 C 
ENDROOT
BRANCH  14  30
ATOM     30  O   UNL     1      22.396   1.365 188.962  0.00  0.00    +0.000 OA
ATOM     31  H   UNL     1      23.007   0.620 189.132  0.00  0.00    +0.000 HD
ENDBRANCH  14  30
BRANCH  23  32
ATOM     32  O   UNL     1      34.231   3.017 189.026  0.00  0.00    +0.000 OA
ATOM     33  H   UNL     1      34.159   2.436 188.249  0.00  0.00    +0.000 HD
ENDBRANCH  23  32
TORSDOF 2
ENDMDL
MODEL 3
REMARK VINA RESULT:      -7.7      6.499     10.644
REMARK  Name = 
REMARK  5 active torsions:
REMARK  status: ('A' for Active; 'I' for Inactive)
REMARK    1  A    between atoms: O_1  and  C_16
REMARK    2  A    between atoms: O_3  and  C_25
REMARK    3  A    between atoms: C_11  and  C_22
REMARK    4  A    between atoms: C_16  and  C_28
REMARK    5  A    between atoms: C_29  and  C_31
REMARK                            x       y       z     vdW  Elec       q    Type
REMARK                         _______ _______ _______ _____ _____    ______ ____
ROOT
ATOM      1  O   UNL     1      33.204   3.819 189.267  0.00  0.00    +0.000 OA
ATOM      2  N   UNL     1      24.805   0.201 191.822  0.00  0.00    +0.000 NA
ATOM      3  C   UNL     1      27.983   1.028 189.810  0.00  0.00    +0.000 C 
ATOM      4  C   UNL     1      28.552   2.291 189.110  0.00  0.00    +0.000 C 
ATOM      5  C   UNL     1      30.374   0.956 189.933  0.00  0.00    +0.000 C 
ATOM      6  C   UNL     1      29.993   2.411 189.630  0.00  0.00    +0.000 C 
ATOM      7  C   UNL     1      26.674   1.289 190.580  0.00  0.00    +0.000 C 
ATOM      8  C   UNL     1      29.133   0.472 190.676  0.00  0.00    +0.000 C 
ATOM      9  C   UNL     1      31.766   0.836 190.610  0.00  0.00    +0.000 C 
ATOM     10  C   UNL     1      25.667   1.998 189.648  0.00  0.00    +0.000 C 
ATOM     11  C   UNL     1      27.730   3.548 189.375  0.00  0.00    +0.000 C 
ATOM     12  C   UNL     1      32.788   1.456 189.610  0.00  0.00    +0.000 C 
ATOM     13  C   UNL     1      26.238   3.339 189.120  0.00  0.00    +0.000 C 
ATOM     14  C   UNL     1      24.276   2.145 190.331  0.00  0.00    +0.000 C 
ATOM     15  C   UNL     1      30.991   3.077 188.694  0.00  0.00    +0.000 C 
ATOM     16  C   UNL     1      26.085  -0.018 191.128  0.00  0.00    +0.000 C 
ATOM     17  C   UNL     1      23.784   0.758 190.890  0.00  0.00    +0.000 C 
ATOM     18  C   UNL     1      32.134  -0.656 190.811  0.00  0.00    +0.000 C 
ATOM     19  C   UNL     1      32.401   2.889 189.238  0.00  0.00    +0.000 C 
ATOM     20  C   UNL     1      31.803   1.551 191.984  0.00  0.00    +0.000 C 
ATOM     21  C   UNL     1      34.234   1.316 190.087  0.00  0.00    +0.000 C 
ATOM     22  C   UNL     1      33.590  -0.863 191.237  0.00  0.00    +0.000 C 
ATOM     23  C   UNL     1      34.584  -0.156 190.315  0.00  0.00    +0.000 C 
ATOM     24  C   UNL     1      22.419   0.896 191.610  0.00  0.00    +0.000 C 
ATOM     25  C   UNL     1      24.366  -1.081 192.407  0.00  0.00    +0.000 C 
ATOM     26  C   UNL     1      23.253   2.750 189.358  0.00  0.00    +0.000 C 
ATOM     27  C   UNL     1      23.060  -0.960 193.199  0.00  0.00    +0.000 C 
ATOM     28  C   UNL     1      21.971  -0.392 192.291  0.00  0.00    +0.000 C 
ATOM     29  C   UNL     1      23.240  -0.127 194.471  0.00  0.00    +0.000 C 
ENDROOT
BRANCH  14  30
ATOM     30  O   UNL     1      24.415   3.058 191.433  0.00  0.00    +0.000 OA
ATOM     31  H   UNL     1      23.643   3.656 191.367  0.00  0.00    +0.000 HD
ENDBRANCH  14  30
BRANCH  23  32
ATOM     32  O   UNL     1      35.882  -0.260 190.890  0.00  0.00    +0.000 OA
ATOM     33  H   UNL     1      36.369   0.554 190.673  0.00  0.00    +0.000 HD
ENDBRANCH  23  32
TORSDOF 2
ENDMDL
MODEL 4
REMARK VINA RESULT:      -7.4     31.960     34.599
REMARK  Name = 
REMARK  5 active torsions:
REMARK  status: ('A' for Active; 'I' for Inactive)
REMARK    1  A    between atoms: O_1  and  C_16
REMARK    2  A    between atoms: O_3  and  C_25
REMARK    3  A    between atoms: C_11  and  C_22
REMARK    4  A    between atoms: C_16  and  C_28
REMARK    5  A    between atoms: C_29  and  C_31
REMARK                            x       y       z     vdW  Elec       q    Type
REMARK                         _______ _______ _______ _____ _____    ______ ____
ROOT
ATOM      1  O   UNL     1      44.793 -18.361 191.120  0.00  0.00    +0.000 OA
ATOM      2  N   UNL     1      47.877 -23.923 184.070  0.00  0.00    +0.000 NA
ATOM      3  C   UNL     1      45.713 -22.427 186.881  0.00  0.00    +0.000 C 
ATOM      4  C   UNL     1      45.823 -22.321 188.426  0.00  0.00    +0.000 C 
ATOM      5  C   UNL     1      44.663 -20.391 187.584  0.00  0.00    +0.000 C 
ATOM      6  C   UNL     1      45.573 -20.836 188.735  0.00  0.00    +0.000 C 
ATOM      7  C   UNL     1      46.951 -23.060 186.218  0.00  0.00    +0.000 C 
ATOM      8  C   UNL     1      45.379 -21.005 186.385  0.00  0.00    +0.000 C 
ATOM      9  C   UNL     1      44.381 -18.865 187.607  0.00  0.00    +0.000 C 
ATOM     10  C   UNL     1      47.276 -24.398 186.918  0.00  0.00    +0.000 C 
ATOM     11  C   UNL     1      47.161 -22.813 188.968  0.00  0.00    +0.000 C 
ATOM     12  C   UNL     1      43.689 -18.574 188.973  0.00  0.00    +0.000 C 
ATOM     13  C   UNL     1      47.542 -24.190 188.431  0.00  0.00    +0.000 C 
ATOM     14  C   UNL     1      48.424 -25.151 186.185  0.00  0.00    +0.000 C 
ATOM     15  C   UNL     1      44.962 -20.527 190.094  0.00  0.00    +0.000 C 
ATOM     16  C   UNL     1      46.725 -23.270 184.715  0.00  0.00    +0.000 C 
ATOM     17  C   UNL     1      48.111 -25.277 184.647  0.00  0.00    +0.000 C 
ATOM     18  C   UNL     1      43.389 -18.489 186.477  0.00  0.00    +0.000 C 
ATOM     19  C   UNL     1      44.545 -19.064 190.143  0.00  0.00    +0.000 C 
ATOM     20  C   UNL     1      45.677 -18.035 187.432  0.00  0.00    +0.000 C 
ATOM     21  C   UNL     1      43.245 -17.117 189.107  0.00  0.00    +0.000 C 
ATOM     22  C   UNL     1      42.865 -17.054 186.590  0.00  0.00    +0.000 C 
ATOM     23  C   UNL     1      42.292 -16.740 187.972  0.00  0.00    +0.000 C 
ATOM     24  C   UNL     1      49.265 -25.989 183.897  0.00  0.00    +0.000 C 
ATOM     25  C   UNL     1      47.623 -23.988 182.617  0.00  0.00    +0.000 C 
ATOM     26  C   UNL     1      48.664 -26.529 186.821  0.00  0.00    +0.000 C 
ATOM     27  C   UNL     1      48.785 -24.610 181.836  0.00  0.00    +0.000 C 
ATOM     28  C   UNL     1      49.071 -26.006 182.385  0.00  0.00    +0.000 C 
ATOM     29  C   UNL     1      50.029 -23.718 181.856  0.00  0.00    +0.000 C 
ENDROOT
BRANCH  14  30
ATOM     30  O   UNL     1      49.631 -24.387 186.344  0.00  0.00    +0.000 OA
ATOM     31  H   UNL     1      49.727 -23.888 185.508  0.00  0.00    +0.000 HD
ENDBRANCH  14  30
BRANCH  23  32
ATOM     32  O   UNL     1      41.998 -15.348 188.030  0.00  0.00    +0.000 OA
ATOM     33  H   UNL     1      41.101 -15.249 188.393  0.00  0.00    +0.000 HD
ENDBRANCH  23  32
TORSDOF 2
ENDMDL
MODEL 5
REMARK VINA RESULT:      -7.3     33.745     36.062
REMARK  Name = 
REMARK  5 active torsions:
REMARK  status: ('A' for Active; 'I' for Inactive)
REMARK    1  A    between atoms: O_1  and  C_16
REMARK    2  A    between atoms: O_3  and  C_25
REMARK    3  A    between atoms: C_11  and  C_22
REMARK    4  A    between atoms: C_16  and  C_28
REMARK    5  A    between atoms: C_29  and  C_31
REMARK                            x       y       z     vdW  Elec       q    Type
REMARK                         _______ _______ _______ _____ _____    ______ ____
ROOT
ATOM      1  O   UNL     1      35.632 -26.705 177.234  0.00  0.00    +0.000 OA
ATOM      2  N   UNL     1      40.954 -21.250 171.570  0.00  0.00    +0.000 NA
ATOM      3  C   UNL     1      39.871 -23.800 174.245  0.00  0.00    +0.000 C 
ATOM      4  C   UNL     1      39.172 -23.723 175.629  0.00  0.00    +0.000 C 
ATOM      5  C   UNL     1      38.565 -25.785 174.551  0.00  0.00    +0.000 C 
ATOM      6  C   UNL     1      38.029 -24.748 175.547  0.00  0.00    +0.000 C 
ATOM      7  C   UNL     1      39.974 -22.438 173.531  0.00  0.00    +0.000 C 
ATOM      8  C   UNL     1      39.113 -24.883 173.450  0.00  0.00    +0.000 C 
ATOM      9  C   UNL     1      37.511 -26.868 174.199  0.00  0.00    +0.000 C 
ATOM     10  C   UNL     1      40.597 -21.404 174.493  0.00  0.00    +0.000 C 
ATOM     11  C   UNL     1      38.675 -22.323 175.974  0.00  0.00    +0.000 C 
ATOM     12  C   UNL     1      37.141 -27.565 175.543  0.00  0.00    +0.000 C 
ATOM     13  C   UNL     1      39.750 -21.255 175.783  0.00  0.00    +0.000 C 
ATOM     14  C   UNL     1      40.864 -20.052 173.770  0.00  0.00    +0.000 C 
ATOM     15  C   UNL     1      37.607 -25.388 176.861  0.00  0.00    +0.000 C 
ATOM     16  C   UNL     1      40.798 -22.552 172.242  0.00  0.00    +0.000 C 
ATOM     17  C   UNL     1      41.680 -20.286 172.443  0.00  0.00    +0.000 C 
ATOM     18  C   UNL     1      38.134 -27.933 173.261  0.00  0.00    +0.000 C 
ATOM     19  C   UNL     1      36.662 -26.548 176.580  0.00  0.00    +0.000 C 
ATOM     20  C   UNL     1      36.266 -26.259 173.507  0.00  0.00    +0.000 C 
ATOM     21  C   UNL     1      36.183 -28.741 175.349  0.00  0.00    +0.000 C 
ATOM     22  C   UNL     1      37.242 -29.164 173.073  0.00  0.00    +0.000 C 
ATOM     23  C   UNL     1      36.788 -29.775 174.398  0.00  0.00    +0.000 C 
ATOM     24  C   UNL     1      41.918 -18.953 171.690  0.00  0.00    +0.000 C 
ATOM     25  C   UNL     1      41.661 -21.467 170.292  0.00  0.00    +0.000 C 
ATOM     26  C   UNL     1      41.584 -19.067 174.703  0.00  0.00    +0.000 C 
ATOM     27  C   UNL     1      41.837 -20.178 169.483  0.00  0.00    +0.000 C 
ATOM     28  C   UNL     1      42.579 -19.147 170.330  0.00  0.00    +0.000 C 
ATOM     29  C   UNL     1      40.499 -19.642 168.966  0.00  0.00    +0.000 C 
ENDROOT
BRANCH  14  30
ATOM     30  O   UNL     1      39.594 -19.471 173.427  0.00  0.00    +0.000 OA
ATOM     31  H   UNL     1      38.960 -19.849 174.070  0.00  0.00    +0.000 HD
ENDBRANCH  14  30
BRANCH  23  32
ATOM     32  O   UNL     1      35.832 -30.792 174.119  0.00  0.00    +0.000 OA
ATOM     33  H   UNL     1      34.975 -30.359 173.961  0.00  0.00    +0.000 HD
ENDBRANCH  23  32
TORSDOF 2
ENDMDL
MODEL 6
REMARK VINA RESULT:      -7.2     12.221     14.097
REMARK  Name = 
REMARK  5 active torsions:
REMARK  status: ('A' for Active; 'I' for Inactive)
REMARK    1  A    between atoms: O_1  and  C_16
REMARK    2  A    between atoms: O_3  and  C_25
REMARK    3  A    between atoms: C_11  and  C_22
REMARK    4  A    between atoms: C_16  and  C_28
REMARK    5  A    between atoms: C_29  and  C_31
REMARK                            x       y       z     vdW  Elec       q    Type
REMARK                         _______ _______ _______ _____ _____    ______ ____
ROOT
ATOM      1  O   UNL     1       6.509   0.632 192.261  0.00  0.00    +0.000 OA
ATOM      2  N   UNL     1       9.506  -4.411 184.796  0.00  0.00    +0.000 NA
ATOM      3  C   UNL     1       9.266  -1.739 187.558  0.00  0.00    +0.000 C 
ATOM      4  C   UNL     1       8.322  -0.546 187.865  0.00  0.00    +0.000 C 
ATOM      5  C   UNL     1       9.110  -1.481 189.935  0.00  0.00    +0.000 C 
ATOM      6  C   UNL     1       7.909  -0.742 189.333  0.00  0.00    +0.000 C 
ATOM      7  C   UNL     1       8.831  -2.569 186.335  0.00  0.00    +0.000 C 
ATOM      8  C   UNL     1       9.369  -2.543 188.871  0.00  0.00    +0.000 C 
ATOM      9  C   UNL     1       8.863  -1.915 191.405  0.00  0.00    +0.000 C 
ATOM     10  C   UNL     1       8.602  -1.625 185.134  0.00  0.00    +0.000 C 
ATOM     11  C   UNL     1       7.122  -0.473 186.927  0.00  0.00    +0.000 C 
ATOM     12  C   UNL     1       8.593  -0.604 192.203  0.00  0.00    +0.000 C 
ATOM     13  C   UNL     1       7.520  -0.561 185.455  0.00  0.00    +0.000 C 
ATOM     14  C   UNL     1       8.311  -2.429 183.834  0.00  0.00    +0.000 C 
ATOM     15  C   UNL     1       7.573   0.523 190.110  0.00  0.00    +0.000 C 
ATOM     16  C   UNL     1       9.876  -3.640 185.995  0.00  0.00    +0.000 C 
ATOM     17  C   UNL     1       9.418  -3.524 183.602  0.00  0.00    +0.000 C 
ATOM     18  C   UNL     1      10.138  -2.577 191.987  0.00  0.00    +0.000 C 
ATOM     19  C   UNL     1       7.438   0.190 191.589  0.00  0.00    +0.000 C 
ATOM     20  C   UNL     1       7.684  -2.912 191.523  0.00  0.00    +0.000 C 
ATOM     21  C   UNL     1       8.435  -0.853 193.703  0.00  0.00    +0.000 C 
ATOM     22  C   UNL     1      10.062  -2.801 193.500  0.00  0.00    +0.000 C 
ATOM     23  C   UNL     1       9.683  -1.535 194.268  0.00  0.00    +0.000 C 
ATOM     24  C   UNL     1       9.120  -4.361 182.332  0.00  0.00    +0.000 C 
ATOM     25  C   UNL     1      10.503  -5.484 184.605  0.00  0.00    +0.000 C 
ATOM     26  C   UNL     1       8.194  -1.487 182.626  0.00  0.00    +0.000 C 
ATOM     27  C   UNL     1      10.189  -6.383 183.405  0.00  0.00    +0.000 C 
ATOM     28  C   UNL     1      10.087  -5.525 182.145  0.00  0.00    +0.000 C 
ATOM     29  C   UNL     1       8.927  -7.220 183.635  0.00  0.00    +0.000 C 
ENDROOT
BRANCH  14  30
ATOM     30  O   UNL     1       7.044  -3.088 183.991  0.00  0.00    +0.000 OA
ATOM     31  H   UNL     1       7.255  -4.043 184.017  0.00  0.00    +0.000 HD
ENDBRANCH  14  30
BRANCH  23  32
ATOM     32  O   UNL     1       9.467  -1.885 195.631  0.00  0.00    +0.000 OA
ATOM     33  H   UNL     1       8.518  -1.783 195.817  0.00  0.00    +0.000 HD
ENDBRANCH  23  32
TORSDOF 2
ENDMDL
MODEL 7
REMARK VINA RESULT:      -7.1     24.088     28.101
REMARK  Name = 
REMARK  5 active torsions:
REMARK  status: ('A' for Active; 'I' for Inactive)
REMARK    1  A    between atoms: O_1  and  C_16
REMARK    2  A    between atoms: O_3  and  C_25
REMARK    3  A    between atoms: C_11  and  C_22
REMARK    4  A    between atoms: C_16  and  C_28
REMARK    5  A    between atoms: C_29  and  C_31
REMARK                            x       y       z     vdW  Elec       q    Type
REMARK                         _______ _______ _______ _____ _____    ______ ____
ROOT
ATOM      1  O   UNL     1      20.209   5.191 162.166  0.00  0.00    +0.000 OA
ATOM      2  N   UNL     1      24.497   9.792 169.280  0.00  0.00    +0.000 NA
ATOM      3  C   UNL     1      22.279   9.002 166.232  0.00  0.00    +0.000 C 
ATOM      4  C   UNL     1      22.530   8.653 164.741  0.00  0.00    +0.000 C 
ATOM      5  C   UNL     1      20.535   7.537 165.488  0.00  0.00    +0.000 C 
ATOM      6  C   UNL     1      21.690   7.390 164.488  0.00  0.00    +0.000 C 
ATOM      7  C   UNL     1      23.572   9.127 167.062  0.00  0.00    +0.000 C 
ATOM      8  C   UNL     1      21.287   7.941 166.752  0.00  0.00    +0.000 C 
ATOM      9  C   UNL     1      19.611   6.291 165.513  0.00  0.00    +0.000 C 
ATOM     10  C   UNL     1      24.545  10.090 166.346  0.00  0.00    +0.000 C 
ATOM     11  C   UNL     1      24.005   8.446 164.413  0.00  0.00    +0.000 C 
ATOM     12  C   UNL     1      19.046   6.143 164.067  0.00  0.00    +0.000 C 
ATOM     13  C   UNL     1      24.885   9.586 164.920  0.00  0.00    +0.000 C 
ATOM     14  C   UNL     1      25.802  10.371 167.219  0.00  0.00    +0.000 C 
ATOM     15  C   UNL     1      21.188   7.193 163.066  0.00  0.00    +0.000 C 
ATOM     16  C   UNL     1      23.269   9.614 168.485  0.00  0.00    +0.000 C 
ATOM     17  C   UNL     1      25.380  10.823 168.667  0.00  0.00    +0.000 C 
ATOM     18  C   UNL     1      18.418   6.531 166.472  0.00  0.00    +0.000 C 
ATOM     19  C   UNL     1      20.174   6.057 163.038  0.00  0.00    +0.000 C 
ATOM     20  C   UNL     1      20.369   5.018 165.965  0.00  0.00    +0.000 C 
ATOM     21  C   UNL     1      18.023   5.012 163.951  0.00  0.00    +0.000 C 
ATOM     22  C   UNL     1      17.331   5.458 166.360  0.00  0.00    +0.000 C 
ATOM     23  C   UNL     1      16.862   5.236 164.922  0.00  0.00    +0.000 C 
ATOM     24  C   UNL     1      26.622  11.067 169.562  0.00  0.00    +0.000 C 
ATOM     25  C   UNL     1      24.111  10.154 170.658  0.00  0.00    +0.000 C 
ATOM     26  C   UNL     1      26.709  11.413 166.549  0.00  0.00    +0.000 C 
ATOM     27  C   UNL     1      25.316  10.318 171.590  0.00  0.00    +0.000 C 
ATOM     28  C   UNL     1      26.262  11.369 171.012  0.00  0.00    +0.000 C 
ATOM     29  C   UNL     1      26.025   8.985 171.846  0.00  0.00    +0.000 C 
ENDROOT
BRANCH  14  30
ATOM     30  O   UNL     1      26.553   9.149 167.325  0.00  0.00    +0.000 OA
ATOM     31  H   UNL     1      26.681   8.849 166.402  0.00  0.00    +0.000 HD
ENDBRANCH  14  30
BRANCH  23  32
ATOM     32  O   UNL     1      15.992   4.111 164.902  0.00  0.00    +0.000 OA
ATOM     33  H   UNL     1      15.080   4.441 164.817  0.00  0.00    +0.000 HD
ENDBRANCH  23  32
TORSDOF 2
ENDMDL
MODEL 8
REMARK VINA RESULT:      -7.0     29.685     30.666
REMARK  Name = 
REMARK  5 active torsions:
REMARK  status: ('A' for Active; 'I' for Inactive)
REMARK    1  A    between atoms: O_1  and  C_16
REMARK    2  A    between atoms: O_3  and  C_25
REMARK    3  A    between atoms: C_11  and  C_22
REMARK    4  A    between atoms: C_16  and  C_28
REMARK    5  A    between atoms: C_29  and  C_31
REMARK                            x       y       z     vdW  Elec       q    Type
REMARK                         _______ _______ _______ _____ _____    ______ ____
ROOT
ATOM      1  O   UNL     1       8.242 -28.312 179.364  0.00  0.00    +0.000 OA
ATOM      2  N   UNL     1      14.646 -21.417 178.100  0.00  0.00    +0.000 NA
ATOM      3  C   UNL     1      13.019 -24.887 178.473  0.00  0.00    +0.000 C 
ATOM      4  C   UNL     1      12.369 -25.685 179.635  0.00  0.00    +0.000 C 
ATOM      5  C   UNL     1      11.286 -26.274 177.570  0.00  0.00    +0.000 C 
ATOM      6  C   UNL     1      11.017 -26.158 179.075  0.00  0.00    +0.000 C 
ATOM      7  C   UNL     1      13.431 -23.455 178.866  0.00  0.00    +0.000 C 
ATOM      8  C   UNL     1      12.022 -24.965 177.298  0.00  0.00    +0.000 C 
ATOM      9  C   UNL     1      10.005 -26.612 176.762  0.00  0.00    +0.000 C 
ATOM     10  C   UNL     1      14.288 -23.506 180.150  0.00  0.00    +0.000 C 
ATOM     11  C   UNL     1      12.216 -24.869 180.914  0.00  0.00    +0.000 C 
ATOM     12  C   UNL     1       9.493 -27.977 177.315  0.00  0.00    +0.000 C 
ATOM     13  C   UNL     1      13.510 -24.165 181.318  0.00  0.00    +0.000 C 
ATOM     14  C   UNL     1      14.858 -22.101 180.502  0.00  0.00    +0.000 C 
ATOM     15  C   UNL     1      10.467 -27.454 179.655  0.00  0.00    +0.000 C 
ATOM     16  C   UNL     1      14.195 -22.769 177.726  0.00  0.00    +0.000 C 
ATOM     17  C   UNL     1      15.585 -21.471 179.256  0.00  0.00    +0.000 C 
ATOM     18  C   UNL     1      10.354 -26.802 175.264  0.00  0.00    +0.000 C 
ATOM     19  C   UNL     1       9.274 -27.913 178.828  0.00  0.00    +0.000 C 
ATOM     20  C   UNL     1       8.931 -25.503 176.890  0.00  0.00    +0.000 C 
ATOM     21  C   UNL     1       8.285 -28.507 176.543  0.00  0.00    +0.000 C 
ATOM     22  C   UNL     1       9.197 -27.385 174.447  0.00  0.00    +0.000 C 
ATOM     23  C   UNL     1       8.623 -28.663 175.059  0.00  0.00    +0.000 C 
ATOM     24  C   UNL     1      16.123 -20.054 179.578  0.00  0.00    +0.000 C 
ATOM     25  C   UNL     1      15.273 -20.791 176.918  0.00  0.00    +0.000 C 
ATOM     26  C   UNL     1      15.797 -22.182 181.715  0.00  0.00    +0.000 C 
ATOM     27  C   UNL     1      15.739 -19.356 177.181  0.00  0.00    +0.000 C 
ATOM     28  C   UNL     1      16.709 -19.348 178.361  0.00  0.00    +0.000 C 
ATOM     29  C   UNL     1      14.559 -18.404 177.401  0.00  0.00    +0.000 C 
ENDROOT
BRANCH  14  30
ATOM     30  O   UNL     1      13.757 -21.251 180.865  0.00  0.00    +0.000 OA
ATOM     31  H   UNL     1      14.162 -20.503 181.347  0.00  0.00    +0.000 HD
ENDBRANCH  14  30
BRANCH  23  32
ATOM     32  O   UNL     1       7.453 -29.023 174.333  0.00  0.00    +0.000 OA
ATOM     33  H   UNL     1       7.013 -29.744 174.816  0.00  0.00    +0.000 HD
ENDBRANCH  23  32
TORSDOF 2
ENDMDL
MODEL 9
REMARK VINA RESULT:      -6.9     22.778     24.321
REMARK  Name = 
REMARK  5 active torsions:
REMARK  status: ('A' for Active; 'I' for Inactive)
REMARK    1  A    between atoms: O_1  and  C_16
REMARK    2  A    between atoms: O_3  and  C_25
REMARK    3  A    between atoms: C_11  and  C_22
REMARK    4  A    between atoms: C_16  and  C_28
REMARK    5  A    between atoms: C_29  and  C_31
REMARK                            x       y       z     vdW  Elec       q    Type
REMARK                         _______ _______ _______ _____ _____    ______ ____
ROOT
ATOM      1  O   UNL     1      11.092 -12.552 177.318  0.00  0.00    +0.000 OA
ATOM      2  N   UNL     1      14.368 -20.774 180.756  0.00  0.00    +0.000 NA
ATOM      3  C   UNL     1      14.189 -17.151 179.462  0.00  0.00    +0.000 C 
ATOM      4  C   UNL     1      13.918 -16.478 178.090  0.00  0.00    +0.000 C 
ATOM      5  C   UNL     1      13.091 -15.056 179.843  0.00  0.00    +0.000 C 
ATOM      6  C   UNL     1      12.834 -15.427 178.377  0.00  0.00    +0.000 C 
ATOM      7  C   UNL     1      14.036 -18.685 179.436  0.00  0.00    +0.000 C 
ATOM      8  C   UNL     1      13.268 -16.435 180.472  0.00  0.00    +0.000 C 
ATOM      9  C   UNL     1      12.015 -14.091 180.408  0.00  0.00    +0.000 C 
ATOM     10  C   UNL     1      14.879 -19.261 178.276  0.00  0.00    +0.000 C 
ATOM     11  C   UNL     1      13.498 -17.467 177.007  0.00  0.00    +0.000 C 
ATOM     12  C   UNL     1      12.072 -12.811 179.519  0.00  0.00    +0.000 C 
ATOM     13  C   UNL     1      14.437 -18.668 176.914  0.00  0.00    +0.000 C 
ATOM     14  C   UNL     1      14.881 -20.817 178.303  0.00  0.00    +0.000 C 
ATOM     15  C   UNL     1      12.831 -14.202 177.474  0.00  0.00    +0.000 C 
ATOM     16  C   UNL     1      14.455 -19.304 180.776  0.00  0.00    +0.000 C 
ATOM     17  C   UNL     1      15.285 -21.345 179.730  0.00  0.00    +0.000 C 
ATOM     18  C   UNL     1      12.373 -13.683 181.860  0.00  0.00    +0.000 C 
ATOM     19  C   UNL     1      11.882 -13.155 178.041  0.00  0.00    +0.000 C 
ATOM     20  C   UNL     1      10.604 -14.730 180.401  0.00  0.00    +0.000 C 
ATOM     21  C   UNL     1      11.138 -11.709 180.017  0.00  0.00    +0.000 C 
ATOM     22  C   UNL     1      11.504 -12.542 182.396  0.00  0.00    +0.000 C 
ATOM     23  C   UNL     1      11.474 -11.332 181.461  0.00  0.00    +0.000 C 
ATOM     24  C   UNL     1      15.252 -22.894 179.783  0.00  0.00    +0.000 C 
ATOM     25  C   UNL     1      14.681 -21.278 182.108  0.00  0.00    +0.000 C 
ATOM     26  C   UNL     1      15.810 -21.378 177.215  0.00  0.00    +0.000 C 
ATOM     27  C   UNL     1      14.574 -22.803 182.215  0.00  0.00    +0.000 C 
ATOM     28  C   UNL     1      15.497 -23.447 181.183  0.00  0.00    +0.000 C 
ATOM     29  C   UNL     1      13.128 -23.284 182.073  0.00  0.00    +0.000 C 
ENDROOT
BRANCH  14  30
ATOM     30  O   UNL     1      13.549 -21.270 178.009  0.00  0.00    +0.000 OA
ATOM     31  H   UNL     1      12.965 -20.532 178.276  0.00  0.00    +0.000 HD
ENDBRANCH  14  30
BRANCH  23  32
ATOM     32  O   UNL     1      10.511 -10.408 181.956  0.00  0.00    +0.000 OA
ATOM     33  H   UNL     1      10.976  -9.582 182.176  0.00  0.00    +0.000 HD
ENDBRANCH  23  32
TORSDOF 2
ENDMDL
