MODEL 1
REMARK VINA RESULT:      -7.9      0.000      0.000
REMARK  Name = PhIP.pdbqt.pdb
REMARK  2 active torsions:
REMARK  status: ('A' for Active; 'I' for Inactive)
REMARK    1  A    between atoms: N_4  and  C_9
REMARK    2  A    between atoms: C_7  and  C_10
REMARK                            x       y       z     vdW  Elec       q    Type
REMARK                         _______ _______ _______ _____ _____    ______ ____
ROOT
ATOM      1  N   UNL     1      22.619   5.278 186.481  0.00  0.00    +0.000 N 
ATOM      2  N   UNL     1      21.820   4.256 184.483  0.00  0.00    +0.000 NA
ATOM      3  N   UNL     1      19.975   3.045 185.492  0.00  0.00    +0.000 NA
ATOM      4  C   UNL     1      21.514   4.559 186.822  0.00  0.00    +0.000 C 
ATOM      5  C   UNL     1      21.061   3.929 185.497  0.00  0.00    +0.000 C 
ATOM      6  C   UNL     1      19.912   3.128 187.970  0.00  0.00    +0.000 C 
ATOM      7  C   UNL     1      20.971   4.087 187.904  0.00  0.00    +0.000 C 
ATOM      8  C   UNL     1      22.770   5.045 185.112  0.00  0.00    +0.000 C 
ATOM      9  C   UNL     1      23.753   5.439 187.375  0.00  0.00    +0.000 C 
ATOM     10  C   UNL     1      19.637   2.808 186.596  0.00  0.00    +0.000 C 
ENDROOT
BRANCH   6  11
ATOM     11  C   UNL     1      19.217   2.648 189.149  0.00  0.00    +0.000 A 
ATOM     12  C   UNL     1      18.110   1.806 189.029  0.00  0.00    +0.000 A 
ATOM     13  C   UNL     1      19.645   3.017 190.426  0.00  0.00    +0.000 A 
ATOM     14  C   UNL     1      17.441   1.342 190.160  0.00  0.00    +0.000 A 
ATOM     15  C   UNL     1      18.979   2.557 191.561  0.00  0.00    +0.000 A 
ATOM     16  C   UNL     1      17.876   1.719 191.427  0.00  0.00    +0.000 A 
ENDBRANCH   6  11
BRANCH   8  17
ATOM     17  N   UNL     1      23.861   5.467 184.334  0.00  0.00    +0.000 NA
ATOM     18  H   UNL     1      24.320   4.712 183.836  0.00  0.00    +0.000 HD
ATOM     19  H   UNL     1      23.645   6.271 183.758  0.00  0.00    +0.000 HD
ENDBRANCH   8  17
TORSDOF 2
ENDMDL
MODEL 2
REMARK VINA RESULT:      -7.3      1.031      2.393
REMARK  Name = PhIP.pdbqt.pdb
REMARK  2 active torsions:
REMARK  status: ('A' for Active; 'I' for Inactive)
REMARK    1  A    between atoms: N_4  and  C_9
REMARK    2  A    between atoms: C_7  and  C_10
REMARK                            x       y       z     vdW  Elec       q    Type
REMARK                         _______ _______ _______ _____ _____    ______ ____
ROOT
ATOM      1  N   UNL     1      22.205   3.862 185.354  0.00  0.00    +0.000 N 
ATOM      2  N   UNL     1      23.483   5.397 186.653  0.00  0.00    +0.000 NA
ATOM      3  N   UNL     1      22.477   4.873 188.798  0.00  0.00    +0.000 NA
ATOM      4  C   UNL     1      21.819   3.697 186.650  0.00  0.00    +0.000 C 
ATOM      5  C   UNL     1      22.673   4.714 187.421  0.00  0.00    +0.000 C 
ATOM      6  C   UNL     1      20.523   3.349 188.682  0.00  0.00    +0.000 C 
ATOM      7  C   UNL     1      20.824   3.167 187.296  0.00  0.00    +0.000 C 
ATOM      8  C   UNL     1      23.157   4.883 185.408  0.00  0.00    +0.000 C 
ATOM      9  C   UNL     1      21.286   3.710 184.240  0.00  0.00    +0.000 C 
ATOM     10  C   UNL     1      21.537   4.254 189.150  0.00  0.00    +0.000 C 
ENDROOT
BRANCH   6  11
ATOM     11  C   UNL     1      19.482   2.705 189.459  0.00  0.00    +0.000 A 
ATOM     12  C   UNL     1      19.513   2.737 190.855  0.00  0.00    +0.000 A 
ATOM     13  C   UNL     1      18.428   2.042 188.826  0.00  0.00    +0.000 A 
ATOM     14  C   UNL     1      18.513   2.118 191.604  0.00  0.00    +0.000 A 
ATOM     15  C   UNL     1      17.426   1.421 189.570  0.00  0.00    +0.000 A 
ATOM     16  C   UNL     1      17.470   1.460 190.961  0.00  0.00    +0.000 A 
ENDBRANCH   6  11
BRANCH   8  17
ATOM     17  N   UNL     1      23.744   5.503 184.292  0.00  0.00    +0.000 NA
ATOM     18  H   UNL     1      23.222   6.302 183.951  0.00  0.00    +0.000 HD
ATOM     19  H   UNL     1      24.733   5.677 184.415  0.00  0.00    +0.000 HD
ENDBRANCH   8  17
TORSDOF 2
ENDMDL
MODEL 3
REMARK VINA RESULT:      -7.0      4.678      6.825
REMARK  Name = PhIP.pdbqt.pdb
REMARK  2 active torsions:
REMARK  status: ('A' for Active; 'I' for Inactive)
REMARK    1  A    between atoms: N_4  and  C_9
REMARK    2  A    between atoms: C_7  and  C_10
REMARK                            x       y       z     vdW  Elec       q    Type
REMARK                         _______ _______ _______ _____ _____    ______ ____
ROOT
ATOM      1  N   UNL     1      21.056  -0.025 192.508  0.00  0.00    +0.000 N 
ATOM      2  N   UNL     1      23.247  -0.888 192.148  0.00  0.00    +0.000 NA
ATOM      3  N   UNL     1      23.642   0.199 190.015  0.00  0.00    +0.000 NA
ATOM      4  C   UNL     1      21.504   0.515 191.341  0.00  0.00    +0.000 C 
ATOM      5  C   UNL     1      22.907  -0.086 191.173  0.00  0.00    +0.000 C 
ATOM      6  C   UNL     1      21.671   1.368 189.067  0.00  0.00    +0.000 C 
ATOM      7  C   UNL     1      21.001   1.113 190.304  0.00  0.00    +0.000 C 
ATOM      8  C   UNL     1      22.099  -0.857 192.923  0.00  0.00    +0.000 C 
ATOM      9  C   UNL     1      19.659  -0.355 192.731  0.00  0.00    +0.000 C 
ATOM     10  C   UNL     1      22.974   0.790 189.243  0.00  0.00    +0.000 C 
ENDROOT
BRANCH   6  11
ATOM     11  C   UNL     1      21.178   2.112 187.923  0.00  0.00    +0.000 A 
ATOM     12  C   UNL     1      22.055   2.554 186.930  0.00  0.00    +0.000 A 
ATOM     13  C   UNL     1      19.817   2.398 187.794  0.00  0.00    +0.000 A 
ATOM     14  C   UNL     1      21.583   3.269 185.830  0.00  0.00    +0.000 A 
ATOM     15  C   UNL     1      19.341   3.113 186.696  0.00  0.00    +0.000 A 
ATOM     16  C   UNL     1      20.226   3.548 185.714  0.00  0.00    +0.000 A 
ENDBRANCH   6  11
BRANCH   8  17
ATOM     17  N   UNL     1      22.045  -1.740 194.015  0.00  0.00    +0.000 NA
ATOM     18  H   UNL     1      21.988  -1.272 194.912  0.00  0.00    +0.000 HD
ATOM     19  H   UNL     1      21.362  -2.477 193.890  0.00  0.00    +0.000 HD
ENDBRANCH   8  17
TORSDOF 2
ENDMDL
MODEL 4
REMARK VINA RESULT:      -6.4      4.773      6.401
REMARK  Name = PhIP.pdbqt.pdb
REMARK  2 active torsions:
REMARK  status: ('A' for Active; 'I' for Inactive)
REMARK    1  A    between atoms: N_4  and  C_9
REMARK    2  A    between atoms: C_7  and  C_10
REMARK                            x       y       z     vdW  Elec       q    Type
REMARK                         _______ _______ _______ _____ _____    ______ ____
ROOT
ATOM      1  N   UNL     1      23.955   0.053 191.448  0.00  0.00    +0.000 N 
ATOM      2  N   UNL     1      26.142   0.400 190.569  0.00  0.00    +0.000 NA
ATOM      3  N   UNL     1      25.478   1.737 188.655  0.00  0.00    +0.000 NA
ATOM      4  C   UNL     1      23.816   0.850 190.352  0.00  0.00    +0.000 C 
ATOM      5  C   UNL     1      25.253   1.024 189.840  0.00  0.00    +0.000 C 
ATOM      6  C   UNL     1      23.029   1.885 188.294  0.00  0.00    +0.000 C 
ATOM      7  C   UNL     1      22.864   1.222 189.550  0.00  0.00    +0.000 C 
ATOM      8  C   UNL     1      25.327  -0.202 191.514  0.00  0.00    +0.000 C 
ATOM      9  C   UNL     1      22.959  -0.933 191.829  0.00  0.00    +0.000 C 
ATOM     10  C   UNL     1      24.452   1.999 188.136  0.00  0.00    +0.000 C 
ENDROOT
BRANCH   6  11
ATOM     11  C   UNL     1      21.994   2.399 187.416  0.00  0.00    +0.000 A 
ATOM     12  C   UNL     1      22.322   3.223 186.337  0.00  0.00    +0.000 A 
ATOM     13  C   UNL     1      20.653   2.078 187.633  0.00  0.00    +0.000 A 
ATOM     14  C   UNL     1      21.330   3.718 185.492  0.00  0.00    +0.000 A 
ATOM     15  C   UNL     1      19.657   2.570 186.792  0.00  0.00    +0.000 A 
ATOM     16  C   UNL     1      19.997   3.392 185.720  0.00  0.00    +0.000 A 
ENDBRANCH   6  11
BRANCH   8  17
ATOM     17  N   UNL     1      25.943  -1.098 192.404  0.00  0.00    +0.000 NA
ATOM     18  H   UNL     1      26.932  -1.232 192.224  0.00  0.00    +0.000 HD
ATOM     19  H   UNL     1      25.721  -0.905 193.372  0.00  0.00    +0.000 HD
ENDBRANCH   8  17
TORSDOF 2
ENDMDL
MODEL 5
REMARK VINA RESULT:      -6.3      2.619      4.355
REMARK  Name = PhIP.pdbqt.pdb
REMARK  2 active torsions:
REMARK  status: ('A' for Active; 'I' for Inactive)
REMARK    1  A    between atoms: N_4  and  C_9
REMARK    2  A    between atoms: C_7  and  C_10
REMARK                            x       y       z     vdW  Elec       q    Type
REMARK                         _______ _______ _______ _____ _____    ______ ____
ROOT
ATOM      1  N   UNL     1      19.580   2.423 187.977  0.00  0.00    +0.000 N 
ATOM      2  N   UNL     1      21.628   3.640 188.006  0.00  0.00    +0.000 NA
ATOM      3  N   UNL     1      22.213   3.174 190.314  0.00  0.00    +0.000 NA
ATOM      4  C   UNL     1      20.122   2.252 189.215  0.00  0.00    +0.000 C 
ATOM      5  C   UNL     1      21.425   3.063 189.162  0.00  0.00    +0.000 C 
ATOM      6  C   UNL     1      20.449   2.014 191.617  0.00  0.00    +0.000 C 
ATOM      7  C   UNL     1      19.728   1.863 190.391  0.00  0.00    +0.000 C 
ATOM      8  C   UNL     1      20.484   3.262 187.321  0.00  0.00    +0.000 C 
ATOM      9  C   UNL     1      18.146   2.493 187.755  0.00  0.00    +0.000 C 
ATOM     10  C   UNL     1      21.651   2.705 191.239  0.00  0.00    +0.000 C 
ENDROOT
BRANCH   6  11
ATOM     11  C   UNL     1      20.089   1.513 192.929  0.00  0.00    +0.000 A 
ATOM     12  C   UNL     1      18.874   0.854 193.130  0.00  0.00    +0.000 A 
ATOM     13  C   UNL     1      20.951   1.679 194.015  0.00  0.00    +0.000 A 
ATOM     14  C   UNL     1      18.526   0.371 194.390  0.00  0.00    +0.000 A 
ATOM     15  C   UNL     1      20.607   1.199 195.278  0.00  0.00    +0.000 A 
ATOM     16  C   UNL     1      19.392   0.544 195.464  0.00  0.00    +0.000 A 
ENDBRANCH   6  11
BRANCH   8  17
ATOM     17  N   UNL     1      20.283   3.835 186.054  0.00  0.00    +0.000 NA
ATOM     18  H   UNL     1      20.947   4.570 185.832  0.00  0.00    +0.000 HD
ATOM     19  H   UNL     1      20.173   3.144 185.323  0.00  0.00    +0.000 HD
ENDBRANCH   8  17
TORSDOF 2
ENDMDL
MODEL 6
REMARK VINA RESULT:      -6.3      3.886      4.421
REMARK  Name = PhIP.pdbqt.pdb
REMARK  2 active torsions:
REMARK  status: ('A' for Active; 'I' for Inactive)
REMARK    1  A    between atoms: N_4  and  C_9
REMARK    2  A    between atoms: C_7  and  C_10
REMARK                            x       y       z     vdW  Elec       q    Type
REMARK                         _______ _______ _______ _____ _____    ______ ____
ROOT
ATOM      1  N   UNL     1      24.662   0.821 188.699  0.00  0.00    +0.000 N 
ATOM      2  N   UNL     1      25.504   2.718 189.868  0.00  0.00    +0.000 NA
ATOM      3  N   UNL     1      23.437   3.305 190.998  0.00  0.00    +0.000 NA
ATOM      4  C   UNL     1      23.639   1.298 189.461  0.00  0.00    +0.000 C 
ATOM      5  C   UNL     1      24.249   2.513 190.176  0.00  0.00    +0.000 C 
ATOM      6  C   UNL     1      21.454   2.002 190.275  0.00  0.00    +0.000 C 
ATOM      7  C   UNL     1      22.346   1.181 189.516  0.00  0.00    +0.000 C 
ATOM      8  C   UNL     1      25.717   1.700 188.952  0.00  0.00    +0.000 C 
ATOM      9  C   UNL     1      24.448   0.213 187.397  0.00  0.00    +0.000 C 
ATOM     10  C   UNL     1      22.311   2.969 190.904  0.00  0.00    +0.000 C 
ENDROOT
BRANCH   6  11
ATOM     11  C   UNL     1      20.022   1.847 190.437  0.00  0.00    +0.000 A 
ATOM     12  C   UNL     1      19.195   1.669 189.326  0.00  0.00    +0.000 A 
ATOM     13  C   UNL     1      19.443   1.872 191.708  0.00  0.00    +0.000 A 
ATOM     14  C   UNL     1      17.818   1.519 189.479  0.00  0.00    +0.000 A 
ATOM     15  C   UNL     1      18.066   1.723 191.866  0.00  0.00    +0.000 A 
ATOM     16  C   UNL     1      17.253   1.547 190.750  0.00  0.00    +0.000 A 
ENDBRANCH   6  11
BRANCH   8  17
ATOM     17  N   UNL     1      26.952   1.697 188.282  0.00  0.00    +0.000 NA
ATOM     18  H   UNL     1      27.329   0.768 188.131  0.00  0.00    +0.000 HD
ATOM     19  H   UNL     1      26.952   2.282 187.456  0.00  0.00    +0.000 HD
ENDBRANCH   8  17
TORSDOF 2
ENDMDL
MODEL 7
REMARK VINA RESULT:      -6.1     22.016     23.954
REMARK  Name = PhIP.pdbqt.pdb
REMARK  2 active torsions:
REMARK  status: ('A' for Active; 'I' for Inactive)
REMARK    1  A    between atoms: N_4  and  C_9
REMARK    2  A    between atoms: C_7  and  C_10
REMARK                            x       y       z     vdW  Elec       q    Type
REMARK                         _______ _______ _______ _____ _____    ______ ____
ROOT
ATOM      1  N   UNL     1      11.562 -16.671 181.317  0.00  0.00    +0.000 N 
ATOM      2  N   UNL     1      12.792 -14.659 181.655  0.00  0.00    +0.000 NA
ATOM      3  N   UNL     1      14.602 -15.161 180.118  0.00  0.00    +0.000 NA
ATOM      4  C   UNL     1      12.639 -16.724 180.485  0.00  0.00    +0.000 C 
ATOM      5  C   UNL     1      13.381 -15.408 180.759  0.00  0.00    +0.000 C 
ATOM      6  C   UNL     1      14.565 -17.461 179.190  0.00  0.00    +0.000 C 
ATOM      7  C   UNL     1      13.284 -17.623 179.805  0.00  0.00    +0.000 C 
ATOM      8  C   UNL     1      11.714 -15.460 181.996  0.00  0.00    +0.000 C 
ATOM      9  C   UNL     1      11.003 -17.855 181.948  0.00  0.00    +0.000 C 
ATOM     10  C   UNL     1      14.954 -16.120 179.529  0.00  0.00    +0.000 C 
ENDROOT
BRANCH   6  11
ATOM     11  C   UNL     1      15.275 -18.405 178.348  0.00  0.00    +0.000 A 
ATOM     12  C   UNL     1      16.406 -19.072 178.824  0.00  0.00    +0.000 A 
ATOM     13  C   UNL     1      14.840 -18.665 177.047  0.00  0.00    +0.000 A 
ATOM     14  C   UNL     1      17.090 -19.980 178.017  0.00  0.00    +0.000 A 
ATOM     15  C   UNL     1      15.520 -19.571 176.235  0.00  0.00    +0.000 A 
ATOM     16  C   UNL     1      16.646 -20.229 176.722  0.00  0.00    +0.000 A 
ENDBRANCH   6  11
BRANCH   8  17
ATOM     17  N   UNL     1      10.916 -15.027 183.068  0.00  0.00    +0.000 NA
ATOM     18  H   UNL     1      10.024 -14.640 182.779  0.00  0.00    +0.000 HD
ATOM     19  H   UNL     1      10.846 -15.713 183.809  0.00  0.00    +0.000 HD
ENDBRANCH   8  17
TORSDOF 2
ENDMDL
MODEL 8
REMARK VINA RESULT:      -6.0     33.727     35.255
REMARK  Name = PhIP.pdbqt.pdb
REMARK  2 active torsions:
REMARK  status: ('A' for Active; 'I' for Inactive)
REMARK    1  A    between atoms: N_4  and  C_9
REMARK    2  A    between atoms: C_7  and  C_10
REMARK                            x       y       z     vdW  Elec       q    Type
REMARK                         _______ _______ _______ _____ _____    ______ ____
ROOT
ATOM      1  N   UNL     1      39.396 -23.835 174.769  0.00  0.00    +0.000 N 
ATOM      2  N   UNL     1      38.690 -22.227 176.379  0.00  0.00    +0.000 NA
ATOM      3  N   UNL     1      38.924 -20.272 174.960  0.00  0.00    +0.000 NA
ATOM      4  C   UNL     1      39.409 -22.624 174.146  0.00  0.00    +0.000 C 
ATOM      5  C   UNL     1      38.952 -21.644 175.237  0.00  0.00    +0.000 C 
ATOM      6  C   UNL     1      39.995 -20.705 172.766  0.00  0.00    +0.000 C 
ATOM      7  C   UNL     1      39.924 -22.100 173.075  0.00  0.00    +0.000 C 
ATOM      8  C   UNL     1      38.996 -23.544 176.075  0.00  0.00    +0.000 C 
ATOM      9  C   UNL     1      40.355 -24.882 174.461  0.00  0.00    +0.000 C 
ATOM     10  C   UNL     1      39.410 -20.058 173.907  0.00  0.00    +0.000 C 
ENDROOT
BRANCH   6  11
ATOM     11  C   UNL     1      40.475 -20.087 171.545  0.00  0.00    +0.000 A 
ATOM     12  C   UNL     1      41.342 -18.993 171.594  0.00  0.00    +0.000 A 
ATOM     13  C   UNL     1      40.082 -20.576 170.297  0.00  0.00    +0.000 A 
ATOM     14  C   UNL     1      41.805 -18.397 170.422  0.00  0.00    +0.000 A 
ATOM     15  C   UNL     1      40.541 -19.984 169.122  0.00  0.00    +0.000 A 
ATOM     16  C   UNL     1      41.404 -18.894 169.186  0.00  0.00    +0.000 A 
ENDBRANCH   6  11
BRANCH   8  17
ATOM     17  N   UNL     1      38.970 -24.463 177.138  0.00  0.00    +0.000 NA
ATOM     18  H   UNL     1      39.887 -24.661 177.524  0.00  0.00    +0.000 HD
ATOM     19  H   UNL     1      38.269 -24.240 177.833  0.00  0.00    +0.000 HD
ENDBRANCH   8  17
TORSDOF 2
ENDMDL
MODEL 9
REMARK VINA RESULT:      -6.0      4.622      6.010
REMARK  Name = PhIP.pdbqt.pdb
REMARK  2 active torsions:
REMARK  status: ('A' for Active; 'I' for Inactive)
REMARK    1  A    between atoms: N_4  and  C_9
REMARK    2  A    between atoms: C_7  and  C_10
REMARK                            x       y       z     vdW  Elec       q    Type
REMARK                         _______ _______ _______ _____ _____    ______ ____
ROOT
ATOM      1  N   UNL     1      25.837   1.800 190.571  0.00  0.00    +0.000 N 
ATOM      2  N   UNL     1      24.579   0.584 192.188  0.00  0.00    +0.000 NA
ATOM      3  N   UNL     1      22.479   0.567 190.971  0.00  0.00    +0.000 NA
ATOM      4  C   UNL     1      24.589   1.631 190.051  0.00  0.00    +0.000 C 
ATOM      5  C   UNL     1      23.840   0.851 191.141  0.00  0.00    +0.000 C 
ATOM      6  C   UNL     1      22.459   1.959 188.918  0.00  0.00    +0.000 C 
ATOM      7  C   UNL     1      23.864   2.147 189.106  0.00  0.00    +0.000 C 
ATOM      8  C   UNL     1      25.769   1.196 191.828  0.00  0.00    +0.000 C 
ATOM      9  C   UNL     1      26.633   2.988 190.318  0.00  0.00    +0.000 C 
ATOM     10  C   UNL     1      22.064   1.118 190.015  0.00  0.00    +0.000 C 
ENDROOT
BRANCH   6  11
ATOM     11  C   UNL     1      21.633   2.439 187.827  0.00  0.00    +0.000 A 
ATOM     12  C   UNL     1      22.217   2.958 186.669  0.00  0.00    +0.000 A 
ATOM     13  C   UNL     1      20.240   2.391 187.913  0.00  0.00    +0.000 A 
ATOM     14  C   UNL     1      21.426   3.420 185.618  0.00  0.00    +0.000 A 
ATOM     15  C   UNL     1      19.445   2.852 186.866  0.00  0.00    +0.000 A 
ATOM     16  C   UNL     1      20.039   3.367 185.717  0.00  0.00    +0.000 A 
ENDBRANCH   6  11
BRANCH   8  17
ATOM     17  N   UNL     1      26.780   1.238 192.803  0.00  0.00    +0.000 NA
ATOM     18  H   UNL     1      26.460   0.983 193.731  0.00  0.00    +0.000 HD
ATOM     19  H   UNL     1      27.626   0.763 192.513  0.00  0.00    +0.000 HD
ENDBRANCH   8  17
TORSDOF 2
ENDMDL
