MODEL 1
REMARK VINA RESULT:      -8.1      0.000      0.000
REMARK  Name = Piroxicam.pdbqt.pdb
REMARK  3 active torsions:
REMARK  status: ('A' for Active; 'I' for Inactive)
REMARK    1  A    between atoms: C_7  and  C_14
REMARK    2  A    between atoms: C_8  and  O_24
REMARK    3  A    between atoms: N_16  and  C_18
REMARK                            x       y       z     vdW  Elec       q    Type
REMARK                         _______ _______ _______ _____ _____    ______ ____
ROOT
ATOM      1  S   UNL     1      23.211   3.038 188.755  0.00  0.00    +0.000 S 
ATOM      2  O   UNL     1      22.980   4.116 189.698  0.00  0.00    +0.000 OA
ATOM      3  O   UNL     1      24.458   2.950 188.021  0.00  0.00    +0.000 OA
ATOM      4  N   UNL     1      22.867   1.543 189.537  0.00  0.00    +0.000 N 
ATOM      5  C   UNL     1      21.903   3.113 187.592  0.00  0.00    +0.000 A 
ATOM      6  C   UNL     1      20.683   2.550 187.960  0.00  0.00    +0.000 A 
ATOM      7  C   UNL     1      21.521   1.449 190.027  0.00  0.00    +0.000 C 
ATOM      8  C   UNL     1      20.495   1.928 189.285  0.00  0.00    +0.000 C 
ATOM      9  C   UNL     1      22.120   3.692 186.347  0.00  0.00    +0.000 A 
ATOM     10  C   UNL     1      23.315   0.293 188.898  0.00  0.00    +0.000 C 
ATOM     11  C   UNL     1      19.637   2.618 187.037  0.00  0.00    +0.000 A 
ATOM     12  C   UNL     1      21.068   3.736 185.440  0.00  0.00    +0.000 A 
ATOM     13  C   UNL     1      19.826   3.206 185.785  0.00  0.00    +0.000 A 
ENDROOT
BRANCH   7  14
ATOM     14  C   UNL     1      21.288   0.829 191.372  0.00  0.00    +0.000 C 
ATOM     15  O   UNL     1      21.849  -0.229 191.654  0.00  0.00    +0.000 OA
ATOM     16  N   UNL     1      20.434   1.523 192.191  0.00  0.00    +0.000 N 
ATOM     17  H   UNL     1      20.065   2.423 191.906  0.00  0.00    +0.000 HD
BRANCH  16  18
ATOM     18  C   UNL     1      20.030   1.152 193.474  0.00  0.00    +0.000 A 
ATOM     19  N   UNL     1      20.911   1.465 194.446  0.00  0.00    +0.000 NA
ATOM     20  C   UNL     1      20.567   1.132 195.711  0.00  0.00    +0.000 A 
ATOM     21  C   UNL     1      19.385   0.501 196.058  0.00  0.00    +0.000 A 
ATOM     22  C   UNL     1      18.500   0.195 195.035  0.00  0.00    +0.000 A 
ATOM     23  C   UNL     1      18.819   0.522 193.722  0.00  0.00    +0.000 A 
ENDBRANCH  16  18
ENDBRANCH   7  14
BRANCH   8  24
ATOM     24  O   UNL     1      19.170   1.874 189.681  0.00  0.00    +0.000 OA
ATOM     25  H   UNL     1      19.120   1.738 190.655  0.00  0.00    +0.000 HD
ENDBRANCH   8  24
TORSDOF 3
ENDMDL
MODEL 2
REMARK VINA RESULT:      -7.8      2.205      3.073
REMARK  Name = Piroxicam.pdbqt.pdb
REMARK  3 active torsions:
REMARK  status: ('A' for Active; 'I' for Inactive)
REMARK    1  A    between atoms: C_7  and  C_14
REMARK    2  A    between atoms: C_8  and  O_24
REMARK    3  A    between atoms: N_16  and  C_18
REMARK                            x       y       z     vdW  Elec       q    Type
REMARK                         _______ _______ _______ _____ _____    ______ ____
ROOT
ATOM      1  S   UNL     1      21.403   2.268 187.790  0.00  0.00    +0.000 S 
ATOM      2  O   UNL     1      22.123   1.037 188.058  0.00  0.00    +0.000 OA
ATOM      3  O   UNL     1      20.519   2.374 186.646  0.00  0.00    +0.000 OA
ATOM      4  N   UNL     1      20.584   2.747 189.228  0.00  0.00    +0.000 N 
ATOM      5  C   UNL     1      22.611   3.528 187.660  0.00  0.00    +0.000 A 
ATOM      6  C   UNL     1      23.113   4.063 188.846  0.00  0.00    +0.000 A 
ATOM      7  C   UNL     1      21.462   2.959 190.343  0.00  0.00    +0.000 C 
ATOM      8  C   UNL     1      22.653   3.574 190.160  0.00  0.00    +0.000 C 
ATOM      9  C   UNL     1      23.009   3.976 186.406  0.00  0.00    +0.000 A 
ATOM     10  C   UNL     1      19.543   3.786 189.134  0.00  0.00    +0.000 C 
ATOM     11  C   UNL     1      24.083   5.061 188.742  0.00  0.00    +0.000 A 
ATOM     12  C   UNL     1      23.967   4.980 186.329  0.00  0.00    +0.000 A 
ATOM     13  C   UNL     1      24.508   5.518 187.494  0.00  0.00    +0.000 A 
ENDROOT
BRANCH   7  14
ATOM     14  C   UNL     1      21.035   2.472 191.696  0.00  0.00    +0.000 C 
ATOM     15  O   UNL     1      21.152   3.215 192.668  0.00  0.00    +0.000 OA
ATOM     16  N   UNL     1      20.542   1.193 191.723  0.00  0.00    +0.000 N 
ATOM     17  H   UNL     1      20.417   0.671 190.863  0.00  0.00    +0.000 HD
BRANCH  16  18
ATOM     18  C   UNL     1      20.105   0.495 192.850  0.00  0.00    +0.000 A 
ATOM     19  N   UNL     1      20.978  -0.425 193.306  0.00  0.00    +0.000 NA
ATOM     20  C   UNL     1      20.607  -1.129 194.400  0.00  0.00    +0.000 A 
ATOM     21  C   UNL     1      19.407  -0.958 195.067  0.00  0.00    +0.000 A 
ATOM     22  C   UNL     1      18.532  -0.001 194.574  0.00  0.00    +0.000 A 
ATOM     23  C   UNL     1      18.878   0.741 193.450  0.00  0.00    +0.000 A 
ENDBRANCH  16  18
ENDBRANCH   7  14
BRANCH   8  24
ATOM     24  O   UNL     1      23.556   3.821 191.181  0.00  0.00    +0.000 OA
ATOM     25  H   UNL     1      24.165   3.053 191.277  0.00  0.00    +0.000 HD
ENDBRANCH   8  24
TORSDOF 3
ENDMDL
MODEL 3
REMARK VINA RESULT:      -7.3      3.086      4.763
REMARK  Name = Piroxicam.pdbqt.pdb
REMARK  3 active torsions:
REMARK  status: ('A' for Active; 'I' for Inactive)
REMARK    1  A    between atoms: C_7  and  C_14
REMARK    2  A    between atoms: C_8  and  O_24
REMARK    3  A    between atoms: N_16  and  C_18
REMARK                            x       y       z     vdW  Elec       q    Type
REMARK                         _______ _______ _______ _____ _____    ______ ____
ROOT
ATOM      1  S   UNL     1      19.265   1.581 190.709  0.00  0.00    +0.000 S 
ATOM      2  O   UNL     1      18.946   0.167 190.654  0.00  0.00    +0.000 OA
ATOM      3  O   UNL     1      18.295   2.541 191.199  0.00  0.00    +0.000 OA
ATOM      4  N   UNL     1      20.766   1.772 191.532  0.00  0.00    +0.000 N 
ATOM      5  C   UNL     1      19.716   2.049 189.083  0.00  0.00    +0.000 A 
ATOM      6  C   UNL     1      21.014   1.757 188.667  0.00  0.00    +0.000 A 
ATOM      7  C   UNL     1      21.855   1.077 190.907  0.00  0.00    +0.000 C 
ATOM      8  C   UNL     1      21.966   1.067 189.558  0.00  0.00    +0.000 C 
ATOM      9  C   UNL     1      18.799   2.712 188.277  0.00  0.00    +0.000 A 
ATOM     10  C   UNL     1      21.155   3.118 191.988  0.00  0.00    +0.000 C 
ATOM     11  C   UNL     1      21.370   2.121 187.367  0.00  0.00    +0.000 A 
ATOM     12  C   UNL     1      19.181   3.076 186.991  0.00  0.00    +0.000 A 
ATOM     13  C   UNL     1      20.463   2.776 186.534  0.00  0.00    +0.000 A 
ENDROOT
BRANCH   7  14
ATOM     14  C   UNL     1      22.842   0.357 191.776  0.00  0.00    +0.000 C 
ATOM     15  O   UNL     1      22.434  -0.311 192.725  0.00  0.00    +0.000 OA
ATOM     16  N   UNL     1      24.156   0.522 191.422  0.00  0.00    +0.000 N 
ATOM     17  H   UNL     1      24.403   1.037 190.584  0.00  0.00    +0.000 HD
BRANCH  16  18
ATOM     18  C   UNL     1      25.266  -0.013 192.078  0.00  0.00    +0.000 A 
ATOM     19  N   UNL     1      26.125   0.909 192.558  0.00  0.00    +0.000 NA
ATOM     20  C   UNL     1      27.218   0.445 193.207  0.00  0.00    +0.000 A 
ATOM     21  C   UNL     1      27.497  -0.896 193.404  0.00  0.00    +0.000 A 
ATOM     22  C   UNL     1      26.592  -1.818 192.900  0.00  0.00    +0.000 A 
ATOM     23  C   UNL     1      25.458  -1.379 192.226  0.00  0.00    +0.000 A 
ENDBRANCH  16  18
ENDBRANCH   7  14
BRANCH   8  24
ATOM     24  O   UNL     1      22.986   0.424 188.876  0.00  0.00    +0.000 OA
ATOM     25  H   UNL     1      22.986  -0.533 189.106  0.00  0.00    +0.000 HD
ENDBRANCH   8  24
TORSDOF 3
ENDMDL
MODEL 4
REMARK VINA RESULT:      -7.3      3.365      7.101
REMARK  Name = Piroxicam.pdbqt.pdb
REMARK  3 active torsions:
REMARK  status: ('A' for Active; 'I' for Inactive)
REMARK    1  A    between atoms: C_7  and  C_14
REMARK    2  A    between atoms: C_8  and  O_24
REMARK    3  A    between atoms: N_16  and  C_18
REMARK                            x       y       z     vdW  Elec       q    Type
REMARK                         _______ _______ _______ _____ _____    ______ ____
ROOT
ATOM      1  S   UNL     1      24.866   2.368 192.121  0.00  0.00    +0.000 S 
ATOM      2  O   UNL     1      25.087   3.617 191.416  0.00  0.00    +0.000 OA
ATOM      3  O   UNL     1      24.475   2.365 193.517  0.00  0.00    +0.000 OA
ATOM      4  N   UNL     1      23.787   1.398 191.193  0.00  0.00    +0.000 N 
ATOM      5  C   UNL     1      26.349   1.449 191.973  0.00  0.00    +0.000 A 
ATOM      6  C   UNL     1      26.560   0.756 190.782  0.00  0.00    +0.000 A 
ATOM      7  C   UNL     1      24.271   1.105 189.874  0.00  0.00    +0.000 C 
ATOM      8  C   UNL     1      25.578   0.808 189.682  0.00  0.00    +0.000 C 
ATOM      9  C   UNL     1      27.245   1.409 193.035  0.00  0.00    +0.000 A 
ATOM     10  C   UNL     1      23.167   0.224 191.832  0.00  0.00    +0.000 C 
ATOM     11  C   UNL     1      27.747   0.032 190.659  0.00  0.00    +0.000 A 
ATOM     12  C   UNL     1      28.414   0.670 192.894  0.00  0.00    +0.000 A 
ATOM     13  C   UNL     1      28.669  -0.013 191.707  0.00  0.00    +0.000 A 
ENDROOT
BRANCH   7  14
ATOM     14  C   UNL     1      23.305   1.153 188.727  0.00  0.00    +0.000 C 
ATOM     15  O   UNL     1      23.106   0.136 188.065  0.00  0.00    +0.000 OA
ATOM     16  N   UNL     1      22.718   2.373 188.514  0.00  0.00    +0.000 N 
ATOM     17  H   UNL     1      22.889   3.145 189.149  0.00  0.00    +0.000 HD
BRANCH  16  18
ATOM     18  C   UNL     1      21.811   2.692 187.502  0.00  0.00    +0.000 A 
ATOM     19  N   UNL     1      22.383   3.036 186.331  0.00  0.00    +0.000 NA
ATOM     20  C   UNL     1      21.549   3.351 185.314  0.00  0.00    +0.000 A 
ATOM     21  C   UNL     1      20.169   3.338 185.405  0.00  0.00    +0.000 A 
ATOM     22  C   UNL     1      19.611   2.978 186.623  0.00  0.00    +0.000 A 
ATOM     23  C   UNL     1      20.437   2.648 187.691  0.00  0.00    +0.000 A 
ENDBRANCH  16  18
ENDBRANCH   7  14
BRANCH   8  24
ATOM     24  O   UNL     1      26.124   0.510 188.446  0.00  0.00    +0.000 OA
ATOM     25  H   UNL     1      25.451   0.655 187.742  0.00  0.00    +0.000 HD
ENDBRANCH   8  24
TORSDOF 3
ENDMDL
MODEL 5
REMARK VINA RESULT:      -7.0     20.958     22.841
REMARK  Name = Piroxicam.pdbqt.pdb
REMARK  3 active torsions:
REMARK  status: ('A' for Active; 'I' for Inactive)
REMARK    1  A    between atoms: C_7  and  C_14
REMARK    2  A    between atoms: C_8  and  O_24
REMARK    3  A    between atoms: N_16  and  C_18
REMARK                            x       y       z     vdW  Elec       q    Type
REMARK                         _______ _______ _______ _____ _____    ______ ____
ROOT
ATOM      1  S   UNL     1      24.878  10.111 168.051  0.00  0.00    +0.000 S 
ATOM      2  O   UNL     1      24.738   8.831 167.381  0.00  0.00    +0.000 OA
ATOM      3  O   UNL     1      25.798  11.112 167.549  0.00  0.00    +0.000 OA
ATOM      4  N   UNL     1      23.311  10.790 168.269  0.00  0.00    +0.000 N 
ATOM      5  C   UNL     1      25.318   9.753 169.708  0.00  0.00    +0.000 A 
ATOM      6  C   UNL     1      24.295   9.392 170.582  0.00  0.00    +0.000 A 
ATOM      7  C   UNL     1      22.428   9.960 169.039  0.00  0.00    +0.000 C 
ATOM      8  C   UNL     1      22.895   9.299 170.124  0.00  0.00    +0.000 C 
ATOM      9  C   UNL     1      26.645   9.867 170.109  0.00  0.00    +0.000 A 
ATOM     10  C   UNL     1      23.204  12.211 168.643  0.00  0.00    +0.000 C 
ATOM     11  C   UNL     1      24.647   9.098 171.900  0.00  0.00    +0.000 A 
ATOM     12  C   UNL     1      26.968   9.582 171.430  0.00  0.00    +0.000 A 
ATOM     13  C   UNL     1      25.973   9.192 172.324  0.00  0.00    +0.000 A 
ENDROOT
BRANCH   7  14
ATOM     14  C   UNL     1      20.999   9.833 168.603  0.00  0.00    +0.000 C 
ATOM     15  O   UNL     1      20.695  10.115 167.446  0.00  0.00    +0.000 OA
ATOM     16  N   UNL     1      20.132   9.404 169.575  0.00  0.00    +0.000 N 
ATOM     17  H   UNL     1      20.477   9.129 170.488  0.00  0.00    +0.000 HD
BRANCH  16  18
ATOM     18  C   UNL     1      18.754   9.230 169.440  0.00  0.00    +0.000 A 
ATOM     19  N   UNL     1      18.012  10.109 170.143  0.00  0.00    +0.000 NA
ATOM     20  C   UNL     1      16.668   9.989 170.045  0.00  0.00    +0.000 A 
ATOM     21  C   UNL     1      16.024   9.035 169.277  0.00  0.00    +0.000 A 
ATOM     22  C   UNL     1      16.817   8.147 168.564  0.00  0.00    +0.000 A 
ATOM     23  C   UNL     1      18.202   8.240 168.640  0.00  0.00    +0.000 A 
ENDBRANCH  16  18
ENDBRANCH   7  14
BRANCH   8  24
ATOM     24  O   UNL     1      22.112   8.482 170.922  0.00  0.00    +0.000 OA
ATOM     25  H   UNL     1      21.270   8.273 170.456  0.00  0.00    +0.000 HD
ENDBRANCH   8  24
TORSDOF 3
ENDMDL
MODEL 6
REMARK VINA RESULT:      -7.0      3.467      6.755
REMARK  Name = Piroxicam.pdbqt.pdb
REMARK  3 active torsions:
REMARK  status: ('A' for Active; 'I' for Inactive)
REMARK    1  A    between atoms: C_7  and  C_14
REMARK    2  A    between atoms: C_8  and  O_24
REMARK    3  A    between atoms: N_16  and  C_18
REMARK                            x       y       z     vdW  Elec       q    Type
REMARK                         _______ _______ _______ _____ _____    ______ ____
ROOT
ATOM      1  S   UNL     1      26.430   2.040 190.982  0.00  0.00    +0.000 S 
ATOM      2  O   UNL     1      26.583   1.735 189.572  0.00  0.00    +0.000 OA
ATOM      3  O   UNL     1      27.242   3.064 191.610  0.00  0.00    +0.000 OA
ATOM      4  N   UNL     1      24.760   2.316 191.305  0.00  0.00    +0.000 N 
ATOM      5  C   UNL     1      26.691   0.539 191.843  0.00  0.00    +0.000 A 
ATOM      6  C   UNL     1      25.627  -0.359 191.908  0.00  0.00    +0.000 A 
ATOM      7  C   UNL     1      23.922   1.197 190.981  0.00  0.00    +0.000 C 
ATOM      8  C   UNL     1      24.335  -0.062 191.261  0.00  0.00    +0.000 C 
ATOM      9  C   UNL     1      27.916   0.298 192.455  0.00  0.00    +0.000 A 
ATOM     10  C   UNL     1      24.383   2.941 192.584  0.00  0.00    +0.000 C 
ATOM     11  C   UNL     1      25.838  -1.561 192.586  0.00  0.00    +0.000 A 
ATOM     12  C   UNL     1      28.098  -0.900 193.135  0.00  0.00    +0.000 A 
ATOM     13  C   UNL     1      27.064  -1.831 193.197  0.00  0.00    +0.000 A 
ENDROOT
BRANCH   7  14
ATOM     14  C   UNL     1      22.603   1.456 190.317  0.00  0.00    +0.000 C 
ATOM     15  O   UNL     1      21.587   0.932 190.771  0.00  0.00    +0.000 OA
ATOM     16  N   UNL     1      22.656   2.278 189.221  0.00  0.00    +0.000 N 
ATOM     17  H   UNL     1      23.527   2.722 188.953  0.00  0.00    +0.000 HD
BRANCH  16  18
ATOM     18  C   UNL     1      21.582   2.654 188.413  0.00  0.00    +0.000 A 
ATOM     19  N   UNL     1      20.940   3.766 188.824  0.00  0.00    +0.000 NA
ATOM     20  C   UNL     1      19.893   4.178 188.073  0.00  0.00    +0.000 A 
ATOM     21  C   UNL     1      19.453   3.537 186.929  0.00  0.00    +0.000 A 
ATOM     22  C   UNL     1      20.137   2.397 186.532  0.00  0.00    +0.000 A 
ATOM     23  C   UNL     1      21.218   1.943 187.278  0.00  0.00    +0.000 A 
ENDBRANCH  16  18
ENDBRANCH   7  14
BRANCH   8  24
ATOM     24  O   UNL     1      23.587  -1.194 190.986  0.00  0.00    +0.000 OA
ATOM     25  H   UNL     1      24.027  -1.984 191.376  0.00  0.00    +0.000 HD
ENDBRANCH   8  24
TORSDOF 3
ENDMDL
MODEL 7
REMARK VINA RESULT:      -6.9      4.206      7.290
REMARK  Name = Piroxicam.pdbqt.pdb
REMARK  3 active torsions:
REMARK  status: ('A' for Active; 'I' for Inactive)
REMARK    1  A    between atoms: C_7  and  C_14
REMARK    2  A    between atoms: C_8  and  O_24
REMARK    3  A    between atoms: N_16  and  C_18
REMARK                            x       y       z     vdW  Elec       q    Type
REMARK                         _______ _______ _______ _____ _____    ______ ____
ROOT
ATOM      1  S   UNL     1      26.182   2.409 192.201  0.00  0.00    +0.000 S 
ATOM      2  O   UNL     1      25.849   3.740 192.673  0.00  0.00    +0.000 OA
ATOM      3  O   UNL     1      26.388   1.321 193.137  0.00  0.00    +0.000 OA
ATOM      4  N   UNL     1      25.040   1.955 190.994  0.00  0.00    +0.000 N 
ATOM      5  C   UNL     1      27.635   2.577 191.238  0.00  0.00    +0.000 A 
ATOM      6  C   UNL     1      27.489   3.021 189.925  0.00  0.00    +0.000 A 
ATOM      7  C   UNL     1      25.008   2.848 189.871  0.00  0.00    +0.000 C 
ATOM      8  C   UNL     1      26.161   3.353 189.373  0.00  0.00    +0.000 C 
ATOM      9  C   UNL     1      28.867   2.240 191.785  0.00  0.00    +0.000 A 
ATOM     10  C   UNL     1      24.974   0.542 190.582  0.00  0.00    +0.000 C 
ATOM     11  C   UNL     1      28.648   3.164 189.160  0.00  0.00    +0.000 A 
ATOM     12  C   UNL     1      30.006   2.378 191.000  0.00  0.00    +0.000 A 
ATOM     13  C   UNL     1      29.898   2.845 189.691  0.00  0.00    +0.000 A 
ENDROOT
BRANCH   7  14
ATOM     14  C   UNL     1      23.678   3.216 189.284  0.00  0.00    +0.000 C 
ATOM     15  O   UNL     1      22.870   3.843 189.968  0.00  0.00    +0.000 OA
ATOM     16  N   UNL     1      23.477   2.797 187.994  0.00  0.00    +0.000 N 
ATOM     17  H   UNL     1      24.222   2.342 187.479  0.00  0.00    +0.000 HD
BRANCH  16  18
ATOM     18  C   UNL     1      22.323   2.983 187.231  0.00  0.00    +0.000 A 
ATOM     19  N   UNL     1      21.286   2.202 187.593  0.00  0.00    +0.000 NA
ATOM     20  C   UNL     1      20.140   2.344 186.889  0.00  0.00    +0.000 A 
ATOM     21  C   UNL     1      19.974   3.231 185.840  0.00  0.00    +0.000 A 
ATOM     22  C   UNL     1      21.060   4.023 185.494  0.00  0.00    +0.000 A 
ATOM     23  C   UNL     1      22.254   3.904 186.195  0.00  0.00    +0.000 A 
ENDBRANCH  16  18
ENDBRANCH   7  14
BRANCH   8  24
ATOM     24  O   UNL     1      26.218   4.217 188.293  0.00  0.00    +0.000 OA
ATOM     25  H   UNL     1      26.951   3.948 187.692  0.00  0.00    +0.000 HD
ENDBRANCH   8  24
TORSDOF 3
ENDMDL
MODEL 8
REMARK VINA RESULT:      -6.7     11.545     13.896
REMARK  Name = Piroxicam.pdbqt.pdb
REMARK  3 active torsions:
REMARK  status: ('A' for Active; 'I' for Inactive)
REMARK    1  A    between atoms: C_7  and  C_14
REMARK    2  A    between atoms: C_8  and  O_24
REMARK    3  A    between atoms: N_16  and  C_18
REMARK                            x       y       z     vdW  Elec       q    Type
REMARK                         _______ _______ _______ _____ _____    ______ ____
ROOT
ATOM      1  S   UNL     1       8.786  -0.887 192.759  0.00  0.00    +0.000 S 
ATOM      2  O   UNL     1       9.633  -0.085 191.895  0.00  0.00    +0.000 OA
ATOM      3  O   UNL     1       7.528  -0.365 193.254  0.00  0.00    +0.000 OA
ATOM      4  N   UNL     1       8.549  -2.424 192.018  0.00  0.00    +0.000 N 
ATOM      5  C   UNL     1       9.769  -1.331 194.138  0.00  0.00    +0.000 A 
ATOM      6  C   UNL     1      10.649  -2.401 193.983  0.00  0.00    +0.000 A 
ATOM      7  C   UNL     1       9.770  -3.138 191.776  0.00  0.00    +0.000 C 
ATOM      8  C   UNL     1      10.759  -3.121 192.700  0.00  0.00    +0.000 C 
ATOM      9  C   UNL     1       9.628  -0.641 195.336  0.00  0.00    +0.000 A 
ATOM     10  C   UNL     1       7.486  -3.301 192.540  0.00  0.00    +0.000 C 
ATOM     11  C   UNL     1      11.440  -2.749 195.080  0.00  0.00    +0.000 A 
ATOM     12  C   UNL     1      10.416  -1.014 196.418  0.00  0.00    +0.000 A 
ATOM     13  C   UNL     1      11.326  -2.062 196.290  0.00  0.00    +0.000 A 
ENDROOT
BRANCH   7  14
ATOM     14  C   UNL     1       9.925  -3.879 190.482  0.00  0.00    +0.000 C 
ATOM     15  O   UNL     1       9.886  -5.108 190.483  0.00  0.00    +0.000 OA
ATOM     16  N   UNL     1      10.107  -3.086 189.378  0.00  0.00    +0.000 N 
ATOM     17  H   UNL     1      10.060  -2.077 189.456  0.00  0.00    +0.000 HD
BRANCH  16  18
ATOM     18  C   UNL     1      10.303  -3.522 188.066  0.00  0.00    +0.000 A 
ATOM     19  N   UNL     1       9.164  -3.756 187.384  0.00  0.00    +0.000 NA
ATOM     20  C   UNL     1       9.295  -4.177 186.105  0.00  0.00    +0.000 A 
ATOM     21  C   UNL     1      10.508  -4.374 185.469  0.00  0.00    +0.000 A 
ATOM     22  C   UNL     1      11.661  -4.122 186.199  0.00  0.00    +0.000 A 
ATOM     23  C   UNL     1      11.566  -3.689 187.516  0.00  0.00    +0.000 A 
ENDBRANCH  16  18
ENDBRANCH   7  14
BRANCH   8  24
ATOM     24  O   UNL     1      11.965  -3.785 192.548  0.00  0.00    +0.000 OA
ATOM     25  H   UNL     1      12.066  -4.076 191.612  0.00  0.00    +0.000 HD
ENDBRANCH   8  24
TORSDOF 3
ENDMDL
MODEL 9
REMARK VINA RESULT:      -6.5     27.361     29.698
REMARK  Name = Piroxicam.pdbqt.pdb
REMARK  3 active torsions:
REMARK  status: ('A' for Active; 'I' for Inactive)
REMARK    1  A    between atoms: C_7  and  C_14
REMARK    2  A    between atoms: C_8  and  O_24
REMARK    3  A    between atoms: N_16  and  C_18
REMARK                            x       y       z     vdW  Elec       q    Type
REMARK                         _______ _______ _______ _____ _____    ______ ____
ROOT
ATOM      1  S   UNL     1      39.762 -21.896 190.709  0.00  0.00    +0.000 S 
ATOM      2  O   UNL     1      40.176 -22.345 189.393  0.00  0.00    +0.000 OA
ATOM      3  O   UNL     1      39.864 -22.775 191.857  0.00  0.00    +0.000 OA
ATOM      4  N   UNL     1      40.527 -20.388 191.038  0.00  0.00    +0.000 N 
ATOM      5  C   UNL     1      38.092 -21.394 190.557  0.00  0.00    +0.000 A 
ATOM      6  C   UNL     1      37.845 -20.127 190.031  0.00  0.00    +0.000 A 
ATOM      7  C   UNL     1      40.213 -19.365 190.081  0.00  0.00    +0.000 C 
ATOM      8  C   UNL     1      38.951 -19.248 189.605  0.00  0.00    +0.000 C 
ATOM      9  C   UNL     1      37.076 -22.242 190.983  0.00  0.00    +0.000 A 
ATOM     10  C   UNL     1      40.516 -19.878 192.420  0.00  0.00    +0.000 C 
ATOM     11  C   UNL     1      36.513 -19.731 189.901  0.00  0.00    +0.000 A 
ATOM     12  C   UNL     1      35.758 -21.820 190.856  0.00  0.00    +0.000 A 
ATOM     13  C   UNL     1      35.475 -20.570 190.310  0.00  0.00    +0.000 A 
ENDROOT
BRANCH   7  14
ATOM     14  C   UNL     1      41.310 -18.454 189.617  0.00  0.00    +0.000 C 
ATOM     15  O   UNL     1      41.169 -17.237 189.728  0.00  0.00    +0.000 OA
ATOM     16  N   UNL     1      42.405 -19.087 189.088  0.00  0.00    +0.000 N 
ATOM     17  H   UNL     1      42.468 -20.098 189.094  0.00  0.00    +0.000 HD
BRANCH  16  18
ATOM     18  C   UNL     1      43.543 -18.475 188.561  0.00  0.00    +0.000 A 
ATOM     19  N   UNL     1      44.446 -18.094 189.487  0.00  0.00    +0.000 NA
ATOM     20  C   UNL     1      45.572 -17.498 189.031  0.00  0.00    +0.000 A 
ATOM     21  C   UNL     1      45.846 -17.265 187.695  0.00  0.00    +0.000 A 
ATOM     22  C   UNL     1      44.897 -17.671 186.768  0.00  0.00    +0.000 A 
ATOM     23  C   UNL     1      43.727 -18.286 187.199  0.00  0.00    +0.000 A 
ENDBRANCH  16  18
ENDBRANCH   7  14
BRANCH   8  24
ATOM     24  O   UNL     1      38.563 -18.289 188.685  0.00  0.00    +0.000 OA
ATOM     25  H   UNL     1      39.359 -17.918 188.238  0.00  0.00    +0.000 HD
ENDBRANCH   8  24
TORSDOF 3
ENDMDL
