MODEL 1
REMARK VINA RESULT:      -8.6      0.000      0.000
REMARK  Name = PKR_Inhibitor.pdbqt.pdb
REMARK  0 active torsions:
REMARK  status: ('A' for Active; 'I' for Inactive)
REMARK                            x       y       z     vdW  Elec       q    Type
REMARK                         _______ _______ _______ _____ _____    ______ ____
ROOT
ATOM      1  S   UNL     1      22.402   1.287 188.971  0.00  0.00    +0.000 S 
ATOM      2  O   UNL     1      16.758   1.371 190.220  0.00  0.00    +0.000 OA
ATOM      3  N   UNL     1      17.654   2.323 188.272  0.00  0.00    +0.000 N 
ATOM      4  N   UNL     1      22.915   2.465 186.708  0.00  0.00    +0.000 NA
ATOM      5  C   UNL     1      19.875   1.872 188.536  0.00  0.00    +0.000 A 
ATOM      6  C   UNL     1      18.905   2.471 187.693  0.00  0.00    +0.000 A 
ATOM      7  C   UNL     1      19.140   1.325 189.711  0.00  0.00    +0.000 C 
ATOM      8  C   UNL     1      21.151   1.946 188.088  0.00  0.00    +0.000 A 
ATOM      9  C   UNL     1      17.691   1.645 189.491  0.00  0.00    +0.000 C 
ATOM     10  C   UNL     1      21.548   2.541 186.909  0.00  0.00    +0.000 A 
ATOM     11  C   UNL     1      19.181   3.101 186.483  0.00  0.00    +0.000 A 
ATOM     12  C   UNL     1      19.580   0.691 190.751  0.00  0.00    +0.000 C 
ATOM     13  C   UNL     1      20.542   3.124 186.102  0.00  0.00    +0.000 A 
ATOM     14  C   UNL     1      23.453   1.828 187.728  0.00  0.00    +0.000 A 
ATOM     15  H   UNL     1      16.789   2.662 187.872  0.00  0.00    +0.000 HD
ATOM     16  C   UNL     1      19.980  -0.006 191.916  0.00  0.00    +0.000 C 
ATOM     17  N   UNL     1      19.136  -0.436 192.902  0.00  0.00    +0.000 N 
ATOM     18  C   UNL     1      19.894  -1.062 193.851  0.00  0.00    +0.000 C 
ATOM     19  H   UNL     1      18.132  -0.315 192.930  0.00  0.00    +0.000 HD
ATOM     20  N   UNL     1      21.168  -1.057 193.527  0.00  0.00    +0.000 NA
ATOM     21  C   UNL     1      21.233  -0.400 192.322  0.00  0.00    +0.000 C 
ENDROOT
TORSDOF 0
ENDMDL
MODEL 2
REMARK VINA RESULT:      -7.8      2.739      3.249
REMARK  Name = PKR_Inhibitor.pdbqt.pdb
REMARK  0 active torsions:
REMARK  status: ('A' for Active; 'I' for Inactive)
REMARK                            x       y       z     vdW  Elec       q    Type
REMARK                         _______ _______ _______ _____ _____    ______ ____
ROOT
ATOM      1  S   UNL     1      23.530   4.644 188.698  0.00  0.00    +0.000 S 
ATOM      2  O   UNL     1      18.355   2.271 187.687  0.00  0.00    +0.000 OA
ATOM      3  N   UNL     1      19.681   3.222 186.001  0.00  0.00    +0.000 N 
ATOM      4  N   UNL     1      24.620   5.564 186.522  0.00  0.00    +0.000 NA
ATOM      5  C   UNL     1      21.500   3.907 187.197  0.00  0.00    +0.000 A 
ATOM      6  C   UNL     1      20.915   3.847 185.907  0.00  0.00    +0.000 A 
ATOM      7  C   UNL     1      20.534   3.267 188.134  0.00  0.00    +0.000 C 
ATOM      8  C   UNL     1      22.717   4.499 187.250  0.00  0.00    +0.000 A 
ATOM      9  C   UNL     1      19.362   2.835 187.303  0.00  0.00    +0.000 C 
ATOM     10  C   UNL     1      23.395   5.022 186.171  0.00  0.00    +0.000 A 
ATOM     11  C   UNL     1      21.500   4.340 184.744  0.00  0.00    +0.000 A 
ATOM     12  C   UNL     1      20.609   3.078 189.413  0.00  0.00    +0.000 C 
ATOM     13  C   UNL     1      22.771   4.938 184.904  0.00  0.00    +0.000 A 
ATOM     14  C   UNL     1      24.784   5.416 187.821  0.00  0.00    +0.000 A 
ATOM     15  H   UNL     1      19.059   3.052 185.223  0.00  0.00    +0.000 HD
ATOM     16  C   UNL     1      20.614   2.836 190.807  0.00  0.00    +0.000 C 
ATOM     17  N   UNL     1      19.611   2.217 191.499  0.00  0.00    +0.000 N 
ATOM     18  C   UNL     1      19.984   2.170 192.814  0.00  0.00    +0.000 C 
ATOM     19  H   UNL     1      18.747   1.858 191.116  0.00  0.00    +0.000 HD
ATOM     20  N   UNL     1      21.163   2.721 192.997  0.00  0.00    +0.000 NA
ATOM     21  C   UNL     1      21.566   3.140 191.752  0.00  0.00    +0.000 C 
ENDROOT
TORSDOF 0
ENDMDL
MODEL 3
REMARK VINA RESULT:      -7.5      2.966      4.436
REMARK  Name = PKR_Inhibitor.pdbqt.pdb
REMARK  0 active torsions:
REMARK  status: ('A' for Active; 'I' for Inactive)
REMARK                            x       y       z     vdW  Elec       q    Type
REMARK                         _______ _______ _______ _____ _____    ______ ____
ROOT
ATOM      1  S   UNL     1      20.867   3.445 186.577  0.00  0.00    +0.000 S 
ATOM      2  O   UNL     1      22.465   3.435 192.133  0.00  0.00    +0.000 OA
ATOM      3  N   UNL     1      23.816   4.281 190.412  0.00  0.00    +0.000 N 
ATOM      4  N   UNL     1      22.693   4.483 185.041  0.00  0.00    +0.000 NA
ATOM      5  C   UNL     1      22.493   3.920 188.588  0.00  0.00    +0.000 A 
ATOM      6  C   UNL     1      23.739   4.429 189.036  0.00  0.00    +0.000 A 
ATOM      7  C   UNL     1      21.773   3.430 189.797  0.00  0.00    +0.000 C 
ATOM      8  C   UNL     1      22.285   4.002 187.252  0.00  0.00    +0.000 A 
ATOM      9  C   UNL     1      22.680   3.689 190.964  0.00  0.00    +0.000 C 
ATOM     10  C   UNL     1      23.173   4.530 186.339  0.00  0.00    +0.000 A 
ATOM     11  C   UNL     1      24.715   4.984 188.213  0.00  0.00    +0.000 A 
ATOM     12  C   UNL     1      20.605   2.882 189.910  0.00  0.00    +0.000 C 
ATOM     13  C   UNL     1      24.402   5.025 186.835  0.00  0.00    +0.000 A 
ATOM     14  C   UNL     1      21.495   3.934 185.058  0.00  0.00    +0.000 A 
ATOM     15  H   UNL     1      24.603   4.565 190.980  0.00  0.00    +0.000 HD
ATOM     16  C   UNL     1      19.342   2.278 190.116  0.00  0.00    +0.000 C 
ATOM     17  N   UNL     1      18.847   1.892 191.331  0.00  0.00    +0.000 N 
ATOM     18  C   UNL     1      17.608   1.353 191.120  0.00  0.00    +0.000 C 
ATOM     19  H   UNL     1      19.308   1.984 192.226  0.00  0.00    +0.000 HD
ATOM     20  N   UNL     1      17.287   1.375 189.845  0.00  0.00    +0.000 NA
ATOM     21  C   UNL     1      18.362   1.949 189.210  0.00  0.00    +0.000 C 
ENDROOT
TORSDOF 0
ENDMDL
MODEL 4
REMARK VINA RESULT:      -7.2      3.120      5.514
REMARK  Name = PKR_Inhibitor.pdbqt.pdb
REMARK  0 active torsions:
REMARK  status: ('A' for Active; 'I' for Inactive)
REMARK                            x       y       z     vdW  Elec       q    Type
REMARK                         _______ _______ _______ _____ _____    ______ ____
ROOT
ATOM      1  S   UNL     1      21.512   1.681 190.169  0.00  0.00    +0.000 S 
ATOM      2  O   UNL     1      23.675   4.654 185.707  0.00  0.00    +0.000 OA
ATOM      3  N   UNL     1      21.404   4.097 185.895  0.00  0.00    +0.000 N 
ATOM      4  N   UNL     1      18.948   1.306 189.936  0.00  0.00    +0.000 NA
ATOM      5  C   UNL     1      21.386   2.964 187.876  0.00  0.00    +0.000 A 
ATOM      6  C   UNL     1      20.592   3.423 186.795  0.00  0.00    +0.000 A 
ATOM      7  C   UNL     1      22.783   3.400 187.596  0.00  0.00    +0.000 C 
ATOM      8  C   UNL     1      20.713   2.283 188.835  0.00  0.00    +0.000 A 
ATOM      9  C   UNL     1      22.742   4.137 186.290  0.00  0.00    +0.000 C 
ATOM     10  C   UNL     1      19.360   2.021 188.825  0.00  0.00    +0.000 A 
ATOM     11  C   UNL     1      19.220   3.221 186.672  0.00  0.00    +0.000 A 
ATOM     12  C   UNL     1      23.867   3.224 188.282  0.00  0.00    +0.000 C 
ATOM     13  C   UNL     1      18.611   2.501 187.725  0.00  0.00    +0.000 A 
ATOM     14  C   UNL     1      19.997   1.078 190.700  0.00  0.00    +0.000 A 
ATOM     15  H   UNL     1      21.085   4.524 185.037  0.00  0.00    +0.000 HD
ATOM     16  C   UNL     1      25.094   3.074 188.970  0.00  0.00    +0.000 C 
ATOM     17  N   UNL     1      26.298   3.559 188.541  0.00  0.00    +0.000 N 
ATOM     18  C   UNL     1      27.238   3.214 189.472  0.00  0.00    +0.000 C 
ATOM     19  H   UNL     1      26.470   4.079 187.692  0.00  0.00    +0.000 HD
ATOM     20  N   UNL     1      26.703   2.539 190.466  0.00  0.00    +0.000 NA
ATOM     21  C   UNL     1      25.367   2.446 190.163  0.00  0.00    +0.000 C 
ENDROOT
TORSDOF 0
ENDMDL
MODEL 5
REMARK VINA RESULT:      -7.1      3.469      4.917
REMARK  Name = PKR_Inhibitor.pdbqt.pdb
REMARK  0 active torsions:
REMARK  status: ('A' for Active; 'I' for Inactive)
REMARK                            x       y       z     vdW  Elec       q    Type
REMARK                         _______ _______ _______ _____ _____    ______ ____
ROOT
ATOM      1  S   UNL     1      20.157   2.358 189.859  0.00  0.00    +0.000 S 
ATOM      2  O   UNL     1      25.137   4.460 187.809  0.00  0.00    +0.000 OA
ATOM      3  N   UNL     1      23.216   4.198 186.488  0.00  0.00    +0.000 N 
ATOM      4  N   UNL     1      18.315   2.255 188.023  0.00  0.00    +0.000 NA
ATOM      5  C   UNL     1      21.744   3.341 188.006  0.00  0.00    +0.000 A 
ATOM      6  C   UNL     1      21.917   3.745 186.659  0.00  0.00    +0.000 A 
ATOM      7  C   UNL     1      23.047   3.572 188.692  0.00  0.00    +0.000 C 
ATOM      8  C   UNL     1      20.511   2.872 188.313  0.00  0.00    +0.000 A 
ATOM      9  C   UNL     1      23.976   4.134 187.656  0.00  0.00    +0.000 C 
ATOM     10  C   UNL     1      19.457   2.769 187.431  0.00  0.00    +0.000 A 
ATOM     11  C   UNL     1      20.931   3.689 185.678  0.00  0.00    +0.000 A 
ATOM     12  C   UNL     1      23.394   3.362 189.922  0.00  0.00    +0.000 C 
ATOM     13  C   UNL     1      19.678   3.186 186.098  0.00  0.00    +0.000 A 
ATOM     14  C   UNL     1      18.577   2.009 189.291  0.00  0.00    +0.000 A 
ATOM     15  H   UNL     1      23.597   4.545 185.618  0.00  0.00    +0.000 HD
ATOM     16  C   UNL     1      23.851   3.161 191.246  0.00  0.00    +0.000 C 
ATOM     17  N   UNL     1      25.111   3.444 191.692  0.00  0.00    +0.000 N 
ATOM     18  C   UNL     1      25.164   3.115 193.018  0.00  0.00    +0.000 C 
ATOM     19  H   UNL     1      25.872   3.826 191.146  0.00  0.00    +0.000 HD
ATOM     20  N   UNL     1      24.013   2.641 193.440  0.00  0.00    +0.000 NA
ATOM     21  C   UNL     1      23.186   2.665 192.343  0.00  0.00    +0.000 C 
ENDROOT
TORSDOF 0
ENDMDL
MODEL 6
REMARK VINA RESULT:      -7.1      2.383      5.515
REMARK  Name = PKR_Inhibitor.pdbqt.pdb
REMARK  0 active torsions:
REMARK  status: ('A' for Active; 'I' for Inactive)
REMARK                            x       y       z     vdW  Elec       q    Type
REMARK                         _______ _______ _______ _____ _____    ______ ____
ROOT
ATOM      1  S   UNL     1      23.227   1.100 190.948  0.00  0.00    +0.000 S 
ATOM      2  O   UNL     1      17.516   1.998 191.049  0.00  0.00    +0.000 OA
ATOM      3  N   UNL     1      18.546   0.180 192.115  0.00  0.00    +0.000 N 
ATOM      4  N   UNL     1      23.898  -1.039 192.268  0.00  0.00    +0.000 NA
ATOM      5  C   UNL     1      20.740   0.551 191.608  0.00  0.00    +0.000 A 
ATOM      6  C   UNL     1      19.834  -0.308 192.279  0.00  0.00    +0.000 A 
ATOM      7  C   UNL     1      19.925   1.637 190.994  0.00  0.00    +0.000 C 
ATOM      8  C   UNL     1      22.043   0.188 191.688  0.00  0.00    +0.000 A 
ATOM      9  C   UNL     1      18.497   1.349 191.355  0.00  0.00    +0.000 C 
ATOM     10  C   UNL     1      22.522  -0.918 192.355  0.00  0.00    +0.000 A 
ATOM     11  C   UNL     1      20.195  -1.452 192.985  0.00  0.00    +0.000 A 
ATOM     12  C   UNL     1      20.289   2.656 190.283  0.00  0.00    +0.000 C 
ATOM     13  C   UNL     1      21.578  -1.744 193.010  0.00  0.00    +0.000 A 
ATOM     14  C   UNL     1      24.361  -0.033 191.554  0.00  0.00    +0.000 A 
ATOM     15  H   UNL     1      17.714  -0.248 192.496  0.00  0.00    +0.000 HD
ATOM     16  C   UNL     1      20.605   3.792 189.501  0.00  0.00    +0.000 C 
ATOM     17  N   UNL     1      19.694   4.693 189.023  0.00  0.00    +0.000 N 
ATOM     18  C   UNL     1      20.382   5.641 188.318  0.00  0.00    +0.000 C 
ATOM     19  H   UNL     1      18.693   4.668 189.160  0.00  0.00    +0.000 HD
ATOM     20  N   UNL     1      21.674   5.397 188.320  0.00  0.00    +0.000 NA
ATOM     21  C   UNL     1      21.824   4.246 189.055  0.00  0.00    +0.000 C 
ENDROOT
TORSDOF 0
ENDMDL
MODEL 7
REMARK VINA RESULT:      -7.1      3.164      4.132
REMARK  Name = PKR_Inhibitor.pdbqt.pdb
REMARK  0 active torsions:
REMARK  status: ('A' for Active; 'I' for Inactive)
REMARK                            x       y       z     vdW  Elec       q    Type
REMARK                         _______ _______ _______ _____ _____    ______ ____
ROOT
ATOM      1  S   UNL     1      19.806   2.861 188.420  0.00  0.00    +0.000 S 
ATOM      2  O   UNL     1      24.191   3.822 192.063  0.00  0.00    +0.000 OA
ATOM      3  N   UNL     1      24.188   4.564 189.837  0.00  0.00    +0.000 N 
ATOM      4  N   UNL     1      20.257   3.873 186.066  0.00  0.00    +0.000 NA
ATOM      5  C   UNL     1      22.162   3.800 189.116  0.00  0.00    +0.000 A 
ATOM      6  C   UNL     1      23.335   4.505 188.746  0.00  0.00    +0.000 A 
ATOM      7  C   UNL     1      22.333   3.407 190.543  0.00  0.00    +0.000 C 
ATOM      8  C   UNL     1      21.237   3.667 188.135  0.00  0.00    +0.000 A 
ATOM      9  C   UNL     1      23.673   3.930 190.968  0.00  0.00    +0.000 C 
ATOM     10  C   UNL     1      21.360   4.157 186.853  0.00  0.00    +0.000 A 
ATOM     11  C   UNL     1      23.575   5.046 187.485  0.00  0.00    +0.000 A 
ATOM     12  C   UNL     1      21.541   2.751 191.330  0.00  0.00    +0.000 C 
ATOM     13  C   UNL     1      22.548   4.855 186.532  0.00  0.00    +0.000 A 
ATOM     14  C   UNL     1      19.389   3.199 186.791  0.00  0.00    +0.000 A 
ATOM     15  H   UNL     1      25.093   5.013 189.839  0.00  0.00    +0.000 HD
ATOM     16  C   UNL     1      20.735   2.041 192.251  0.00  0.00    +0.000 C 
ATOM     17  N   UNL     1      21.073   1.778 193.549  0.00  0.00    +0.000 N 
ATOM     18  C   UNL     1      20.043   1.077 194.111  0.00  0.00    +0.000 C 
ATOM     19  H   UNL     1      21.929   2.048 194.015  0.00  0.00    +0.000 HD
ATOM     20  N   UNL     1      19.070   0.880 193.249  0.00  0.00    +0.000 NA
ATOM     21  C   UNL     1      19.491   1.477 192.085  0.00  0.00    +0.000 C 
ENDROOT
TORSDOF 0
ENDMDL
MODEL 8
REMARK VINA RESULT:      -7.0      3.052      3.399
REMARK  Name = PKR_Inhibitor.pdbqt.pdb
REMARK  0 active torsions:
REMARK  status: ('A' for Active; 'I' for Inactive)
REMARK                            x       y       z     vdW  Elec       q    Type
REMARK                         _______ _______ _______ _____ _____    ______ ____
ROOT
ATOM      1  S   UNL     1      24.284   3.807 189.094  0.00  0.00    +0.000 S 
ATOM      2  O   UNL     1      19.667   1.307 191.514  0.00  0.00    +0.000 OA
ATOM      3  N   UNL     1      19.521   3.183 190.113  0.00  0.00    +0.000 N 
ATOM      4  N   UNL     1      23.625   5.851 187.625  0.00  0.00    +0.000 NA
ATOM      5  C   UNL     1      21.718   3.527 189.600  0.00  0.00    +0.000 A 
ATOM      6  C   UNL     1      20.394   3.992 189.401  0.00  0.00    +0.000 A 
ATOM      7  C   UNL     1      21.625   2.346 190.504  0.00  0.00    +0.000 C 
ATOM      8  C   UNL     1      22.678   4.234 188.956  0.00  0.00    +0.000 A 
ATOM      9  C   UNL     1      20.168   2.162 190.810  0.00  0.00    +0.000 C 
ATOM     10  C   UNL     1      22.456   5.331 188.152  0.00  0.00    +0.000 A 
ATOM     11  C   UNL     1      20.043   5.086 188.614  0.00  0.00    +0.000 A 
ATOM     12  C   UNL     1      22.555   1.579 190.976  0.00  0.00    +0.000 C 
ATOM     13  C   UNL     1      21.116   5.756 187.984  0.00  0.00    +0.000 A 
ATOM     14  C   UNL     1      24.637   5.126 188.056  0.00  0.00    +0.000 A 
ATOM     15  H   UNL     1      18.518   3.299 190.140  0.00  0.00    +0.000 HD
ATOM     16  C   UNL     1      23.512   0.698 191.533  0.00  0.00    +0.000 C 
ATOM     17  N   UNL     1      23.223  -0.353 192.359  0.00  0.00    +0.000 N 
ATOM     18  C   UNL     1      24.403  -0.961 192.684  0.00  0.00    +0.000 C 
ATOM     19  H   UNL     1      22.305  -0.635 192.676  0.00  0.00    +0.000 HD
ATOM     20  N   UNL     1      25.424  -0.359 192.114  0.00  0.00    +0.000 NA
ATOM     21  C   UNL     1      24.880   0.677 191.394  0.00  0.00    +0.000 C 
ENDROOT
TORSDOF 0
ENDMDL
MODEL 9
REMARK VINA RESULT:      -6.9     30.996     34.140
REMARK  Name = PKR_Inhibitor.pdbqt.pdb
REMARK  0 active torsions:
REMARK  status: ('A' for Active; 'I' for Inactive)
REMARK                            x       y       z     vdW  Elec       q    Type
REMARK                         _______ _______ _______ _____ _____    ______ ____
ROOT
ATOM      1  S   UNL     1      39.566  -7.248 164.533  0.00  0.00    +0.000 S 
ATOM      2  O   UNL     1      45.050  -7.529 166.344  0.00  0.00    +0.000 OA
ATOM      3  N   UNL     1      43.312  -6.647 167.650  0.00  0.00    +0.000 N 
ATOM      4  N   UNL     1      38.002  -6.194 166.326  0.00  0.00    +0.000 NA
ATOM      5  C   UNL     1      41.529  -6.899 166.249  0.00  0.00    +0.000 A 
ATOM      6  C   UNL     1      41.947  -6.440 167.523  0.00  0.00    +0.000 A 
ATOM      7  C   UNL     1      42.745  -7.419 165.562  0.00  0.00    +0.000 C 
ATOM      8  C   UNL     1      40.207  -6.755 165.991  0.00  0.00    +0.000 A 
ATOM      9  C   UNL     1      43.884  -7.233 166.520  0.00  0.00    +0.000 C 
ATOM     10  C   UNL     1      39.281  -6.214 166.857  0.00  0.00    +0.000 A 
ATOM     11  C   UNL     1      41.109  -5.877 168.481  0.00  0.00    +0.000 A 
ATOM     12  C   UNL     1      42.881  -7.942 164.385  0.00  0.00    +0.000 C 
ATOM     13  C   UNL     1      39.747  -5.771 168.117  0.00  0.00    +0.000 A 
ATOM     14  C   UNL     1      38.045  -6.713 165.115  0.00  0.00    +0.000 A 
ATOM     15  H   UNL     1      43.859  -6.407 168.465  0.00  0.00    +0.000 HD
ATOM     16  C   UNL     1      43.114  -8.522 163.115  0.00  0.00    +0.000 C 
ATOM     17  N   UNL     1      44.329  -8.948 162.658  0.00  0.00    +0.000 N 
ATOM     18  C   UNL     1      44.147  -9.444 161.398  0.00  0.00    +0.000 C 
ATOM     19  H   UNL     1      45.208  -8.906 163.156  0.00  0.00    +0.000 HD
ATOM     20  N   UNL     1      42.888  -9.359 161.027  0.00  0.00    +0.000 NA
ATOM     21  C   UNL     1      42.235  -8.785 162.091  0.00  0.00    +0.000 C 
ENDROOT
TORSDOF 0
ENDMDL
