MODEL 1
REMARK VINA RESULT:      -9.2      0.000      0.000
REMARK  Name = 
REMARK  14 active torsions:
REMARK  status: ('A' for Active; 'I' for Inactive)
REMARK    1  A    between atoms: O_1  and  C_14
REMARK    2  A    between atoms: O_1  and  C_15
REMARK    3  A    between atoms: O_4  and  C_16
REMARK    4  A    between atoms: O_5  and  C_18
REMARK    5  A    between atoms: O_6  and  C_26
REMARK    6  A    between atoms: O_7  and  C_29
REMARK    7  A    between atoms: O_8  and  C_35
REMARK    8  A    between atoms: O_9  and  C_36
REMARK    9  A    between atoms: O_10  and  C_39
REMARK   10  A    between atoms: O_11  and  C_40
REMARK   11  A    between atoms: O_12  and  C_41
REMARK   12  A    between atoms: O_13  and  C_43
REMARK   13  A    between atoms: C_14  and  C_20
REMARK   14  A    between atoms: C_17  and  C_24
REMARK                            x       y       z     vdW  Elec       q    Type
REMARK                         _______ _______ _______ _____ _____    ______ ____
ROOT
ATOM      1  O   UNL     1      24.189   1.920 191.837  0.00  0.00    +0.000 OA
ATOM      2  C   UNL     1      23.748   2.045 193.196  0.00  0.00    +0.000 C 
ATOM      3  C   UNL     1      24.382   3.295 193.879  0.00  0.00    +0.000 C 
ATOM      4  C   UNL     1      25.903   3.243 193.783  0.00  0.00    +0.000 C 
ATOM      5  C   UNL     1      26.350   2.919 192.388  0.00  0.00    +0.000 A 
ATOM      6  C   UNL     1      25.470   2.271 191.516  0.00  0.00    +0.000 A 
ATOM      7  C   UNL     1      27.645   3.205 191.931  0.00  0.00    +0.000 A 
ATOM      8  C   UNL     1      25.871   1.938 190.221  0.00  0.00    +0.000 A 
ATOM      9  C   UNL     1      28.061   2.859 190.649  0.00  0.00    +0.000 A 
ATOM     10  C   UNL     1      27.163   2.229 189.799  0.00  0.00    +0.000 A 
ENDROOT
BRANCH   2  11
ATOM     11  C   UNL     1      24.000   0.774 194.030  0.00  0.00    +0.000 A 
ATOM     12  C   UNL     1      24.824  -0.261 193.533  0.00  0.00    +0.000 A 
ATOM     13  C   UNL     1      23.433   0.611 195.311  0.00  0.00    +0.000 A 
ATOM     14  C   UNL     1      25.050  -1.405 194.291  0.00  0.00    +0.000 A 
ATOM     15  C   UNL     1      23.654  -0.549 196.060  0.00  0.00    +0.000 A 
ATOM     16  C   UNL     1      24.455  -1.548 195.540  0.00  0.00    +0.000 A 
BRANCH  14  17
ATOM     17  O   UNL     1      25.855  -2.422 193.863  0.00  0.00    +0.000 OA
ATOM     18  H   UNL     1      25.738  -3.200 194.445  0.00  0.00    +0.000 HD
ENDBRANCH  14  17
BRANCH  16  19
ATOM     19  O   UNL     1      24.675  -2.680 196.272  0.00  0.00    +0.000 OA
ATOM     20  H   UNL     1      25.285  -2.394 196.982  0.00  0.00    +0.000 HD
ENDBRANCH  16  19
ENDBRANCH   2  11
BRANCH   3  21
ATOM     21  O   UNL     1      23.926   4.538 193.273  0.00  0.00    +0.000 OA
ATOM     22  H   UNL     1      24.103   5.225 193.948  0.00  0.00    +0.000 HD
ENDBRANCH   3  21
BRANCH   4  23
ATOM     23  O   UNL     1      26.453   4.512 194.176  0.00  0.00    +0.000 OA
ATOM     24  H   UNL     1      26.904   4.839 193.366  0.00  0.00    +0.000 HD
ENDBRANCH   4  23
BRANCH   7  25
ATOM     25  O   UNL     1      28.556   3.856 192.719  0.00  0.00    +0.000 OA
ATOM     26  H   UNL     1      28.683   3.310 193.526  0.00  0.00    +0.000 HD
ENDBRANCH   7  25
BRANCH  10  27
ATOM     27  O   UNL     1      27.515   1.876 188.529  0.00  0.00    +0.000 OA
ATOM     28  H   UNL     1      28.484   1.908 188.458  0.00  0.00    +0.000 HD
ENDBRANCH  10  27
BRANCH   2  29
ATOM     29  O   UNL     1      22.327   2.361 193.186  0.00  0.00    +0.000 OA
BRANCH  29  31
ATOM     30  O   UNL     1      19.386   1.058 191.347  0.00  0.00    +0.000 OA
ATOM     31  C   UNL     1      21.581   1.987 192.011  0.00  0.00    +0.000 C 
ATOM     32  C   UNL     1      20.171   1.522 192.454  0.00  0.00    +0.000 C 
ATOM     33  C   UNL     1      21.396   3.170 191.055  0.00  0.00    +0.000 C 
ATOM     34  C   UNL     1      20.252   2.965 190.102  0.00  0.00    +0.000 A 
ATOM     35  C   UNL     1      19.327   1.934 190.297  0.00  0.00    +0.000 A 
ATOM     36  C   UNL     1      20.084   3.810 188.998  0.00  0.00    +0.000 A 
ATOM     37  C   UNL     1      18.288   1.723 189.388  0.00  0.00    +0.000 A 
ATOM     38  C   UNL     1      19.042   3.620 188.093  0.00  0.00    +0.000 A 
ATOM     39  C   UNL     1      18.155   2.571 188.295  0.00  0.00    +0.000 A 
BRANCH  32  40
ATOM     40  C   UNL     1      20.259   0.384 193.462  0.00  0.00    +0.000 A 
ATOM     41  C   UNL     1      19.703   0.510 194.744  0.00  0.00    +0.000 A 
ATOM     42  C   UNL     1      20.829  -0.845 193.084  0.00  0.00    +0.000 A 
ATOM     43  C   UNL     1      19.680  -0.586 195.603  0.00  0.00    +0.000 A 
ATOM     44  C   UNL     1      20.821  -1.935 193.957  0.00  0.00    +0.000 A 
ATOM     45  C   UNL     1      20.230  -1.805 195.210  0.00  0.00    +0.000 A 
BRANCH  43  46
ATOM     46  O   UNL     1      19.056  -0.497 196.815  0.00  0.00    +0.000 OA
ATOM     47  H   UNL     1      18.103  -0.644 196.694  0.00  0.00    +0.000 HD
ENDBRANCH  43  46
BRANCH  45  48
ATOM     48  O   UNL     1      20.154  -2.875 196.055  0.00  0.00    +0.000 OA
ATOM     49  H   UNL     1      19.804  -3.639 195.568  0.00  0.00    +0.000 HD
ENDBRANCH  45  48
ENDBRANCH  32  40
BRANCH  36  50
ATOM     50  O   UNL     1      20.972   4.834 188.818  0.00  0.00    +0.000 OA
ATOM     51  H   UNL     1      21.050   5.019 187.867  0.00  0.00    +0.000 HD
ENDBRANCH  36  50
BRANCH  39  52
ATOM     52  O   UNL     1      17.150   2.406 187.387  0.00  0.00    +0.000 OA
ATOM     53  H   UNL     1      17.057   3.226 186.872  0.00  0.00    +0.000 HD
ENDBRANCH  39  52
ENDBRANCH  29  31
ENDBRANCH   2  29
TORSDOF 14
ENDMDL
MODEL 2
REMARK VINA RESULT:      -9.0      1.935      6.506
REMARK  Name = 
REMARK  14 active torsions:
REMARK  status: ('A' for Active; 'I' for Inactive)
REMARK    1  A    between atoms: O_1  and  C_14
REMARK    2  A    between atoms: O_1  and  C_15
REMARK    3  A    between atoms: O_4  and  C_16
REMARK    4  A    between atoms: O_5  and  C_18
REMARK    5  A    between atoms: O_6  and  C_26
REMARK    6  A    between atoms: O_7  and  C_29
REMARK    7  A    between atoms: O_8  and  C_35
REMARK    8  A    between atoms: O_9  and  C_36
REMARK    9  A    between atoms: O_10  and  C_39
REMARK   10  A    between atoms: O_11  and  C_40
REMARK   11  A    between atoms: O_12  and  C_41
REMARK   12  A    between atoms: O_13  and  C_43
REMARK   13  A    between atoms: C_14  and  C_20
REMARK   14  A    between atoms: C_17  and  C_24
REMARK                            x       y       z     vdW  Elec       q    Type
REMARK                         _______ _______ _______ _____ _____    ______ ____
ROOT
ATOM      1  O   UNL     1      24.402   2.053 191.986  0.00  0.00    +0.000 OA
ATOM      2  C   UNL     1      24.184   1.500 190.680  0.00  0.00    +0.000 C 
ATOM      3  C   UNL     1      25.340   0.534 190.280  0.00  0.00    +0.000 C 
ATOM      4  C   UNL     1      26.687   1.243 190.375  0.00  0.00    +0.000 C 
ATOM      5  C   UNL     1      26.824   1.981 191.673  0.00  0.00    +0.000 A 
ATOM      6  C   UNL     1      25.677   2.345 192.383  0.00  0.00    +0.000 A 
ATOM      7  C   UNL     1      28.072   2.361 192.190  0.00  0.00    +0.000 A 
ATOM      8  C   UNL     1      25.779   3.052 193.583  0.00  0.00    +0.000 A 
ATOM      9  C   UNL     1      28.183   3.084 193.374  0.00  0.00    +0.000 A 
ATOM     10  C   UNL     1      27.029   3.421 194.066  0.00  0.00    +0.000 A 
ENDROOT
BRANCH   2  11
ATOM     11  C   UNL     1      23.967   2.578 189.601  0.00  0.00    +0.000 A 
ATOM     12  C   UNL     1      23.507   2.224 188.313  0.00  0.00    +0.000 A 
ATOM     13  C   UNL     1      24.206   3.943 189.867  0.00  0.00    +0.000 A 
ATOM     14  C   UNL     1      23.310   3.203 187.343  0.00  0.00    +0.000 A 
ATOM     15  C   UNL     1      24.019   4.917 188.882  0.00  0.00    +0.000 A 
ATOM     16  C   UNL     1      23.580   4.536 187.627  0.00  0.00    +0.000 A 
BRANCH  14  17
ATOM     17  O   UNL     1      22.847   2.912 186.091  0.00  0.00    +0.000 OA
ATOM     18  H   UNL     1      22.814   3.731 185.556  0.00  0.00    +0.000 HD
ENDBRANCH  14  17
BRANCH  16  19
ATOM     19  O   UNL     1      23.394   5.488 186.666  0.00  0.00    +0.000 OA
ATOM     20  H   UNL     1      24.297   5.698 186.354  0.00  0.00    +0.000 HD
ENDBRANCH  16  19
ENDBRANCH   2  11
BRANCH   3  21
ATOM     21  O   UNL     1      25.384  -0.648 191.130  0.00  0.00    +0.000 OA
ATOM     22  H   UNL     1      25.278  -1.402 190.516  0.00  0.00    +0.000 HD
ENDBRANCH   3  21
BRANCH   4  23
ATOM     23  O   UNL     1      27.747   0.278 190.260  0.00  0.00    +0.000 OA
ATOM     24  H   UNL     1      28.321   0.635 189.546  0.00  0.00    +0.000 HD
ENDBRANCH   4  23
BRANCH   7  25
ATOM     25  O   UNL     1      29.242   2.024 191.563  0.00  0.00    +0.000 OA
ATOM     26  H   UNL     1      29.126   1.116 191.205  0.00  0.00    +0.000 HD
ENDBRANCH   7  25
BRANCH  10  27
ATOM     27  O   UNL     1      27.080   4.121 195.236  0.00  0.00    +0.000 OA
ATOM     28  H   UNL     1      27.018   5.069 195.030  0.00  0.00    +0.000 HD
ENDBRANCH  10  27
BRANCH   2  29
ATOM     29  O   UNL     1      23.027   0.620 190.747  0.00  0.00    +0.000 OA
BRANCH  29  31
ATOM     30  O   UNL     1      19.750   1.036 192.425  0.00  0.00    +0.000 OA
ATOM     31  C   UNL     1      22.149   0.775 191.879  0.00  0.00    +0.000 C 
ATOM     32  C   UNL     1      20.688   0.806 191.364  0.00  0.00    +0.000 C 
ATOM     33  C   UNL     1      22.268  -0.401 192.854  0.00  0.00    +0.000 C 
ATOM     34  C   UNL     1      21.068  -0.525 193.752  0.00  0.00    +0.000 A 
ATOM     35  C   UNL     1      19.897   0.192 193.492  0.00  0.00    +0.000 A 
ATOM     36  C   UNL     1      21.099  -1.370 194.868  0.00  0.00    +0.000 A 
ATOM     37  C   UNL     1      18.798   0.103 194.350  0.00  0.00    +0.000 A 
ATOM     38  C   UNL     1      20.004  -1.480 195.722  0.00  0.00    +0.000 A 
ATOM     39  C   UNL     1      18.862  -0.735 195.457  0.00  0.00    +0.000 A 
BRANCH  32  40
ATOM     40  C   UNL     1      20.492   1.911 190.334  0.00  0.00    +0.000 A 
ATOM     41  C   UNL     1      20.036   1.617 189.039  0.00  0.00    +0.000 A 
ATOM     42  C   UNL     1      20.688   3.255 190.700  0.00  0.00    +0.000 A 
ATOM     43  C   UNL     1      19.741   2.653 188.155  0.00  0.00    +0.000 A 
ATOM     44  C   UNL     1      20.408   4.288 189.802  0.00  0.00    +0.000 A 
ATOM     45  C   UNL     1      19.919   3.981 188.536  0.00  0.00    +0.000 A 
BRANCH  43  46
ATOM     46  O   UNL     1      19.207   2.378 186.928  0.00  0.00    +0.000 OA
ATOM     47  H   UNL     1      19.633   2.942 186.262  0.00  0.00    +0.000 HD
ENDBRANCH  43  46
BRANCH  45  48
ATOM     48  O   UNL     1      19.579   4.976 187.665  0.00  0.00    +0.000 OA
ATOM     49  H   UNL     1      18.746   4.742 187.225  0.00  0.00    +0.000 HD
ENDBRANCH  45  48
ENDBRANCH  32  40
BRANCH  36  50
ATOM     50  O   UNL     1      22.234  -2.092 195.111  0.00  0.00    +0.000 OA
ATOM     51  H   UNL     1      22.750  -1.644 195.803  0.00  0.00    +0.000 HD
ENDBRANCH  36  50
BRANCH  39  52
ATOM     52  O   UNL     1      17.810  -0.858 196.317  0.00  0.00    +0.000 OA
ATOM     53  H   UNL     1      17.983  -0.311 197.102  0.00  0.00    +0.000 HD
ENDBRANCH  39  52
ENDBRANCH  29  31
ENDBRANCH   2  29
TORSDOF 14
ENDMDL
MODEL 3
REMARK VINA RESULT:      -8.3      2.553      6.956
REMARK  Name = 
REMARK  14 active torsions:
REMARK  status: ('A' for Active; 'I' for Inactive)
REMARK    1  A    between atoms: O_1  and  C_14
REMARK    2  A    between atoms: O_1  and  C_15
REMARK    3  A    between atoms: O_4  and  C_16
REMARK    4  A    between atoms: O_5  and  C_18
REMARK    5  A    between atoms: O_6  and  C_26
REMARK    6  A    between atoms: O_7  and  C_29
REMARK    7  A    between atoms: O_8  and  C_35
REMARK    8  A    between atoms: O_9  and  C_36
REMARK    9  A    between atoms: O_10  and  C_39
REMARK   10  A    between atoms: O_11  and  C_40
REMARK   11  A    between atoms: O_12  and  C_41
REMARK   12  A    between atoms: O_13  and  C_43
REMARK   13  A    between atoms: C_14  and  C_20
REMARK   14  A    between atoms: C_17  and  C_24
REMARK                            x       y       z     vdW  Elec       q    Type
REMARK                         _______ _______ _______ _____ _____    ______ ____
ROOT
ATOM      1  O   UNL     1      26.425   1.989 191.457  0.00  0.00    +0.000 OA
ATOM      2  C   UNL     1      25.616   1.407 190.426  0.00  0.00    +0.000 C 
ATOM      3  C   UNL     1      26.496   0.873 189.255  0.00  0.00    +0.000 C 
ATOM      4  C   UNL     1      27.391   1.981 188.711  0.00  0.00    +0.000 C 
ATOM      5  C   UNL     1      28.089   2.711 189.819  0.00  0.00    +0.000 A 
ATOM      6  C   UNL     1      27.555   2.676 191.110  0.00  0.00    +0.000 A 
ATOM      7  C   UNL     1      29.247   3.472 189.602  0.00  0.00    +0.000 A 
ATOM      8  C   UNL     1      28.175   3.367 192.154  0.00  0.00    +0.000 A 
ATOM      9  C   UNL     1      29.860   4.181 190.631  0.00  0.00    +0.000 A 
ATOM     10  C   UNL     1      29.318   4.118 191.906  0.00  0.00    +0.000 A 
ENDROOT
BRANCH   2  11
ATOM     11  C   UNL     1      24.527   2.366 189.905  0.00  0.00    +0.000 A 
ATOM     12  C   UNL     1      23.520   1.903 189.029  0.00  0.00    +0.000 A 
ATOM     13  C   UNL     1      24.494   3.721 190.296  0.00  0.00    +0.000 A 
ATOM     14  C   UNL     1      22.538   2.773 188.565  0.00  0.00    +0.000 A 
ATOM     15  C   UNL     1      23.512   4.591 189.813  0.00  0.00    +0.000 A 
ATOM     16  C   UNL     1      22.548   4.110 188.947  0.00  0.00    +0.000 A 
BRANCH  14  17
ATOM     17  O   UNL     1      21.533   2.367 187.734  0.00  0.00    +0.000 OA
ATOM     18  H   UNL     1      21.224   1.479 188.003  0.00  0.00    +0.000 HD
ENDBRANCH  14  17
BRANCH  16  19
ATOM     19  O   UNL     1      21.586   4.958 188.478  0.00  0.00    +0.000 OA
ATOM     20  H   UNL     1      21.614   4.844 187.506  0.00  0.00    +0.000 HD
ENDBRANCH  16  19
ENDBRANCH   2  11
BRANCH   3  21
ATOM     21  O   UNL     1      27.341  -0.238 189.670  0.00  0.00    +0.000 OA
ATOM     22  H   UNL     1      26.716  -0.939 189.946  0.00  0.00    +0.000 HD
ENDBRANCH   3  21
BRANCH   4  23
ATOM     23  O   UNL     1      28.370   1.414 187.823  0.00  0.00    +0.000 OA
ATOM     24  H   UNL     1      29.225   1.777 188.146  0.00  0.00    +0.000 HD
ENDBRANCH   4  23
BRANCH   7  25
ATOM     25  O   UNL     1      29.841   3.539 188.370  0.00  0.00    +0.000 OA
ATOM     26  H   UNL     1      29.598   4.407 187.979  0.00  0.00    +0.000 HD
ENDBRANCH   7  25
BRANCH  10  27
ATOM     27  O   UNL     1      29.882   4.785 192.953  0.00  0.00    +0.000 OA
ATOM     28  H   UNL     1      29.654   5.727 192.876  0.00  0.00    +0.000 HD
ENDBRANCH  10  27
BRANCH   2  29
ATOM     29  O   UNL     1      25.004   0.198 190.956  0.00  0.00    +0.000 OA
BRANCH  29  31
ATOM     30  O   UNL     1      23.499  -0.503 194.269  0.00  0.00    +0.000 OA
ATOM     31  C   UNL     1      25.014   0.031 192.388  0.00  0.00    +0.000 C 
ATOM     32  C   UNL     1      23.594  -0.390 192.842  0.00  0.00    +0.000 C 
ATOM     33  C   UNL     1      25.983  -1.073 192.823  0.00  0.00    +0.000 C 
ATOM     34  C   UNL     1      25.672  -1.601 194.197  0.00  0.00    +0.000 A 
ATOM     35  C   UNL     1      24.468  -1.288 194.833  0.00  0.00    +0.000 A 
ATOM     36  C   UNL     1      26.585  -2.425 194.866  0.00  0.00    +0.000 A 
ATOM     37  C   UNL     1      24.200  -1.748 196.125  0.00  0.00    +0.000 A 
ATOM     38  C   UNL     1      26.323  -2.903 196.148  0.00  0.00    +0.000 A 
ATOM     39  C   UNL     1      25.131  -2.554 196.769  0.00  0.00    +0.000 A 
BRANCH  32  40
ATOM     40  C   UNL     1      22.551   0.624 192.393  0.00  0.00    +0.000 A 
ATOM     41  C   UNL     1      21.524   0.260 191.507  0.00  0.00    +0.000 A 
ATOM     42  C   UNL     1      22.557   1.923 192.932  0.00  0.00    +0.000 A 
ATOM     43  C   UNL     1      20.507   1.165 191.211  0.00  0.00    +0.000 A 
ATOM     44  C   UNL     1      21.545   2.833 192.616  0.00  0.00    +0.000 A 
ATOM     45  C   UNL     1      20.514   2.442 191.768  0.00  0.00    +0.000 A 
BRANCH  43  46
ATOM     46  O   UNL     1      19.456   0.785 190.426  0.00  0.00    +0.000 OA
ATOM     47  H   UNL     1      18.864   1.545 190.298  0.00  0.00    +0.000 HD
ENDBRANCH  43  46
BRANCH  45  48
ATOM     48  O   UNL     1      19.481   3.293 191.496  0.00  0.00    +0.000 OA
ATOM     49  H   UNL     1      19.323   3.305 190.537  0.00  0.00    +0.000 HD
ENDBRANCH  45  48
ENDBRANCH  32  40
BRANCH  36  50
ATOM     50  O   UNL     1      27.753  -2.753 194.236  0.00  0.00    +0.000 OA
ATOM     51  H   UNL     1      28.183  -1.938 193.925  0.00  0.00    +0.000 HD
ENDBRANCH  36  50
BRANCH  39  52
ATOM     52  O   UNL     1      24.907  -3.032 198.027  0.00  0.00    +0.000 OA
ATOM     53  H   UNL     1      23.961  -2.936 198.233  0.00  0.00    +0.000 HD
ENDBRANCH  39  52
ENDBRANCH  29  31
ENDBRANCH   2  29
TORSDOF 14
ENDMDL
MODEL 4
REMARK VINA RESULT:      -8.2      2.872      7.892
REMARK  Name = 
REMARK  14 active torsions:
REMARK  status: ('A' for Active; 'I' for Inactive)
REMARK    1  A    between atoms: O_1  and  C_14
REMARK    2  A    between atoms: O_1  and  C_15
REMARK    3  A    between atoms: O_4  and  C_16
REMARK    4  A    between atoms: O_5  and  C_18
REMARK    5  A    between atoms: O_6  and  C_26
REMARK    6  A    between atoms: O_7  and  C_29
REMARK    7  A    between atoms: O_8  and  C_35
REMARK    8  A    between atoms: O_9  and  C_36
REMARK    9  A    between atoms: O_10  and  C_39
REMARK   10  A    between atoms: O_11  and  C_40
REMARK   11  A    between atoms: O_12  and  C_41
REMARK   12  A    between atoms: O_13  and  C_43
REMARK   13  A    between atoms: C_14  and  C_20
REMARK   14  A    between atoms: C_17  and  C_24
REMARK                            x       y       z     vdW  Elec       q    Type
REMARK                         _______ _______ _______ _____ _____    ______ ____
ROOT
ATOM      1  O   UNL     1      25.538   2.616 190.037  0.00  0.00    +0.000 OA
ATOM      2  C   UNL     1      25.709   1.240 190.400  0.00  0.00    +0.000 C 
ATOM      3  C   UNL     1      25.128   0.294 189.306  0.00  0.00    +0.000 C 
ATOM      4  C   UNL     1      23.664   0.628 189.032  0.00  0.00    +0.000 C 
ATOM      5  C   UNL     1      23.469   2.102 188.843  0.00  0.00    +0.000 A 
ATOM      6  C   UNL     1      24.409   2.995 189.366  0.00  0.00    +0.000 A 
ATOM      7  C   UNL     1      22.345   2.631 188.191  0.00  0.00    +0.000 A 
ATOM      8  C   UNL     1      24.236   4.373 189.222  0.00  0.00    +0.000 A 
ATOM      9  C   UNL     1      22.153   4.003 188.061  0.00  0.00    +0.000 A 
ATOM     10  C   UNL     1      23.108   4.867 188.576  0.00  0.00    +0.000 A 
ENDROOT
BRANCH   2  11
ATOM     11  C   UNL     1      25.121   0.907 191.786  0.00  0.00    +0.000 A 
ATOM     12  C   UNL     1      25.417  -0.321 192.417  0.00  0.00    +0.000 A 
ATOM     13  C   UNL     1      24.287   1.819 192.468  0.00  0.00    +0.000 A 
ATOM     14  C   UNL     1      24.885  -0.614 193.669  0.00  0.00    +0.000 A 
ATOM     15  C   UNL     1      23.746   1.510 193.719  0.00  0.00    +0.000 A 
ATOM     16  C   UNL     1      24.045   0.294 194.304  0.00  0.00    +0.000 A 
BRANCH  14  17
ATOM     17  O   UNL     1      25.159  -1.779 194.328  0.00  0.00    +0.000 OA
ATOM     18  H   UNL     1      24.452  -1.959 194.980  0.00  0.00    +0.000 HD
ENDBRANCH  14  17
BRANCH  16  19
ATOM     19  O   UNL     1      23.519  -0.007 195.528  0.00  0.00    +0.000 OA
ATOM     20  H   UNL     1      22.834  -0.680 195.340  0.00  0.00    +0.000 HD
ENDBRANCH  16  19
ENDBRANCH   2  11
BRANCH   3  21
ATOM     21  O   UNL     1      25.862   0.392 188.053  0.00  0.00    +0.000 OA
ATOM     22  H   UNL     1      25.723   1.313 187.752  0.00  0.00    +0.000 HD
ENDBRANCH   3  21
BRANCH   4  23
ATOM     23  O   UNL     1      23.227  -0.067 187.852  0.00  0.00    +0.000 OA
ATOM     24  H   UNL     1      22.323   0.285 187.688  0.00  0.00    +0.000 HD
ENDBRANCH   4  23
BRANCH   7  25
ATOM     25  O   UNL     1      21.391   1.821 187.634  0.00  0.00    +0.000 OA
ATOM     26  H   UNL     1      20.667   2.404 187.316  0.00  0.00    +0.000 HD
ENDBRANCH   7  25
BRANCH  10  27
ATOM     27  O   UNL     1      22.976   6.220 188.469  0.00  0.00    +0.000 OA
ATOM     28  H   UNL     1      22.168   6.410 187.963  0.00  0.00    +0.000 HD
ENDBRANCH  10  27
BRANCH   2  29
ATOM     29  O   UNL     1      27.132   0.936 190.376  0.00  0.00    +0.000 OA
BRANCH  29  31
ATOM     30  O   UNL     1      29.974   3.228 191.005  0.00  0.00    +0.000 OA
ATOM     31  C   UNL     1      28.029   2.021 190.068  0.00  0.00    +0.000 C 
ATOM     32  C   UNL     1      29.084   2.120 191.197  0.00  0.00    +0.000 C 
ATOM     33  C   UNL     1      28.781   1.780 188.755  0.00  0.00    +0.000 C 
ATOM     34  C   UNL     1      30.034   2.605 188.651  0.00  0.00    +0.000 A 
ATOM     35  C   UNL     1      30.550   3.274 189.765  0.00  0.00    +0.000 A 
ATOM     36  C   UNL     1      30.716   2.713 187.433  0.00  0.00    +0.000 A 
ATOM     37  C   UNL     1      31.692   4.071 189.655  0.00  0.00    +0.000 A 
ATOM     38  C   UNL     1      31.865   3.491 187.315  0.00  0.00    +0.000 A 
ATOM     39  C   UNL     1      32.340   4.170 188.430  0.00  0.00    +0.000 A 
BRANCH  32  40
ATOM     40  C   UNL     1      28.420   2.296 192.556  0.00  0.00    +0.000 A 
ATOM     41  C   UNL     1      27.614   3.413 192.827  0.00  0.00    +0.000 A 
ATOM     42  C   UNL     1      28.543   1.291 193.533  0.00  0.00    +0.000 A 
ATOM     43  C   UNL     1      26.913   3.491 194.028  0.00  0.00    +0.000 A 
ATOM     44  C   UNL     1      27.852   1.384 194.744  0.00  0.00    +0.000 A 
ATOM     45  C   UNL     1      27.026   2.478 194.979  0.00  0.00    +0.000 A 
BRANCH  43  46
ATOM     46  O   UNL     1      26.054   4.527 194.257  0.00  0.00    +0.000 OA
ATOM     47  H   UNL     1      26.493   5.186 194.820  0.00  0.00    +0.000 HD
ENDBRANCH  43  46
BRANCH  45  48
ATOM     48  O   UNL     1      26.293   2.559 196.129  0.00  0.00    +0.000 OA
ATOM     49  H   UNL     1      25.350   2.598 195.901  0.00  0.00    +0.000 HD
ENDBRANCH  45  48
ENDBRANCH  32  40
BRANCH  36  50
ATOM     50  O   UNL     1      30.228   2.039 186.349  0.00  0.00    +0.000 OA
ATOM     51  H   UNL     1      29.385   2.443 186.080  0.00  0.00    +0.000 HD
ENDBRANCH  36  50
BRANCH  39  52
ATOM     52  O   UNL     1      33.464   4.929 188.280  0.00  0.00    +0.000 OA
ATOM     53  H   UNL     1      33.203   5.865 188.235  0.00  0.00    +0.000 HD
ENDBRANCH  39  52
ENDBRANCH  29  31
ENDBRANCH   2  29
TORSDOF 14
ENDMDL
MODEL 5
REMARK VINA RESULT:      -8.0      2.544      3.558
REMARK  Name = 
REMARK  14 active torsions:
REMARK  status: ('A' for Active; 'I' for Inactive)
REMARK    1  A    between atoms: O_1  and  C_14
REMARK    2  A    between atoms: O_1  and  C_15
REMARK    3  A    between atoms: O_4  and  C_16
REMARK    4  A    between atoms: O_5  and  C_18
REMARK    5  A    between atoms: O_6  and  C_26
REMARK    6  A    between atoms: O_7  and  C_29
REMARK    7  A    between atoms: O_8  and  C_35
REMARK    8  A    between atoms: O_9  and  C_36
REMARK    9  A    between atoms: O_10  and  C_39
REMARK   10  A    between atoms: O_11  and  C_40
REMARK   11  A    between atoms: O_12  and  C_41
REMARK   12  A    between atoms: O_13  and  C_43
REMARK   13  A    between atoms: C_14  and  C_20
REMARK   14  A    between atoms: C_17  and  C_24
REMARK                            x       y       z     vdW  Elec       q    Type
REMARK                         _______ _______ _______ _____ _____    ______ ____
ROOT
ATOM      1  O   UNL     1      27.376   1.892 191.185  0.00  0.00    +0.000 OA
ATOM      2  C   UNL     1      26.565   1.979 192.365  0.00  0.00    +0.000 C 
ATOM      3  C   UNL     1      27.159   3.002 193.380  0.00  0.00    +0.000 C 
ATOM      4  C   UNL     1      28.605   2.647 193.714  0.00  0.00    +0.000 C 
ATOM      5  C   UNL     1      29.398   2.369 192.471  0.00  0.00    +0.000 A 
ATOM      6  C   UNL     1      28.733   2.001 191.298  0.00  0.00    +0.000 A 
ATOM      7  C   UNL     1      30.799   2.425 192.450  0.00  0.00    +0.000 A 
ATOM      8  C   UNL     1      29.452   1.715 190.135  0.00  0.00    +0.000 A 
ATOM      9  C   UNL     1      31.525   2.122 191.301  0.00  0.00    +0.000 A 
ATOM     10  C   UNL     1      30.841   1.772 190.147  0.00  0.00    +0.000 A 
ENDROOT
BRANCH   2  11
ATOM     11  C   UNL     1      26.331   0.610 193.034  0.00  0.00    +0.000 A 
ATOM     12  C   UNL     1      25.536   0.505 194.197  0.00  0.00    +0.000 A 
ATOM     13  C   UNL     1      26.887  -0.572 192.502  0.00  0.00    +0.000 A 
ATOM     14  C   UNL     1      25.326  -0.734 194.795  0.00  0.00    +0.000 A 
ATOM     15  C   UNL     1      26.682  -1.810 193.118  0.00  0.00    +0.000 A 
ATOM     16  C   UNL     1      25.910  -1.878 194.262  0.00  0.00    +0.000 A 
BRANCH  14  17
ATOM     17  O   UNL     1      24.548  -0.890 195.907  0.00  0.00    +0.000 OA
ATOM     18  H   UNL     1      23.804  -1.491 195.704  0.00  0.00    +0.000 HD
ENDBRANCH  14  17
BRANCH  16  19
ATOM     19  O   UNL     1      25.706  -3.088 194.862  0.00  0.00    +0.000 OA
ATOM     20  H   UNL     1      25.175  -3.594 194.214  0.00  0.00    +0.000 HD
ENDBRANCH  16  19
ENDBRANCH   2  11
BRANCH   3  21
ATOM     21  O   UNL     1      27.129   4.364 192.865  0.00  0.00    +0.000 OA
ATOM     22  H   UNL     1      26.528   4.326 192.093  0.00  0.00    +0.000 HD
ENDBRANCH   3  21
BRANCH   4  23
ATOM     23  O   UNL     1      29.212   3.734 194.434  0.00  0.00    +0.000 OA
ATOM     24  H   UNL     1      29.525   4.343 193.728  0.00  0.00    +0.000 HD
ENDBRANCH   4  23
BRANCH   7  25
ATOM     25  O   UNL     1      31.520   2.798 193.553  0.00  0.00    +0.000 OA
ATOM     26  H   UNL     1      32.421   3.036 193.242  0.00  0.00    +0.000 HD
ENDBRANCH   7  25
BRANCH  10  27
ATOM     27  O   UNL     1      31.501   1.474 188.991  0.00  0.00    +0.000 OA
ATOM     28  H   UNL     1      31.112   1.999 188.271  0.00  0.00    +0.000 HD
ENDBRANCH  10  27
BRANCH   2  29
ATOM     29  O   UNL     1      25.291   2.580 191.999  0.00  0.00    +0.000 OA
BRANCH  29  31
ATOM     30  O   UNL     1      22.779   1.865 189.371  0.00  0.00    +0.000 OA
ATOM     31  C   UNL     1      24.836   2.378 190.647  0.00  0.00    +0.000 C 
ATOM     32  C   UNL     1      23.304   2.151 190.675  0.00  0.00    +0.000 C 
ATOM     33  C   UNL     1      25.102   3.606 189.769  0.00  0.00    +0.000 C 
ATOM     34  C   UNL     1      24.236   3.632 188.541  0.00  0.00    +0.000 A 
ATOM     35  C   UNL     1      23.141   2.771 188.412  0.00  0.00    +0.000 A 
ATOM     36  C   UNL     1      24.504   4.528 187.499  0.00  0.00    +0.000 A 
ATOM     37  C   UNL     1      22.362   2.772 187.253  0.00  0.00    +0.000 A 
ATOM     38  C   UNL     1      23.725   4.550 186.345  0.00  0.00    +0.000 A 
ATOM     39  C   UNL     1      22.661   3.665 186.231  0.00  0.00    +0.000 A 
BRANCH  32  40
ATOM     40  C   UNL     1      22.938   0.983 191.581  0.00  0.00    +0.000 A 
ATOM     41  C   UNL     1      22.141   1.174 192.721  0.00  0.00    +0.000 A 
ATOM     42  C   UNL     1      23.331  -0.323 191.235  0.00  0.00    +0.000 A 
ATOM     43  C   UNL     1      21.712   0.075 193.462  0.00  0.00    +0.000 A 
ATOM     44  C   UNL     1      22.913  -1.419 191.994  0.00  0.00    +0.000 A 
ATOM     45  C   UNL     1      22.090  -1.215 193.097  0.00  0.00    +0.000 A 
BRANCH  43  46
ATOM     46  O   UNL     1      20.859   0.247 194.515  0.00  0.00    +0.000 OA
ATOM     47  H   UNL     1      19.969   0.436 194.175  0.00  0.00    +0.000 HD
ENDBRANCH  43  46
BRANCH  45  48
ATOM     48  O   UNL     1      21.619  -2.277 193.816  0.00  0.00    +0.000 OA
ATOM     49  H   UNL     1      22.289  -2.980 193.820  0.00  0.00    +0.000 HD
ENDBRANCH  45  48
ENDBRANCH  32  40
BRANCH  36  50
ATOM     50  O   UNL     1      25.558   5.389 187.633  0.00  0.00    +0.000 OA
ATOM     51  H   UNL     1      25.218   6.269 187.865  0.00  0.00    +0.000 HD
ENDBRANCH  36  50
BRANCH  39  52
ATOM     52  O   UNL     1      21.921   3.706 185.085  0.00  0.00    +0.000 OA
ATOM     53  H   UNL     1      20.978   3.687 185.321  0.00  0.00    +0.000 HD
ENDBRANCH  39  52
ENDBRANCH  29  31
ENDBRANCH   2  29
TORSDOF 14
ENDMDL
MODEL 6
REMARK VINA RESULT:      -7.9     33.814     37.109
REMARK  Name = 
REMARK  14 active torsions:
REMARK  status: ('A' for Active; 'I' for Inactive)
REMARK    1  A    between atoms: O_1  and  C_14
REMARK    2  A    between atoms: O_1  and  C_15
REMARK    3  A    between atoms: O_4  and  C_16
REMARK    4  A    between atoms: O_5  and  C_18
REMARK    5  A    between atoms: O_6  and  C_26
REMARK    6  A    between atoms: O_7  and  C_29
REMARK    7  A    between atoms: O_8  and  C_35
REMARK    8  A    between atoms: O_9  and  C_36
REMARK    9  A    between atoms: O_10  and  C_39
REMARK   10  A    between atoms: O_11  and  C_40
REMARK   11  A    between atoms: O_12  and  C_41
REMARK   12  A    between atoms: O_13  and  C_43
REMARK   13  A    between atoms: C_14  and  C_20
REMARK   14  A    between atoms: C_17  and  C_24
REMARK                            x       y       z     vdW  Elec       q    Type
REMARK                         _______ _______ _______ _____ _____    ______ ____
ROOT
ATOM      1  O   UNL     1      41.248 -21.731 168.329  0.00  0.00    +0.000 OA
ATOM      2  C   UNL     1      41.136 -20.494 169.047  0.00  0.00    +0.000 C 
ATOM      3  C   UNL     1      41.137 -19.277 168.073  0.00  0.00    +0.000 C 
ATOM      4  C   UNL     1      42.378 -19.304 167.186  0.00  0.00    +0.000 C 
ATOM      5  C   UNL     1      42.593 -20.663 166.590  0.00  0.00    +0.000 A 
ATOM      6  C   UNL     1      42.025 -21.782 167.206  0.00  0.00    +0.000 A 
ATOM      7  C   UNL     1      43.385 -20.865 165.450  0.00  0.00    +0.000 A 
ATOM      8  C   UNL     1      42.231 -23.061 166.683  0.00  0.00    +0.000 A 
ATOM      9  C   UNL     1      43.612 -22.137 164.933  0.00  0.00    +0.000 A 
ATOM     10  C   UNL     1      43.026 -23.229 165.555  0.00  0.00    +0.000 A 
ENDROOT
BRANCH   2  11
ATOM     11  C   UNL     1      42.215 -20.332 170.135  0.00  0.00    +0.000 A 
ATOM     12  C   UNL     1      43.166 -21.352 170.364  0.00  0.00    +0.000 A 
ATOM     13  C   UNL     1      42.297 -19.162 170.920  0.00  0.00    +0.000 A 
ATOM     14  C   UNL     1      44.139 -21.198 171.346  0.00  0.00    +0.000 A 
ATOM     15  C   UNL     1      43.270 -19.022 171.914  0.00  0.00    +0.000 A 
ATOM     16  C   UNL     1      44.177 -20.045 172.122  0.00  0.00    +0.000 A 
BRANCH  14  17
ATOM     17  O   UNL     1      45.091 -22.147 171.590  0.00  0.00    +0.000 OA
ATOM     18  H   UNL     1      45.558 -21.934 172.423  0.00  0.00    +0.000 HD
ENDBRANCH  14  17
BRANCH  16  19
ATOM     19  O   UNL     1      45.130 -19.907 173.090  0.00  0.00    +0.000 OA
ATOM     20  H   UNL     1      45.605 -20.764 173.087  0.00  0.00    +0.000 HD
ENDBRANCH  16  19
ENDBRANCH   2  11
BRANCH   3  21
ATOM     21  O   UNL     1      39.961 -19.263 167.215  0.00  0.00    +0.000 OA
ATOM     22  H   UNL     1      39.486 -18.441 167.455  0.00  0.00    +0.000 HD
ENDBRANCH   3  21
BRANCH   4  23
ATOM     23  O   UNL     1      42.234 -18.338 166.130  0.00  0.00    +0.000 OA
ATOM     24  H   UNL     1      41.268 -18.326 165.948  0.00  0.00    +0.000 HD
ENDBRANCH   4  23
BRANCH   7  25
ATOM     25  O   UNL     1      43.957 -19.817 164.780  0.00  0.00    +0.000 OA
ATOM     26  H   UNL     1      43.727 -18.998 165.272  0.00  0.00    +0.000 HD
ENDBRANCH   7  25
BRANCH  10  27
ATOM     27  O   UNL     1      43.207 -24.497 165.086  0.00  0.00    +0.000 OA
ATOM     28  H   UNL     1      43.263 -25.101 165.846  0.00  0.00    +0.000 HD
ENDBRANCH  10  27
BRANCH   2  29
ATOM     29  O   UNL     1      39.811 -20.435 169.646  0.00  0.00    +0.000 OA
BRANCH  29  31
ATOM     30  O   UNL     1      37.851 -22.964 171.515  0.00  0.00    +0.000 OA
ATOM     31  C   UNL     1      39.110 -21.683 169.813  0.00  0.00    +0.000 C 
ATOM     32  C   UNL     1      38.504 -21.717 171.238  0.00  0.00    +0.000 C 
ATOM     33  C   UNL     1      37.953 -21.822 168.818  0.00  0.00    +0.000 C 
ATOM     34  C   UNL     1      36.932 -22.832 169.263  0.00  0.00    +0.000 A 
ATOM     35  C   UNL     1      36.941 -23.340 170.565  0.00  0.00    +0.000 A 
ATOM     36  C   UNL     1      35.943 -23.281 168.379  0.00  0.00    +0.000 A 
ATOM     37  C   UNL     1      36.015 -24.308 170.962  0.00  0.00    +0.000 A 
ATOM     38  C   UNL     1      35.003 -24.233 168.768  0.00  0.00    +0.000 A 
ATOM     39  C   UNL     1      35.052 -24.743 170.059  0.00  0.00    +0.000 A 
BRANCH  32  40
ATOM     40  C   UNL     1      39.580 -21.520 172.298  0.00  0.00    +0.000 A 
ATOM     41  C   UNL     1      39.613 -20.359 173.086  0.00  0.00    +0.000 A 
ATOM     42  C   UNL     1      40.509 -22.545 172.554  0.00  0.00    +0.000 A 
ATOM     43  C   UNL     1      40.525 -20.256 174.135  0.00  0.00    +0.000 A 
ATOM     44  C   UNL     1      41.433 -22.427 173.595  0.00  0.00    +0.000 A 
ATOM     45  C   UNL     1      41.426 -21.287 174.392  0.00  0.00    +0.000 A 
BRANCH  43  46
ATOM     46  O   UNL     1      40.498 -19.172 174.965  0.00  0.00    +0.000 OA
ATOM     47  H   UNL     1      41.327 -19.139 175.471  0.00  0.00    +0.000 HD
ENDBRANCH  43  46
BRANCH  45  48
ATOM     48  O   UNL     1      42.278 -21.179 175.454  0.00  0.00    +0.000 OA
ATOM     49  H   UNL     1      42.046 -21.850 176.117  0.00  0.00    +0.000 HD
ENDBRANCH  45  48
ENDBRANCH  32  40
BRANCH  36  50
ATOM     50  O   UNL     1      35.916 -22.768 167.112  0.00  0.00    +0.000 OA
ATOM     51  H   UNL     1      35.640 -21.836 167.156  0.00  0.00    +0.000 HD
ENDBRANCH  36  50
BRANCH  39  52
ATOM     52  O   UNL     1      34.123 -25.680 170.407  0.00  0.00    +0.000 OA
ATOM     53  H   UNL     1      33.399 -25.238 170.883  0.00  0.00    +0.000 HD
ENDBRANCH  39  52
ENDBRANCH  29  31
ENDBRANCH   2  29
TORSDOF 14
ENDMDL
MODEL 7
REMARK VINA RESULT:      -7.9      2.036      2.630
REMARK  Name = 
REMARK  14 active torsions:
REMARK  status: ('A' for Active; 'I' for Inactive)
REMARK    1  A    between atoms: O_1  and  C_14
REMARK    2  A    between atoms: O_1  and  C_15
REMARK    3  A    between atoms: O_4  and  C_16
REMARK    4  A    between atoms: O_5  and  C_18
REMARK    5  A    between atoms: O_6  and  C_26
REMARK    6  A    between atoms: O_7  and  C_29
REMARK    7  A    between atoms: O_8  and  C_35
REMARK    8  A    between atoms: O_9  and  C_36
REMARK    9  A    between atoms: O_10  and  C_39
REMARK   10  A    between atoms: O_11  and  C_40
REMARK   11  A    between atoms: O_12  and  C_41
REMARK   12  A    between atoms: O_13  and  C_43
REMARK   13  A    between atoms: C_14  and  C_20
REMARK   14  A    between atoms: C_17  and  C_24
REMARK                            x       y       z     vdW  Elec       q    Type
REMARK                         _______ _______ _______ _____ _____    ______ ____
ROOT
ATOM      1  O   UNL     1      25.889   2.023 192.370  0.00  0.00    +0.000 OA
ATOM      2  C   UNL     1      24.914   2.111 193.418  0.00  0.00    +0.000 C 
ATOM      3  C   UNL     1      25.244   3.279 194.396  0.00  0.00    +0.000 C 
ATOM      4  C   UNL     1      26.656   3.129 194.951  0.00  0.00    +0.000 C 
ATOM      5  C   UNL     1      27.644   2.845 193.859  0.00  0.00    +0.000 A 
ATOM      6  C   UNL     1      27.197   2.303 192.650  0.00  0.00    +0.000 A 
ATOM      7  C   UNL     1      29.020   3.066 194.017  0.00  0.00    +0.000 A 
ATOM      8  C   UNL     1      28.101   2.008 191.627  0.00  0.00    +0.000 A 
ATOM      9  C   UNL     1      29.931   2.757 193.011  0.00  0.00    +0.000 A 
ATOM     10  C   UNL     1      29.459   2.232 191.817  0.00  0.00    +0.000 A 
ENDROOT
BRANCH   2  11
ATOM     11  C   UNL     1      24.734   0.785 194.183  0.00  0.00    +0.000 A 
ATOM     12  C   UNL     1      25.513  -0.347 193.854  0.00  0.00    +0.000 A 
ATOM     13  C   UNL     1      23.804   0.666 195.238  0.00  0.00    +0.000 A 
ATOM     14  C   UNL     1      25.347  -1.540 194.551  0.00  0.00    +0.000 A 
ATOM     15  C   UNL     1      23.635  -0.541 195.922  0.00  0.00    +0.000 A 
ATOM     16  C   UNL     1      24.403  -1.634 195.567  0.00  0.00    +0.000 A 
BRANCH  14  17
ATOM     17  O   UNL     1      26.090  -2.654 194.283  0.00  0.00    +0.000 OA
ATOM     18  H   UNL     1      26.593  -2.911 195.083  0.00  0.00    +0.000 HD
ENDBRANCH  14  17
BRANCH  16  19
ATOM     19  O   UNL     1      24.241  -2.812 196.238  0.00  0.00    +0.000 OA
ATOM     20  H   UNL     1      25.118  -3.245 196.185  0.00  0.00    +0.000 HD
ENDBRANCH  16  19
ENDBRANCH   2  11
BRANCH   3  21
ATOM     21  O   UNL     1      25.141   4.579 193.748  0.00  0.00    +0.000 OA
ATOM     22  H   UNL     1      24.664   4.405 192.911  0.00  0.00    +0.000 HD
ENDBRANCH   3  21
BRANCH   4  23
ATOM     23  O   UNL     1      27.034   4.337 195.633  0.00  0.00    +0.000 OA
ATOM     24  H   UNL     1      27.378   4.918 194.918  0.00  0.00    +0.000 HD
ENDBRANCH   4  23
BRANCH   7  25
ATOM     25  O   UNL     1      29.531   3.614 195.163  0.00  0.00    +0.000 OA
ATOM     26  H   UNL     1      30.437   3.931 194.952  0.00  0.00    +0.000 HD
ENDBRANCH   7  25
BRANCH  10  27
ATOM     27  O   UNL     1      30.306   1.919 190.794  0.00  0.00    +0.000 OA
ATOM     28  H   UNL     1      29.781   1.807 189.984  0.00  0.00    +0.000 HD
ENDBRANCH  10  27
BRANCH   2  29
ATOM     29  O   UNL     1      23.648   2.522 192.829  0.00  0.00    +0.000 OA
BRANCH  29  31
ATOM     30  O   UNL     1      21.579   1.678 189.873  0.00  0.00    +0.000 OA
ATOM     31  C   UNL     1      23.421   2.168 191.450  0.00  0.00    +0.000 C 
ATOM     32  C   UNL     1      21.892   2.100 191.208  0.00  0.00    +0.000 C 
ATOM     33  C   UNL     1      23.992   3.219 190.493  0.00  0.00    +0.000 C 
ATOM     34  C   UNL     1      23.371   3.149 189.126  0.00  0.00    +0.000 A 
ATOM     35  C   UNL     1      22.218   2.391 188.896  0.00  0.00    +0.000 A 
ATOM     36  C   UNL     1      23.932   3.850 188.051  0.00  0.00    +0.000 A 
ATOM     37  C   UNL     1      21.666   2.297 187.617  0.00  0.00    +0.000 A 
ATOM     38  C   UNL     1      23.381   3.778 186.774  0.00  0.00    +0.000 A 
ATOM     39  C   UNL     1      22.253   2.994 186.567  0.00  0.00    +0.000 A 
BRANCH  32  40
ATOM     40  C   UNL     1      21.227   1.121 192.166  0.00  0.00    +0.000 A 
ATOM     41  C   UNL     1      21.644  -0.217 192.236  0.00  0.00    +0.000 A 
ATOM     42  C   UNL     1      20.236   1.574 193.055  0.00  0.00    +0.000 A 
ATOM     43  C   UNL     1      21.112  -1.061 193.208  0.00  0.00    +0.000 A 
ATOM     44  C   UNL     1      19.691   0.717 194.015  0.00  0.00    +0.000 A 
ATOM     45  C   UNL     1      20.145  -0.595 194.097  0.00  0.00    +0.000 A 
BRANCH  43  46
ATOM     46  O   UNL     1      21.582  -2.336 193.344  0.00  0.00    +0.000 OA
ATOM     47  H   UNL     1      22.494  -2.304 193.680  0.00  0.00    +0.000 HD
ENDBRANCH  43  46
BRANCH  45  48
ATOM     48  O   UNL     1      19.673  -1.432 195.068  0.00  0.00    +0.000 OA
ATOM     49  H   UNL     1      20.071  -1.186 195.919  0.00  0.00    +0.000 HD
ENDBRANCH  45  48
ENDBRANCH  32  40
BRANCH  36  50
ATOM     50  O   UNL     1      25.044   4.612 188.278  0.00  0.00    +0.000 OA
ATOM     51  H   UNL     1      25.238   5.131 187.479  0.00  0.00    +0.000 HD
ENDBRANCH  36  50
BRANCH  39  52
ATOM     52  O   UNL     1      21.743   2.938 185.303  0.00  0.00    +0.000 OA
ATOM     53  H   UNL     1      21.038   2.268 185.281  0.00  0.00    +0.000 HD
ENDBRANCH  39  52
ENDBRANCH  29  31
ENDBRANCH   2  29
TORSDOF 14
ENDMDL
MODEL 8
REMARK VINA RESULT:      -7.2      3.020      4.895
REMARK  Name = 
REMARK  14 active torsions:
REMARK  status: ('A' for Active; 'I' for Inactive)
REMARK    1  A    between atoms: O_1  and  C_14
REMARK    2  A    between atoms: O_1  and  C_15
REMARK    3  A    between atoms: O_4  and  C_16
REMARK    4  A    between atoms: O_5  and  C_18
REMARK    5  A    between atoms: O_6  and  C_26
REMARK    6  A    between atoms: O_7  and  C_29
REMARK    7  A    between atoms: O_8  and  C_35
REMARK    8  A    between atoms: O_9  and  C_36
REMARK    9  A    between atoms: O_10  and  C_39
REMARK   10  A    between atoms: O_11  and  C_40
REMARK   11  A    between atoms: O_12  and  C_41
REMARK   12  A    between atoms: O_13  and  C_43
REMARK   13  A    between atoms: C_14  and  C_20
REMARK   14  A    between atoms: C_17  and  C_24
REMARK                            x       y       z     vdW  Elec       q    Type
REMARK                         _______ _______ _______ _____ _____    ______ ____
ROOT
ATOM      1  O   UNL     1      28.409   1.878 190.959  0.00  0.00    +0.000 OA
ATOM      2  C   UNL     1      28.408   2.028 192.385  0.00  0.00    +0.000 C 
ATOM      3  C   UNL     1      29.018   3.399 192.806  0.00  0.00    +0.000 C 
ATOM      4  C   UNL     1      30.419   3.562 192.224  0.00  0.00    +0.000 C 
ATOM      5  C   UNL     1      30.446   3.215 190.766  0.00  0.00    +0.000 A 
ATOM      6  C   UNL     1      29.450   2.390 190.235  0.00  0.00    +0.000 A 
ATOM      7  C   UNL     1      31.467   3.655 189.910  0.00  0.00    +0.000 A 
ATOM      8  C   UNL     1      29.468   2.034 188.885  0.00  0.00    +0.000 A 
ATOM      9  C   UNL     1      31.504   3.289 188.568  0.00  0.00    +0.000 A 
ATOM     10  C   UNL     1      30.496   2.481 188.063  0.00  0.00    +0.000 A 
ENDROOT
BRANCH   2  11
ATOM     11  C   UNL     1      29.109   0.865 193.112  0.00  0.00    +0.000 A 
ATOM     12  C   UNL     1      29.966  -0.011 192.409  0.00  0.00    +0.000 A 
ATOM     13  C   UNL     1      28.931   0.649 194.495  0.00  0.00    +0.000 A 
ATOM     14  C   UNL     1      30.599  -1.058 193.072  0.00  0.00    +0.000 A 
ATOM     15  C   UNL     1      29.560  -0.414 195.150  0.00  0.00    +0.000 A 
ATOM     16  C   UNL     1      30.382  -1.262 194.430  0.00  0.00    +0.000 A 
BRANCH  14  17
ATOM     17  O   UNL     1      31.452  -1.918 192.440  0.00  0.00    +0.000 OA
ATOM     18  H   UNL     1      30.976  -2.742 192.211  0.00  0.00    +0.000 HD
ENDBRANCH  14  17
BRANCH  16  19
ATOM     19  O   UNL     1      31.000  -2.298 195.070  0.00  0.00    +0.000 OA
ATOM     20  H   UNL     1      30.434  -3.073 194.878  0.00  0.00    +0.000 HD
ENDBRANCH  16  19
ENDBRANCH   2  11
BRANCH   3  21
ATOM     21  O   UNL     1      28.203   4.521 192.360  0.00  0.00    +0.000 OA
ATOM     22  H   UNL     1      28.006   5.026 193.175  0.00  0.00    +0.000 HD
ENDBRANCH   3  21
BRANCH   4  23
ATOM     23  O   UNL     1      30.856   4.921 192.399  0.00  0.00    +0.000 OA
ATOM     24  H   UNL     1      30.054   5.390 192.723  0.00  0.00    +0.000 HD
ENDBRANCH   4  23
BRANCH   7  25
ATOM     25  O   UNL     1      32.465   4.483 190.350  0.00  0.00    +0.000 OA
ATOM     26  H   UNL     1      32.209   5.400 190.109  0.00  0.00    +0.000 HD
ENDBRANCH   7  25
BRANCH  10  27
ATOM     27  O   UNL     1      30.479   2.099 186.754  0.00  0.00    +0.000 OA
ATOM     28  H   UNL     1      31.319   1.654 186.553  0.00  0.00    +0.000 HD
ENDBRANCH  10  27
BRANCH   2  29
ATOM     29  O   UNL     1      27.025   2.133 192.829  0.00  0.00    +0.000 OA
BRANCH  29  31
ATOM     30  O   UNL     1      23.907   0.440 191.763  0.00  0.00    +0.000 OA
ATOM     31  C   UNL     1      26.003   1.748 191.889  0.00  0.00    +0.000 C 
ATOM     32  C   UNL     1      24.926   0.930 192.645  0.00  0.00    +0.000 C 
ATOM     33  C   UNL     1      25.308   2.967 191.275  0.00  0.00    +0.000 C 
ATOM     34  C   UNL     1      23.963   2.628 190.694  0.00  0.00    +0.000 A 
ATOM     35  C   UNL     1      23.349   1.402 190.965  0.00  0.00    +0.000 A 
ATOM     36  C   UNL     1      23.292   3.543 189.873  0.00  0.00    +0.000 A 
ATOM     37  C   UNL     1      22.118   1.076 190.393  0.00  0.00    +0.000 A 
ATOM     38  C   UNL     1      22.055   3.236 189.309  0.00  0.00    +0.000 A 
ATOM     39  C   UNL     1      21.481   1.999 189.571  0.00  0.00    +0.000 A 
BRANCH  32  40
ATOM     40  C   UNL     1      25.542  -0.274 193.346  0.00  0.00    +0.000 A 
ATOM     41  C   UNL     1      25.362  -0.478 194.723  0.00  0.00    +0.000 A 
ATOM     42  C   UNL     1      26.232  -1.245 192.597  0.00  0.00    +0.000 A 
ATOM     43  C   UNL     1      25.823  -1.650 195.318  0.00  0.00    +0.000 A 
ATOM     44  C   UNL     1      26.708  -2.410 193.204  0.00  0.00    +0.000 A 
ATOM     45  C   UNL     1      26.486  -2.614 194.562  0.00  0.00    +0.000 A 
BRANCH  43  46
ATOM     46  O   UNL     1      25.567  -1.898 196.637  0.00  0.00    +0.000 OA
ATOM     47  H   UNL     1      25.820  -1.120 197.161  0.00  0.00    +0.000 HD
ENDBRANCH  43  46
BRANCH  45  48
ATOM     48  O   UNL     1      26.887  -3.773 195.162  0.00  0.00    +0.000 OA
ATOM     49  H   UNL     1      27.034  -4.450 194.481  0.00  0.00    +0.000 HD
ENDBRANCH  45  48
ENDBRANCH  32  40
BRANCH  36  50
ATOM     50  O   UNL     1      23.877   4.753 189.627  0.00  0.00    +0.000 OA
ATOM     51  H   UNL     1      24.820   4.699 189.858  0.00  0.00    +0.000 HD
ENDBRANCH  36  50
BRANCH  39  52
ATOM     52  O   UNL     1      20.273   1.726 188.998  0.00  0.00    +0.000 OA
ATOM     53  H   UNL     1      20.423   1.219 188.181  0.00  0.00    +0.000 HD
ENDBRANCH  39  52
ENDBRANCH  29  31
ENDBRANCH   2  29
TORSDOF 14
ENDMDL
MODEL 9
REMARK VINA RESULT:      -7.2     26.016     29.789
REMARK  Name = 
REMARK  14 active torsions:
REMARK  status: ('A' for Active; 'I' for Inactive)
REMARK    1  A    between atoms: O_1  and  C_14
REMARK    2  A    between atoms: O_1  and  C_15
REMARK    3  A    between atoms: O_4  and  C_16
REMARK    4  A    between atoms: O_5  and  C_18
REMARK    5  A    between atoms: O_6  and  C_26
REMARK    6  A    between atoms: O_7  and  C_29
REMARK    7  A    between atoms: O_8  and  C_35
REMARK    8  A    between atoms: O_9  and  C_36
REMARK    9  A    between atoms: O_10  and  C_39
REMARK   10  A    between atoms: O_11  and  C_40
REMARK   11  A    between atoms: O_12  and  C_41
REMARK   12  A    between atoms: O_13  and  C_43
REMARK   13  A    between atoms: C_14  and  C_20
REMARK   14  A    between atoms: C_17  and  C_24
REMARK                            x       y       z     vdW  Elec       q    Type
REMARK                         _______ _______ _______ _____ _____    ______ ____
ROOT
ATOM      1  O   UNL     1      28.049  -3.107 165.089  0.00  0.00    +0.000 OA
ATOM      2  C   UNL     1      28.258  -3.437 163.709  0.00  0.00    +0.000 C 
ATOM      3  C   UNL     1      29.777  -3.571 163.387  0.00  0.00    +0.000 C 
ATOM      4  C   UNL     1      30.521  -2.298 163.782  0.00  0.00    +0.000 C 
ATOM      5  C   UNL     1      30.145  -1.855 165.164  0.00  0.00    +0.000 A 
ATOM      6  C   UNL     1      28.934  -2.278 165.718  0.00  0.00    +0.000 A 
ATOM      7  C   UNL     1      30.951  -0.987 165.917  0.00  0.00    +0.000 A 
ATOM      8  C   UNL     1      28.552  -1.858 166.995  0.00  0.00    +0.000 A 
ATOM      9  C   UNL     1      30.570  -0.548 167.181  0.00  0.00    +0.000 A 
ATOM     10  C   UNL     1      29.369  -0.994 167.713  0.00  0.00    +0.000 A 
ENDROOT
BRANCH   2  11
ATOM     11  C   UNL     1      27.574  -2.448 162.745  0.00  0.00    +0.000 A 
ATOM     12  C   UNL     1      26.509  -1.632 163.187  0.00  0.00    +0.000 A 
ATOM     13  C   UNL     1      27.998  -2.317 161.405  0.00  0.00    +0.000 A 
ATOM     14  C   UNL     1      25.898  -0.740 162.311  0.00  0.00    +0.000 A 
ATOM     15  C   UNL     1      27.369  -1.427 160.530  0.00  0.00    +0.000 A 
ATOM     16  C   UNL     1      26.320  -0.652 160.990  0.00  0.00    +0.000 A 
BRANCH  14  17
ATOM     17  O   UNL     1      24.879   0.084 162.698  0.00  0.00    +0.000 OA
ATOM     18  H   UNL     1      24.199  -0.436 163.172  0.00  0.00    +0.000 HD
ENDBRANCH  14  17
BRANCH  16  19
ATOM     19  O   UNL     1      25.707   0.220 160.136  0.00  0.00    +0.000 OA
ATOM     20  H   UNL     1      25.995   1.104 160.444  0.00  0.00    +0.000 HD
ENDBRANCH  16  19
ENDBRANCH   2  11
BRANCH   3  21
ATOM     21  O   UNL     1      30.387  -4.693 164.086  0.00  0.00    +0.000 OA
ATOM     22  H   UNL     1      30.563  -4.361 164.989  0.00  0.00    +0.000 HD
ENDBRANCH   3  21
BRANCH   4  23
ATOM     23  O   UNL     1      31.938  -2.534 163.725  0.00  0.00    +0.000 OA
ATOM     24  H   UNL     1      32.079  -2.933 162.837  0.00  0.00    +0.000 HD
ENDBRANCH   4  23
BRANCH   7  25
ATOM     25  O   UNL     1      32.161  -0.546 165.451  0.00  0.00    +0.000 OA
ATOM     26  H   UNL     1      31.976   0.137 164.768  0.00  0.00    +0.000 HD
ENDBRANCH   7  25
BRANCH  10  27
ATOM     27  O   UNL     1      28.951  -0.602 168.951  0.00  0.00    +0.000 OA
ATOM     28  H   UNL     1      28.240   0.052 168.842  0.00  0.00    +0.000 HD
ENDBRANCH  10  27
BRANCH   2  29
ATOM     29  O   UNL     1      27.754  -4.784 163.482  0.00  0.00    +0.000 OA
BRANCH  29  31
ATOM     30  O   UNL     1      24.652  -6.514 164.538  0.00  0.00    +0.000 OA
ATOM     31  C   UNL     1      26.804  -5.298 164.437  0.00  0.00    +0.000 C 
ATOM     32  C   UNL     1      25.683  -6.036 163.663  0.00  0.00    +0.000 C 
ATOM     33  C   UNL     1      27.448  -6.310 165.389  0.00  0.00    +0.000 C 
ATOM     34  C   UNL     1      26.435  -7.205 166.047  0.00  0.00    +0.000 A 
ATOM     35  C   UNL     1      25.113  -7.253 165.593  0.00  0.00    +0.000 A 
ATOM     36  C   UNL     1      26.797  -8.016 167.129  0.00  0.00    +0.000 A 
ATOM     37  C   UNL     1      24.165  -8.056 166.232  0.00  0.00    +0.000 A 
ATOM     38  C   UNL     1      25.865  -8.834 167.765  0.00  0.00    +0.000 A 
ATOM     39  C   UNL     1      24.552  -8.841 167.312  0.00  0.00    +0.000 A 
BRANCH  32  40
ATOM     40  C   UNL     1      25.026  -5.118 162.640  0.00  0.00    +0.000 A 
ATOM     41  C   UNL     1      24.070  -4.168 163.032  0.00  0.00    +0.000 A 
ATOM     42  C   UNL     1      25.435  -5.159 161.295  0.00  0.00    +0.000 A 
ATOM     43  C   UNL     1      23.578  -3.253 162.103  0.00  0.00    +0.000 A 
ATOM     44  C   UNL     1      24.923  -4.252 160.364  0.00  0.00    +0.000 A 
ATOM     45  C   UNL     1      24.006  -3.291 160.778  0.00  0.00    +0.000 A 
BRANCH  43  46
ATOM     46  O   UNL     1      22.721  -2.266 162.498  0.00  0.00    +0.000 OA
ATOM     47  H   UNL     1      21.883  -2.360 162.015  0.00  0.00    +0.000 HD
ENDBRANCH  43  46
BRANCH  45  48
ATOM     48  O   UNL     1      23.541  -2.354 159.900  0.00  0.00    +0.000 OA
ATOM     49  H   UNL     1      23.313  -2.790 159.062  0.00  0.00    +0.000 HD
ENDBRANCH  45  48
ENDBRANCH  32  40
BRANCH  36  50
ATOM     50  O   UNL     1      28.094  -7.990 167.560  0.00  0.00    +0.000 OA
ATOM     51  H   UNL     1      28.382  -7.065 167.637  0.00  0.00    +0.000 HD
ENDBRANCH  36  50
BRANCH  39  52
ATOM     52  O   UNL     1      23.662  -9.646 167.960  0.00  0.00    +0.000 OA
ATOM     53  H   UNL     1      23.655 -10.516 167.525  0.00  0.00    +0.000 HD
ENDBRANCH  39  52
ENDBRANCH  29  31
ENDBRANCH   2  29
TORSDOF 14
ENDMDL
