MODEL 1
REMARK VINA RESULT:      -6.7      0.000      0.000
REMARK  Name = Progesterone.pdbqt.pdb
REMARK  1 active torsions:
REMARK  status: ('A' for Active; 'I' for Inactive)
REMARK    1  A    between atoms: C_7  and  C_21
REMARK                            x       y       z     vdW  Elec       q    Type
REMARK                         _______ _______ _______ _____ _____    ______ ____
ROOT
ATOM      1  O   UNL     1      43.923   3.308 183.194  0.00  0.00    +0.000 OA
ATOM      2  C   UNL     1      43.207   2.234 175.648  0.00  0.00    +0.000 C 
ATOM      3  C   UNL     1      42.567   3.366 174.674  0.00  0.00    +0.000 C 
ATOM      4  C   UNL     1      43.878   2.571 176.918  0.00  0.00    +0.000 C 
ATOM      5  C   UNL     1      43.838   3.903 177.616  0.00  0.00    +0.000 C 
ATOM      6  C   UNL     1      44.655   4.239 178.882  0.00  0.00    +0.000 C 
ATOM      7  C   UNL     1      41.265   2.749 174.256  0.00  0.00    +0.000 C 
ATOM      8  C   UNL     1      42.450   4.546 175.530  0.00  0.00    +0.000 C 
ATOM      9  C   UNL     1      43.049   4.833 176.885  0.00  0.00    +0.000 C 
ATOM     10  C   UNL     1      42.370   1.077 175.560  0.00  0.00    +0.000 C 
ATOM     11  C   UNL     1      44.532   1.579 177.685  0.00  0.00    +0.000 C 
ATOM     12  C   UNL     1      41.162   1.409 174.725  0.00  0.00    +0.000 C 
ATOM     13  C   UNL     1      45.160   2.928 179.760  0.00  0.00    +0.000 C 
ATOM     14  C   UNL     1      43.538   3.523 173.481  0.00  0.00    +0.000 C 
ATOM     15  C   UNL     1      45.155   1.706 179.043  0.00  0.00    +0.000 C 
ATOM     16  C   UNL     1      43.805   4.988 179.867  0.00  0.00    +0.000 C 
ATOM     17  C   UNL     1      45.925   5.039 178.491  0.00  0.00    +0.000 C 
ATOM     18  C   UNL     1      43.505   4.777 181.368  0.00  0.00    +0.000 C 
ATOM     19  C   UNL     1      44.855   2.892 181.040  0.00  0.00    +0.000 C 
ATOM     20  C   UNL     1      44.088   3.629 182.034  0.00  0.00    +0.000 C 
ENDROOT
BRANCH   7  21
ATOM     21  C   UNL     1      40.279   3.421 173.445  0.00  0.00    +0.000 C 
ATOM     22  O   UNL     1      39.250   3.927 173.863  0.00  0.00    +0.000 OA
ATOM     23  C   UNL     1      40.433   3.673 171.982  0.00  0.00    +0.000 C 
ENDBRANCH   7  21
TORSDOF 1
ENDMDL
MODEL 2
REMARK VINA RESULT:      -6.3     34.012     36.821
REMARK  Name = Progesterone.pdbqt.pdb
REMARK  1 active torsions:
REMARK  status: ('A' for Active; 'I' for Inactive)
REMARK    1  A    between atoms: C_7  and  C_21
REMARK                            x       y       z     vdW  Elec       q    Type
REMARK                         _______ _______ _______ _____ _____    ______ ____
ROOT
ATOM      1  O   UNL     1      13.661 -24.093 176.920  0.00  0.00    +0.000 OA
ATOM      2  C   UNL     1      13.191 -16.492 177.703  0.00  0.00    +0.000 C 
ATOM      3  C   UNL     1      13.830 -15.717 178.979  0.00  0.00    +0.000 C 
ATOM      4  C   UNL     1      13.718 -17.782 177.215  0.00  0.00    +0.000 C 
ATOM      5  C   UNL     1      14.689 -18.672 177.938  0.00  0.00    +0.000 C 
ATOM      6  C   UNL     1      15.302 -19.954 177.332  0.00  0.00    +0.000 C 
ATOM      7  C   UNL     1      12.618 -15.244 179.725  0.00  0.00    +0.000 C 
ATOM      8  C   UNL     1      14.619 -16.744 179.660  0.00  0.00    +0.000 C 
ATOM      9  C   UNL     1      15.054 -18.111 179.193  0.00  0.00    +0.000 C 
ATOM     10  C   UNL     1      11.781 -16.252 177.725  0.00  0.00    +0.000 C 
ATOM     11  C   UNL     1      13.220 -18.373 176.030  0.00  0.00    +0.000 C 
ATOM     12  C   UNL     1      11.430 -15.508 178.986  0.00  0.00    +0.000 C 
ATOM     13  C   UNL     1      14.449 -20.611 176.073  0.00  0.00    +0.000 C 
ATOM     14  C   UNL     1      14.653 -14.537 178.412  0.00  0.00    +0.000 C 
ATOM     15  C   UNL     1      13.542 -19.718 175.451  0.00  0.00    +0.000 C 
ATOM     16  C   UNL     1      15.301 -21.062 178.345  0.00  0.00    +0.000 C 
ATOM     17  C   UNL     1      16.730 -19.655 176.806  0.00  0.00    +0.000 C 
ATOM     18  C   UNL     1      14.794 -22.521 178.303  0.00  0.00    +0.000 C 
ATOM     19  C   UNL     1      14.104 -21.879 176.160  0.00  0.00    +0.000 C 
ATOM     20  C   UNL     1      14.141 -22.991 177.098  0.00  0.00    +0.000 C 
ENDROOT
BRANCH   7  21
ATOM     21  C   UNL     1      12.668 -14.569 180.999  0.00  0.00    +0.000 C 
ATOM     22  O   UNL     1      13.266 -14.969 181.984  0.00  0.00    +0.000 OA
ATOM     23  C   UNL     1      12.064 -13.228 181.257  0.00  0.00    +0.000 C 
ENDBRANCH   7  21
TORSDOF 1
ENDMDL
MODEL 3
REMARK VINA RESULT:      -6.0     23.762     26.707
REMARK  Name = Progesterone.pdbqt.pdb
REMARK  1 active torsions:
REMARK  status: ('A' for Active; 'I' for Inactive)
REMARK    1  A    between atoms: C_7  and  C_21
REMARK                            x       y       z     vdW  Elec       q    Type
REMARK                         _______ _______ _______ _____ _____    ______ ____
ROOT
ATOM      1  O   UNL     1      41.519 -23.935 164.172  0.00  0.00    +0.000 OA
ATOM      2  C   UNL     1      42.800 -19.695 170.417  0.00  0.00    +0.000 C 
ATOM      3  C   UNL     1      43.145 -20.364 171.856  0.00  0.00    +0.000 C 
ATOM      4  C   UNL     1      43.107 -20.365 169.137  0.00  0.00    +0.000 C 
ATOM      5  C   UNL     1      43.509 -21.803 168.966  0.00  0.00    +0.000 C 
ATOM      6  C   UNL     1      43.936 -22.426 167.618  0.00  0.00    +0.000 C 
ATOM      7  C   UNL     1      41.919 -20.067 172.666  0.00  0.00    +0.000 C 
ATOM      8  C   UNL     1      43.360 -21.778 171.547  0.00  0.00    +0.000 C 
ATOM      9  C   UNL     1      43.558 -22.470 170.221  0.00  0.00    +0.000 C 
ATOM     10  C   UNL     1      41.579 -18.964 170.572  0.00  0.00    +0.000 C 
ATOM     11  C   UNL     1      42.907 -19.708 167.901  0.00  0.00    +0.000 C 
ATOM     12  C   UNL     1      41.028 -19.220 171.949  0.00  0.00    +0.000 C 
ATOM     13  C   UNL     1      43.422 -21.605 166.273  0.00  0.00    +0.000 C 
ATOM     14  C   UNL     1      44.388 -19.623 172.400  0.00  0.00    +0.000 C 
ATOM     15  C   UNL     1      43.045 -20.262 166.515  0.00  0.00    +0.000 C 
ATOM     16  C   UNL     1      43.304 -23.775 167.443  0.00  0.00    +0.000 C 
ATOM     17  C   UNL     1      45.484 -22.499 167.541  0.00  0.00    +0.000 C 
ATOM     18  C   UNL     1      42.481 -24.408 166.298  0.00  0.00    +0.000 C 
ATOM     19  C   UNL     1      42.752 -22.279 165.362  0.00  0.00    +0.000 C 
ATOM     20  C   UNL     1      42.178 -23.597 165.135  0.00  0.00    +0.000 C 
ENDROOT
BRANCH   7  21
ATOM     21  C   UNL     1      41.706 -20.544 174.010  0.00  0.00    +0.000 C 
ATOM     22  O   UNL     1      42.289 -21.484 174.524  0.00  0.00    +0.000 OA
ATOM     23  C   UNL     1      40.801 -19.882 174.996  0.00  0.00    +0.000 C 
ENDBRANCH   7  21
TORSDOF 1
ENDMDL
MODEL 4
REMARK VINA RESULT:      -5.6     23.518     25.716
REMARK  Name = Progesterone.pdbqt.pdb
REMARK  1 active torsions:
REMARK  status: ('A' for Active; 'I' for Inactive)
REMARK    1  A    between atoms: C_7  and  C_21
REMARK                            x       y       z     vdW  Elec       q    Type
REMARK                         _______ _______ _______ _____ _____    ______ ____
ROOT
ATOM      1  O   UNL     1      55.240 -14.505 164.406  0.00  0.00    +0.000 OA
ATOM      2  C   UNL     1      55.413 -16.783 171.714  0.00  0.00    +0.000 C 
ATOM      3  C   UNL     1      55.140 -18.325 172.141  0.00  0.00    +0.000 C 
ATOM      4  C   UNL     1      55.948 -16.410 170.390  0.00  0.00    +0.000 C 
ATOM      5  C   UNL     1      56.059 -17.315 169.194  0.00  0.00    +0.000 C 
ATOM      6  C   UNL     1      56.737 -16.911 167.865  0.00  0.00    +0.000 C 
ATOM      7  C   UNL     1      53.819 -18.249 172.847  0.00  0.00    +0.000 C 
ATOM      8  C   UNL     1      55.127 -19.049 170.870  0.00  0.00    +0.000 C 
ATOM      9  C   UNL     1      55.570 -18.616 169.495  0.00  0.00    +0.000 C 
ATOM     10  C   UNL     1      54.395 -15.987 172.329  0.00  0.00    +0.000 C 
ATOM     11  C   UNL     1      56.289 -15.071 170.088  0.00  0.00    +0.000 C 
ATOM     12  C   UNL     1      53.402 -16.897 173.001  0.00  0.00    +0.000 C 
ATOM     13  C   UNL     1      56.857 -15.279 167.608  0.00  0.00    +0.000 C 
ATOM     14  C   UNL     1      56.283 -18.726 173.103  0.00  0.00    +0.000 C 
ATOM     15  C   UNL     1      56.726 -14.490 168.778  0.00  0.00    +0.000 C 
ATOM     16  C   UNL     1      55.911 -17.369 166.699  0.00  0.00    +0.000 C 
ATOM     17  C   UNL     1      58.177 -17.486 167.815  0.00  0.00    +0.000 C 
ATOM     18  C   UNL     1      55.367 -16.642 165.448  0.00  0.00    +0.000 C 
ATOM     19  C   UNL     1      56.373 -14.798 166.482  0.00  0.00    +0.000 C 
ATOM     20  C   UNL     1      55.624 -15.222 165.309  0.00  0.00    +0.000 C 
ENDROOT
BRANCH   7  21
ATOM     21  C   UNL     1      53.101 -19.398 173.340  0.00  0.00    +0.000 C 
ATOM     22  O   UNL     1      52.527 -20.221 172.647  0.00  0.00    +0.000 OA
ATOM     23  C   UNL     1      53.045 -19.791 174.780  0.00  0.00    +0.000 C 
ENDBRANCH   7  21
TORSDOF 1
ENDMDL
MODEL 5
REMARK VINA RESULT:      -5.6     37.186     38.788
REMARK  Name = Progesterone.pdbqt.pdb
REMARK  1 active torsions:
REMARK  status: ('A' for Active; 'I' for Inactive)
REMARK    1  A    between atoms: C_7  and  C_21
REMARK                            x       y       z     vdW  Elec       q    Type
REMARK                         _______ _______ _______ _____ _____    ______ ____
ROOT
ATOM      1  O   UNL     1       3.366   0.292 189.696  0.00  0.00    +0.000 OA
ATOM      2  C   UNL     1       9.975  -2.247 192.610  0.00  0.00    +0.000 C 
ATOM      3  C   UNL     1      10.286  -3.831 192.787  0.00  0.00    +0.000 C 
ATOM      4  C   UNL     1       9.046  -1.731 191.585  0.00  0.00    +0.000 C 
ATOM      5  C   UNL     1       8.083  -2.550 190.771  0.00  0.00    +0.000 C 
ATOM      6  C   UNL     1       7.217  -1.979 189.627  0.00  0.00    +0.000 C 
ATOM      7  C   UNL     1      10.280  -4.010 194.276  0.00  0.00    +0.000 C 
ATOM      8  C   UNL     1       9.190  -4.489 192.076  0.00  0.00    +0.000 C 
ATOM      9  C   UNL     1       8.170  -3.927 191.116  0.00  0.00    +0.000 C 
ATOM     10  C   UNL     1      10.003  -1.662 193.916  0.00  0.00    +0.000 C 
ATOM     11  C   UNL     1       8.887  -0.342 191.375  0.00  0.00    +0.000 C 
ATOM     12  C   UNL     1      10.162  -2.755 194.939  0.00  0.00    +0.000 C 
ATOM     13  C   UNL     1       6.980  -0.340 189.677  0.00  0.00    +0.000 C 
ATOM     14  C   UNL     1      11.689  -4.075 192.184  0.00  0.00    +0.000 C 
ATOM     15  C   UNL     1       7.916   0.362 190.476  0.00  0.00    +0.000 C 
ATOM     16  C   UNL     1       5.819  -2.517 189.712  0.00  0.00    +0.000 C 
ATOM     17  C   UNL     1       7.877  -2.300 188.259  0.00  0.00    +0.000 C 
ATOM     18  C   UNL     1       4.431  -1.838 189.716  0.00  0.00    +0.000 C 
ATOM     19  C   UNL     1       5.741   0.102 189.646  0.00  0.00    +0.000 C 
ATOM     20  C   UNL     1       4.372  -0.390 189.668  0.00  0.00    +0.000 C 
ENDROOT
BRANCH   7  21
ATOM     21  C   UNL     1      10.422  -5.285 194.935  0.00  0.00    +0.000 C 
ATOM     22  O   UNL     1      11.475  -5.878 195.100  0.00  0.00    +0.000 OA
ATOM     23  C   UNL     1       9.298  -6.011 195.596  0.00  0.00    +0.000 C 
ENDBRANCH   7  21
TORSDOF 1
ENDMDL
MODEL 6
REMARK VINA RESULT:      -5.6     24.215     26.792
REMARK  Name = Progesterone.pdbqt.pdb
REMARK  1 active torsions:
REMARK  status: ('A' for Active; 'I' for Inactive)
REMARK    1  A    between atoms: C_7  and  C_21
REMARK                            x       y       z     vdW  Elec       q    Type
REMARK                         _______ _______ _______ _____ _____    ______ ____
ROOT
ATOM      1  O   UNL     1      37.144 -22.105 191.497  0.00  0.00    +0.000 OA
ATOM      2  C   UNL     1      43.441 -17.905 190.351  0.00  0.00    +0.000 C 
ATOM      3  C   UNL     1      44.692 -18.451 189.471  0.00  0.00    +0.000 C 
ATOM      4  C   UNL     1      42.058 -18.373 190.137  0.00  0.00    +0.000 C 
ATOM      5  C   UNL     1      41.642 -19.560 189.314  0.00  0.00    +0.000 C 
ATOM      6  C   UNL     1      40.173 -19.938 189.023  0.00  0.00    +0.000 C 
ATOM      7  C   UNL     1      45.765 -18.648 190.500  0.00  0.00    +0.000 C 
ATOM      8  C   UNL     1      44.185 -19.678 188.857  0.00  0.00    +0.000 C 
ATOM      9  C   UNL     1      42.776 -20.205 188.746  0.00  0.00    +0.000 C 
ATOM     10  C   UNL     1      43.926 -17.674 191.678  0.00  0.00    +0.000 C 
ATOM     11  C   UNL     1      40.973 -17.792 190.835  0.00  0.00    +0.000 C 
ATOM     12  C   UNL     1      45.348 -18.160 191.771  0.00  0.00    +0.000 C 
ATOM     13  C   UNL     1      39.065 -19.316 190.087  0.00  0.00    +0.000 C 
ATOM     14  C   UNL     1      45.053 -17.327 188.472  0.00  0.00    +0.000 C 
ATOM     15  C   UNL     1      39.534 -18.210 190.840  0.00  0.00    +0.000 C 
ATOM     16  C   UNL     1      39.976 -21.418 189.170  0.00  0.00    +0.000 C 
ATOM     17  C   UNL     1      39.773 -19.441 187.609  0.00  0.00    +0.000 C 
ATOM     18  C   UNL     1      38.959 -22.268 189.965  0.00  0.00    +0.000 C 
ATOM     19  C   UNL     1      38.239 -20.156 190.674  0.00  0.00    +0.000 C 
ATOM     20  C   UNL     1      37.984 -21.583 190.791  0.00  0.00    +0.000 C 
ENDROOT
BRANCH   7  21
ATOM     21  C   UNL     1      47.060 -19.216 190.216  0.00  0.00    +0.000 C 
ATOM     22  O   UNL     1      47.257 -20.238 189.579  0.00  0.00    +0.000 OA
ATOM     23  C   UNL     1      48.354 -18.568 190.586  0.00  0.00    +0.000 C 
ENDBRANCH   7  21
TORSDOF 1
ENDMDL
MODEL 7
REMARK VINA RESULT:      -5.4     18.060     21.122
REMARK  Name = Progesterone.pdbqt.pdb
REMARK  1 active torsions:
REMARK  status: ('A' for Active; 'I' for Inactive)
REMARK    1  A    between atoms: C_7  and  C_21
REMARK                            x       y       z     vdW  Elec       q    Type
REMARK                         _______ _______ _______ _____ _____    ______ ____
ROOT
ATOM      1  O   UNL     1      50.906  -5.823 190.694  0.00  0.00    +0.000 OA
ATOM      2  C   UNL     1      50.742 -13.452 190.066  0.00  0.00    +0.000 C 
ATOM      3  C   UNL     1      50.461 -14.193 188.649  0.00  0.00    +0.000 C 
ATOM      4  C   UNL     1      51.338 -12.104 190.150  0.00  0.00    +0.000 C 
ATOM      5  C   UNL     1      51.514 -11.141 189.009  0.00  0.00    +0.000 C 
ATOM      6  C   UNL     1      52.252  -9.789 189.126  0.00  0.00    +0.000 C 
ATOM      7  C   UNL     1      49.106 -14.804 188.853  0.00  0.00    +0.000 C 
ATOM      8  C   UNL     1      50.514 -13.111 187.666  0.00  0.00    +0.000 C 
ATOM      9  C   UNL     1      51.020 -11.696 187.797  0.00  0.00    +0.000 C 
ATOM     10  C   UNL     1      49.690 -13.831 190.958  0.00  0.00    +0.000 C 
ATOM     11  C   UNL     1      51.683 -11.534 191.398  0.00  0.00    +0.000 C 
ATOM     12  C   UNL     1      48.672 -14.639 190.199  0.00  0.00    +0.000 C 
ATOM     13  C   UNL     1      52.373  -9.187 190.665  0.00  0.00    +0.000 C 
ATOM     14  C   UNL     1      51.559 -15.271 188.488  0.00  0.00    +0.000 C 
ATOM     15  C   UNL     1      52.179 -10.149 191.687  0.00  0.00    +0.000 C 
ATOM     16  C   UNL     1      51.487  -8.714 188.410  0.00  0.00    +0.000 C 
ATOM     17  C   UNL     1      53.697  -9.931 188.580  0.00  0.00    +0.000 C 
ATOM     18  C   UNL     1      50.999  -7.312 188.837  0.00  0.00    +0.000 C 
ATOM     19  C   UNL     1      51.939  -7.962 190.881  0.00  0.00    +0.000 C 
ATOM     20  C   UNL     1      51.252  -6.877 190.197  0.00  0.00    +0.000 C 
ENDROOT
BRANCH   7  21
ATOM     21  C   UNL     1      48.374 -15.503 187.826  0.00  0.00    +0.000 C 
ATOM     22  O   UNL     1      48.680 -15.543 186.646  0.00  0.00    +0.000 OA
ATOM     23  C   UNL     1      47.181 -16.362 188.091  0.00  0.00    +0.000 C 
ENDBRANCH   7  21
TORSDOF 1
ENDMDL
MODEL 8
REMARK VINA RESULT:      -5.3      7.504     11.002
REMARK  Name = Progesterone.pdbqt.pdb
REMARK  1 active torsions:
REMARK  status: ('A' for Active; 'I' for Inactive)
REMARK    1  A    between atoms: C_7  and  C_21
REMARK                            x       y       z     vdW  Elec       q    Type
REMARK                         _______ _______ _______ _____ _____    ______ ____
ROOT
ATOM      1  O   UNL     1      40.723   1.456 183.221  0.00  0.00    +0.000 OA
ATOM      2  C   UNL     1      47.464   0.190 186.622  0.00  0.00    +0.000 C 
ATOM      3  C   UNL     1      48.689   1.252 186.526  0.00  0.00    +0.000 C 
ATOM      4  C   UNL     1      46.050   0.600 186.509  0.00  0.00    +0.000 C 
ATOM      5  C   UNL     1      45.551   1.938 186.037  0.00  0.00    +0.000 C 
ATOM      6  C   UNL     1      44.065   2.359 186.050  0.00  0.00    +0.000 C 
ATOM      7  C   UNL     1      49.690   0.532 185.672  0.00  0.00    +0.000 C 
ATOM      8  C   UNL     1      48.086   2.436 185.915  0.00  0.00    +0.000 C 
ATOM      9  C   UNL     1      46.636   2.793 185.699  0.00  0.00    +0.000 C 
ATOM     10  C   UNL     1      47.911  -1.028 186.019  0.00  0.00    +0.000 C 
ATOM     11  C   UNL     1      45.002  -0.326 186.717  0.00  0.00    +0.000 C 
ATOM     12  C   UNL     1      49.270  -0.803 185.411  0.00  0.00    +0.000 C 
ATOM     13  C   UNL     1      42.982   1.106 186.091  0.00  0.00    +0.000 C 
ATOM     14  C   UNL     1      49.208   1.459 187.968  0.00  0.00    +0.000 C 
ATOM     15  C   UNL     1      43.528  -0.126 186.528  0.00  0.00    +0.000 C 
ATOM     16  C   UNL     1      43.711   3.060 184.772  0.00  0.00    +0.000 C 
ATOM     17  C   UNL     1      43.781   3.244 187.293  0.00  0.00    +0.000 C 
ATOM     18  C   UNL     1      42.577   2.856 183.742  0.00  0.00    +0.000 C 
ATOM     19  C   UNL     1      42.048   1.071 185.163  0.00  0.00    +0.000 C 
ATOM     20  C   UNL     1      41.643   1.767 183.951  0.00  0.00    +0.000 C 
ENDROOT
BRANCH   7  21
ATOM     21  C   UNL     1      50.931   1.113 185.222  0.00  0.00    +0.000 C 
ATOM     22  O   UNL     1      52.007   0.999 185.785  0.00  0.00    +0.000 OA
ATOM     23  C   UNL     1      51.084   1.861 183.938  0.00  0.00    +0.000 C 
ENDBRANCH   7  21
TORSDOF 1
ENDMDL
MODEL 9
REMARK VINA RESULT:      -5.2     27.780     30.352
REMARK  Name = Progesterone.pdbqt.pdb
REMARK  1 active torsions:
REMARK  status: ('A' for Active; 'I' for Inactive)
REMARK    1  A    between atoms: C_7  and  C_21
REMARK                            x       y       z     vdW  Elec       q    Type
REMARK                         _______ _______ _______ _____ _____    ______ ____
ROOT
ATOM      1  O   UNL     1      28.170 -16.100 203.599  0.00  0.00    +0.000 OA
ATOM      2  C   UNL     1      30.817 -14.222 196.665  0.00  0.00    +0.000 C 
ATOM      3  C   UNL     1      31.770 -12.928 196.428  0.00  0.00    +0.000 C 
ATOM      4  C   UNL     1      30.761 -14.939 197.953  0.00  0.00    +0.000 C 
ATOM      5  C   UNL     1      31.326 -14.457 199.260  0.00  0.00    +0.000 C 
ATOM      6  C   UNL     1      31.346 -15.299 200.556  0.00  0.00    +0.000 C 
ATOM      7  C   UNL     1      30.884 -11.996 195.657  0.00  0.00    +0.000 C 
ATOM      8  C   UNL     1      32.112 -12.487 197.781  0.00  0.00    +0.000 C 
ATOM      9  C   UNL     1      31.942 -13.184 199.108  0.00  0.00    +0.000 C 
ATOM     10  C   UNL     1      29.623 -14.012 195.904  0.00  0.00    +0.000 C 
ATOM     11  C   UNL     1      30.015 -16.132 198.094  0.00  0.00    +0.000 C 
ATOM     12  C   UNL     1      29.658 -12.630 195.310  0.00  0.00    +0.000 C 
ATOM     13  C   UNL     1      30.246 -16.536 200.605  0.00  0.00    +0.000 C 
ATOM     14  C   UNL     1      32.970 -13.412 195.581  0.00  0.00    +0.000 C 
ATOM     15  C   UNL     1      29.744 -16.924 199.338  0.00  0.00    +0.000 C 
ATOM     16  C   UNL     1      30.948 -14.456 201.731  0.00  0.00    +0.000 C 
ATOM     17  C   UNL     1      32.750 -15.932 200.748  0.00  0.00    +0.000 C 
ATOM     18  C   UNL     1      29.898 -14.643 202.850  0.00  0.00    +0.000 C 
ATOM     19  C   UNL     1      29.427 -16.589 201.634  0.00  0.00    +0.000 C 
ATOM     20  C   UNL     1      29.058 -15.824 202.816  0.00  0.00    +0.000 C 
ENDROOT
BRANCH   7  21
ATOM     21  C   UNL     1      31.257 -10.653 195.283  0.00  0.00    +0.000 C 
ATOM     22  O   UNL     1      31.498  -9.747 196.063  0.00  0.00    +0.000 OA
ATOM     23  C   UNL     1      31.494 -10.215 193.876  0.00  0.00    +0.000 C 
ENDBRANCH   7  21
TORSDOF 1
ENDMDL
