REMARK  Name = 
REMARK  11 active torsions:
REMARK  status: ('A' for Active; 'I' for Inactive)
REMARK    1  A    between atoms: O_2  and  C_16
REMARK    2  A    between atoms: O_2  and  C_18
REMARK    3  A    between atoms: O_3  and  C_12
REMARK    4  A    between atoms: O_4  and  C_13
REMARK    5  A    between atoms: O_5  and  C_14
REMARK    6  A    between atoms: O_8  and  C_24
REMARK    7  A    between atoms: O_9  and  C_29
REMARK    8  A    between atoms: O_10  and  C_30
REMARK    9  A    between atoms: O_11  and  C_32
REMARK   10  A    between atoms: C_15  and  C_17
REMARK   11  A    between atoms: C_19  and  C_23
REMARK                            x       y       z     vdW  Elec       q    Type
REMARK                         _______ _______ _______ _____ _____    ______ ____
ROOT
ATOM      1  O   UNL     1       1.972   1.558   0.026  0.00  0.00    +0.000 OA
ATOM      2  O   UNL     1       1.294  -2.228  -1.267  0.00  0.00    +0.000 OA
ATOM      3  C   UNL     1       0.386  -0.147  -0.617  0.00  0.00    +0.000 A 
ATOM      4  C   UNL     1       0.699   1.123  -0.292  0.00  0.00    +0.000 A 
ATOM      5  C   UNL     1       1.497  -1.133  -0.757  0.00  0.00    +0.000 A 
ATOM      6  C   UNL     1       2.832  -0.699  -0.286  0.00  0.00    +0.000 A 
ATOM      7  C   UNL     1       2.989   0.641   0.070  0.00  0.00    +0.000 A 
ATOM      8  C   UNL     1       3.935  -1.560  -0.197  0.00  0.00    +0.000 A 
ATOM      9  C   UNL     1       4.228   1.123   0.498  0.00  0.00    +0.000 A 
ATOM     10  C   UNL     1       5.178  -1.084   0.234  0.00  0.00    +0.000 A 
ATOM     11  C   UNL     1       5.311   0.258   0.576  0.00  0.00    +0.000 A 
ENDROOT
BRANCH   4  12
ATOM     12  C   UNL     1      -0.310   2.200  -0.210  0.00  0.00    +0.000 A 
ATOM     13  C   UNL     1      -0.390   2.990   0.950  0.00  0.00    +0.000 A 
ATOM     14  C   UNL     1      -1.191   2.457  -1.276  0.00  0.00    +0.000 A 
ATOM     15  C   UNL     1      -1.351   3.991   1.037  0.00  0.00    +0.000 A 
ATOM     16  C   UNL     1      -2.156   3.462  -1.178  0.00  0.00    +0.000 A 
ATOM     17  C   UNL     1      -2.229   4.217  -0.019  0.00  0.00    +0.000 A 
BRANCH  15  18
ATOM     18  O   UNL     1      -1.476   4.780   2.147  0.00  0.00    +0.000 OA
ATOM     19  H   UNL     1      -0.758   4.558   2.765  0.00  0.00    +0.000 HD
ENDBRANCH  15  18
BRANCH  17  20
ATOM     20  O   UNL     1      -3.175   5.196   0.078  0.00  0.00    +0.000 OA
ATOM     21  H   UNL     1      -3.026   5.602   0.956  0.00  0.00    +0.000 HD
ENDBRANCH  17  20
ENDBRANCH   4  12
BRANCH   8  22
ATOM     22  O   UNL     1       3.814  -2.884  -0.508  0.00  0.00    +0.000 OA
ATOM     23  H   UNL     1       4.673  -3.333  -0.470  0.00  0.00    +0.000 HD
ENDBRANCH   8  22
BRANCH  11  24
ATOM     24  O   UNL     1       6.499   0.772   1.001  0.00  0.00    +0.000 OA
ATOM     25  H   UNL     1       7.175   0.074   0.996  0.00  0.00    +0.000 HD
ENDBRANCH  11  24
BRANCH   3  26
ATOM     26  O   UNL     1      -0.896  -0.571  -0.932  0.00  0.00    +0.000 OA
BRANCH  26  32
ATOM     27  O   UNL     1      -1.261  -2.054   0.913  0.00  0.00    +0.000 OA
ATOM     28  C   UNL     1      -3.504  -2.156  -0.896  0.00  0.00    +0.000 C 
ATOM     29  C   UNL     1      -3.015  -3.397  -0.141  0.00  0.00    +0.000 C 
ATOM     30  C   UNL     1      -3.164  -0.878  -0.128  0.00  0.00    +0.000 C 
ATOM     31  C   UNL     1      -1.519  -3.249   0.159  0.00  0.00    +0.000 C 
ATOM     32  C   UNL     1      -1.665  -0.855   0.246  0.00  0.00    +0.000 C 
ATOM     33  C   UNL     1      -0.990  -4.423   0.975  0.00  0.00    +0.000 C 
BRANCH  28  34
ATOM     34  O   UNL     1      -4.930  -2.261  -1.071  0.00  0.00    +0.000 OA
ATOM     35  H   UNL     1      -5.310  -1.946  -0.224  0.00  0.00    +0.000 HD
ENDBRANCH  28  34
BRANCH  29  36
ATOM     36  O   UNL     1      -3.282  -4.559  -0.932  0.00  0.00    +0.000 OA
ATOM     37  H   UNL     1      -4.183  -4.429  -1.289  0.00  0.00    +0.000 HD
ENDBRANCH  29  36
BRANCH  30  38
ATOM     38  O   UNL     1      -4.016  -0.835   1.037  0.00  0.00    +0.000 OA
ATOM     39  H   UNL     1      -3.810  -0.012   1.517  0.00  0.00    +0.000 HD
ENDBRANCH  30  38
ENDBRANCH  26  32
ENDBRANCH   3  26
TORSDOF 10
