MODEL 1
REMARK VINA RESULT:      -8.4      0.000      0.000
REMARK  Name = Quercetin.pdbqt.pdb
REMARK  6 active torsions:
REMARK  status: ('A' for Active; 'I' for Inactive)
REMARK    1  A    between atoms: C_5  and  C_12
REMARK    2  A    between atoms: C_6  and  O_22
REMARK    3  A    between atoms: C_8  and  O_24
REMARK    4  A    between atoms: C_10  and  O_26
REMARK    5  A    between atoms: C_15  and  O_18
REMARK    6  A    between atoms: C_17  and  O_20
REMARK                            x       y       z     vdW  Elec       q    Type
REMARK                         _______ _______ _______ _____ _____    ______ ____
ROOT
ATOM      1  O   UNL     1      21.156   3.269 189.329  0.00  0.00    +0.000 OA
ATOM      2  O   UNL     1      17.451   1.709 188.724  0.00  0.00    +0.000 OA
ATOM      3  C   UNL     1      19.183   2.172 190.215  0.00  0.00    +0.000 A 
ATOM      4  C   UNL     1      20.454   2.715 190.365  0.00  0.00    +0.000 A 
ATOM      5  C   UNL     1      20.574   3.309 188.070  0.00  0.00    +0.000 A 
ATOM      6  C   UNL     1      19.354   2.809 187.776  0.00  0.00    +0.000 A 
ATOM      7  C   UNL     1      18.570   2.192 188.883  0.00  0.00    +0.000 A 
ATOM      8  C   UNL     1      18.523   1.620 191.320  0.00  0.00    +0.000 A 
ATOM      9  C   UNL     1      21.073   2.712 191.614  0.00  0.00    +0.000 A 
ATOM     10  C   UNL     1      20.408   2.163 192.705  0.00  0.00    +0.000 A 
ATOM     11  C   UNL     1      19.137   1.615 192.569  0.00  0.00    +0.000 A 
ENDROOT
BRANCH   5  12
ATOM     12  C   UNL     1      21.447   3.955 187.080  0.00  0.00    +0.000 A 
ATOM     13  C   UNL     1      22.653   4.550 187.463  0.00  0.00    +0.000 A 
ATOM     14  C   UNL     1      21.098   3.921 185.723  0.00  0.00    +0.000 A 
ATOM     15  C   UNL     1      23.477   5.120 186.500  0.00  0.00    +0.000 A 
ATOM     16  C   UNL     1      21.935   4.480 184.758  0.00  0.00    +0.000 A 
ATOM     17  C   UNL     1      23.131   5.062 185.154  0.00  0.00    +0.000 A 
BRANCH  15  18
ATOM     18  O   UNL     1      24.608   5.766 186.904  0.00  0.00    +0.000 OA
ATOM     19  H   UNL     1      24.423   6.143 187.785  0.00  0.00    +0.000 HD
ENDBRANCH  15  18
BRANCH  17  20
ATOM     20  O   UNL     1      23.975   5.557 184.203  0.00  0.00    +0.000 OA
ATOM     21  H   UNL     1      23.901   4.966 183.431  0.00  0.00    +0.000 HD
ENDBRANCH  17  20
ENDBRANCH   5  12
BRANCH   6  22
ATOM     22  O   UNL     1      18.774   2.804 186.522  0.00  0.00    +0.000 OA
ATOM     23  H   UNL     1      19.053   3.586 186.020  0.00  0.00    +0.000 HD
ENDBRANCH   6  22
BRANCH   8  24
ATOM     24  O   UNL     1      17.273   1.066 191.245  0.00  0.00    +0.000 OA
ATOM     25  H   UNL     1      17.169   0.435 191.995  0.00  0.00    +0.000 HD
ENDBRANCH   8  24
BRANCH  10  26
ATOM     26  O   UNL     1      21.034   2.172 193.917  0.00  0.00    +0.000 OA
ATOM     27  H   UNL     1      21.672   1.435 193.935  0.00  0.00    +0.000 HD
ENDBRANCH  10  26
TORSDOF 6
ENDMDL
MODEL 2
REMARK VINA RESULT:      -8.3      1.362      3.224
REMARK  Name = Quercetin.pdbqt.pdb
REMARK  6 active torsions:
REMARK  status: ('A' for Active; 'I' for Inactive)
REMARK    1  A    between atoms: C_5  and  C_12
REMARK    2  A    between atoms: C_6  and  O_22
REMARK    3  A    between atoms: C_8  and  O_24
REMARK    4  A    between atoms: C_10  and  O_26
REMARK    5  A    between atoms: C_15  and  O_18
REMARK    6  A    between atoms: C_17  and  O_20
REMARK                            x       y       z     vdW  Elec       q    Type
REMARK                         _______ _______ _______ _____ _____    ______ ____
ROOT
ATOM      1  O   UNL     1      20.201   3.163 187.121  0.00  0.00    +0.000 OA
ATOM      2  O   UNL     1      22.436   3.694 190.474  0.00  0.00    +0.000 OA
ATOM      3  C   UNL     1      20.462   2.905 189.518  0.00  0.00    +0.000 A 
ATOM      4  C   UNL     1      19.738   2.751 188.341  0.00  0.00    +0.000 A 
ATOM      5  C   UNL     1      21.457   3.746 187.042  0.00  0.00    +0.000 A 
ATOM      6  C   UNL     1      22.264   3.969 188.102  0.00  0.00    +0.000 A 
ATOM      7  C   UNL     1      21.782   3.539 189.446  0.00  0.00    +0.000 A 
ATOM      8  C   UNL     1      19.925   2.461 190.733  0.00  0.00    +0.000 A 
ATOM      9  C   UNL     1      18.478   2.156 188.368  0.00  0.00    +0.000 A 
ATOM     10  C   UNL     1      17.953   1.718 189.579  0.00  0.00    +0.000 A 
ATOM     11  C   UNL     1      18.667   1.866 190.764  0.00  0.00    +0.000 A 
ENDROOT
BRANCH   5  12
ATOM     12  C   UNL     1      21.812   4.107 185.662  0.00  0.00    +0.000 A 
ATOM     13  C   UNL     1      22.999   4.790 185.380  0.00  0.00    +0.000 A 
ATOM     14  C   UNL     1      20.982   3.709 184.607  0.00  0.00    +0.000 A 
ATOM     15  C   UNL     1      23.328   5.087 184.063  0.00  0.00    +0.000 A 
ATOM     16  C   UNL     1      21.323   3.992 183.285  0.00  0.00    +0.000 A 
ATOM     17  C   UNL     1      22.507   4.667 183.022  0.00  0.00    +0.000 A 
BRANCH  15  18
ATOM     18  O   UNL     1      24.448   5.825 183.817  0.00  0.00    +0.000 OA
ATOM     19  H   UNL     1      25.136   5.515 184.434  0.00  0.00    +0.000 HD
ENDBRANCH  15  18
BRANCH  17  20
ATOM     20  O   UNL     1      22.867   4.894 181.725  0.00  0.00    +0.000 OA
ATOM     21  H   UNL     1      23.413   5.702 181.726  0.00  0.00    +0.000 HD
ENDBRANCH  17  20
ENDBRANCH   5  12
BRANCH   6  22
ATOM     22  O   UNL     1      23.500   4.584 188.050  0.00  0.00    +0.000 OA
ATOM     23  H   UNL     1      23.827   4.757 188.947  0.00  0.00    +0.000 HD
ENDBRANCH   6  22
BRANCH   8  24
ATOM     24  O   UNL     1      20.580   2.582 191.929  0.00  0.00    +0.000 OA
ATOM     25  H   UNL     1      20.054   2.112 192.618  0.00  0.00    +0.000 HD
ENDBRANCH   8  24
BRANCH  10  26
ATOM     26  O   UNL     1      16.718   1.138 189.580  0.00  0.00    +0.000 OA
ATOM     27  H   UNL     1      16.135   1.667 190.153  0.00  0.00    +0.000 HD
ENDBRANCH  10  26
TORSDOF 6
ENDMDL
MODEL 3
REMARK VINA RESULT:      -8.3      2.223      7.055
REMARK  Name = Quercetin.pdbqt.pdb
REMARK  6 active torsions:
REMARK  status: ('A' for Active; 'I' for Inactive)
REMARK    1  A    between atoms: C_5  and  C_12
REMARK    2  A    between atoms: C_6  and  O_22
REMARK    3  A    between atoms: C_8  and  O_24
REMARK    4  A    between atoms: C_10  and  O_26
REMARK    5  A    between atoms: C_15  and  O_18
REMARK    6  A    between atoms: C_17  and  O_20
REMARK                            x       y       z     vdW  Elec       q    Type
REMARK                         _______ _______ _______ _____ _____    ______ ____
ROOT
ATOM      1  O   UNL     1      20.716   2.018 191.043  0.00  0.00    +0.000 OA
ATOM      2  O   UNL     1      18.037   2.025 187.986  0.00  0.00    +0.000 OA
ATOM      3  C   UNL     1      20.029   2.851 188.872  0.00  0.00    +0.000 A 
ATOM      4  C   UNL     1      20.911   2.813 189.946  0.00  0.00    +0.000 A 
ATOM      5  C   UNL     1      19.599   1.197 191.086  0.00  0.00    +0.000 A 
ATOM      6  C   UNL     1      18.654   1.140 190.123  0.00  0.00    +0.000 A 
ATOM      7  C   UNL     1      18.835   2.001 188.919  0.00  0.00    +0.000 A 
ATOM      8  C   UNL     1      20.291   3.691 187.781  0.00  0.00    +0.000 A 
ATOM      9  C   UNL     1      22.055   3.608 189.940  0.00  0.00    +0.000 A 
ATOM     10  C   UNL     1      22.306   4.438 188.852  0.00  0.00    +0.000 A 
ATOM     11  C   UNL     1      21.432   4.486 187.771  0.00  0.00    +0.000 A 
ENDROOT
BRANCH   5  12
ATOM     12  C   UNL     1      19.553   0.393 192.316  0.00  0.00    +0.000 A 
ATOM     13  C   UNL     1      20.441  -0.668 192.517  0.00  0.00    +0.000 A 
ATOM     14  C   UNL     1      18.648   0.732 193.331  0.00  0.00    +0.000 A 
ATOM     15  C   UNL     1      20.400  -1.387 193.705  0.00  0.00    +0.000 A 
ATOM     16  C   UNL     1      18.621   0.020 194.529  0.00  0.00    +0.000 A 
ATOM     17  C   UNL     1      19.512  -1.028 194.714  0.00  0.00    +0.000 A 
BRANCH  15  18
ATOM     18  O   UNL     1      21.218  -2.469 193.846  0.00  0.00    +0.000 OA
ATOM     19  H   UNL     1      20.647  -3.260 193.852  0.00  0.00    +0.000 HD
ENDBRANCH  15  18
BRANCH  17  20
ATOM     20  O   UNL     1      19.522  -1.687 195.908  0.00  0.00    +0.000 OA
ATOM     21  H   UNL     1      18.632  -2.068 196.023  0.00  0.00    +0.000 HD
ENDBRANCH  17  20
ENDBRANCH   5  12
BRANCH   6  22
ATOM     22  O   UNL     1      17.515   0.358 190.165  0.00  0.00    +0.000 OA
ATOM     23  H   UNL     1      17.474  -0.217 189.385  0.00  0.00    +0.000 HD
ENDBRANCH   6  22
BRANCH   8  24
ATOM     24  O   UNL     1      19.466   3.781 186.692  0.00  0.00    +0.000 OA
ATOM     25  H   UNL     1      18.752   3.108 186.789  0.00  0.00    +0.000 HD
ENDBRANCH   8  24
BRANCH  10  26
ATOM     26  O   UNL     1      23.433   5.207 188.870  0.00  0.00    +0.000 OA
ATOM     27  H   UNL     1      24.167   4.677 188.511  0.00  0.00    +0.000 HD
ENDBRANCH  10  26
TORSDOF 6
ENDMDL
MODEL 4
REMARK VINA RESULT:      -8.2      1.471      7.279
REMARK  Name = Quercetin.pdbqt.pdb
REMARK  6 active torsions:
REMARK  status: ('A' for Active; 'I' for Inactive)
REMARK    1  A    between atoms: C_5  and  C_12
REMARK    2  A    between atoms: C_6  and  O_22
REMARK    3  A    between atoms: C_8  and  O_24
REMARK    4  A    between atoms: C_10  and  O_26
REMARK    5  A    between atoms: C_15  and  O_18
REMARK    6  A    between atoms: C_17  and  O_20
REMARK                            x       y       z     vdW  Elec       q    Type
REMARK                         _______ _______ _______ _____ _____    ______ ____
ROOT
ATOM      1  O   UNL     1      20.596   3.439 187.092  0.00  0.00    +0.000 OA
ATOM      2  O   UNL     1      24.074   4.997 188.508  0.00  0.00    +0.000 OA
ATOM      3  C   UNL     1      22.714   4.541 186.670  0.00  0.00    +0.000 A 
ATOM      4  C   UNL     1      21.512   3.991 186.239  0.00  0.00    +0.000 A 
ATOM      5  C   UNL     1      20.863   3.438 188.454  0.00  0.00    +0.000 A 
ATOM      6  C   UNL     1      21.993   3.925 189.011  0.00  0.00    +0.000 A 
ATOM      7  C   UNL     1      23.013   4.525 188.105  0.00  0.00    +0.000 A 
ATOM      8  C   UNL     1      23.606   5.089 185.739  0.00  0.00    +0.000 A 
ATOM      9  C   UNL     1      21.192   3.984 184.883  0.00  0.00    +0.000 A 
ATOM     10  C   UNL     1      22.085   4.532 183.966  0.00  0.00    +0.000 A 
ATOM     11  C   UNL     1      23.291   5.084 184.383  0.00  0.00    +0.000 A 
ENDROOT
BRANCH   5  12
ATOM     12  C   UNL     1      19.772   2.832 189.230  0.00  0.00    +0.000 A 
ATOM     13  C   UNL     1      18.776   2.078 188.602  0.00  0.00    +0.000 A 
ATOM     14  C   UNL     1      19.760   2.958 190.625  0.00  0.00    +0.000 A 
ATOM     15  C   UNL     1      17.777   1.485 189.364  0.00  0.00    +0.000 A 
ATOM     16  C   UNL     1      18.766   2.348 191.388  0.00  0.00    +0.000 A 
ATOM     17  C   UNL     1      17.787   1.599 190.750  0.00  0.00    +0.000 A 
BRANCH  15  18
ATOM     18  O   UNL     1      16.770   0.823 188.725  0.00  0.00    +0.000 OA
ATOM     19  H   UNL     1      16.454   1.405 188.009  0.00  0.00    +0.000 HD
ENDBRANCH  15  18
BRANCH  17  20
ATOM     20  O   UNL     1      16.849   0.956 191.503  0.00  0.00    +0.000 OA
ATOM     21  H   UNL     1      16.057   0.863 190.940  0.00  0.00    +0.000 HD
ENDBRANCH  17  20
ENDBRANCH   5  12
BRANCH   6  22
ATOM     22  O   UNL     1      22.295   3.898 190.360  0.00  0.00    +0.000 OA
ATOM     23  H   UNL     1      21.561   4.266 190.876  0.00  0.00    +0.000 HD
ENDBRANCH   6  22
BRANCH   8  24
ATOM     24  O   UNL     1      24.807   5.644 186.091  0.00  0.00    +0.000 OA
ATOM     25  H   UNL     1      25.368   4.939 186.492  0.00  0.00    +0.000 HD
ENDBRANCH   8  24
BRANCH  10  26
ATOM     26  O   UNL     1      21.749   4.513 182.644  0.00  0.00    +0.000 OA
ATOM     27  H   UNL     1      20.979   5.096 182.519  0.00  0.00    +0.000 HD
ENDBRANCH  10  26
TORSDOF 6
ENDMDL
MODEL 5
REMARK VINA RESULT:      -7.7      2.507      7.061
REMARK  Name = Quercetin.pdbqt.pdb
REMARK  6 active torsions:
REMARK  status: ('A' for Active; 'I' for Inactive)
REMARK    1  A    between atoms: C_5  and  C_12
REMARK    2  A    between atoms: C_6  and  O_22
REMARK    3  A    between atoms: C_8  and  O_24
REMARK    4  A    between atoms: C_10  and  O_26
REMARK    5  A    between atoms: C_15  and  O_18
REMARK    6  A    between atoms: C_17  and  O_20
REMARK                            x       y       z     vdW  Elec       q    Type
REMARK                         _______ _______ _______ _____ _____    ______ ____
ROOT
ATOM      1  O   UNL     1      21.019   1.158 190.437  0.00  0.00    +0.000 OA
ATOM      2  O   UNL     1      17.001   1.625 190.041  0.00  0.00    +0.000 OA
ATOM      3  C   UNL     1      19.117   1.806 189.080  0.00  0.00    +0.000 A 
ATOM      4  C   UNL     1      20.483   1.631 189.270  0.00  0.00    +0.000 A 
ATOM      5  C   UNL     1      20.167   0.819 191.477  0.00  0.00    +0.000 A 
ATOM      6  C   UNL     1      18.823   0.949 191.438  0.00  0.00    +0.000 A 
ATOM      7  C   UNL     1      18.211   1.470 190.182  0.00  0.00    +0.000 A 
ATOM      8  C   UNL     1      18.638   2.296 187.858  0.00  0.00    +0.000 A 
ATOM      9  C   UNL     1      21.377   1.942 188.247  0.00  0.00    +0.000 A 
ATOM     10  C   UNL     1      20.891   2.427 187.037  0.00  0.00    +0.000 A 
ATOM     11  C   UNL     1      19.527   2.608 186.834  0.00  0.00    +0.000 A 
ENDROOT
BRANCH   5  12
ATOM     12  C   UNL     1      20.899   0.307 192.645  0.00  0.00    +0.000 A 
ATOM     13  C   UNL     1      20.792  -1.032 193.031  0.00  0.00    +0.000 A 
ATOM     14  C   UNL     1      21.764   1.156 193.347  0.00  0.00    +0.000 A 
ATOM     15  C   UNL     1      21.524  -1.498 194.116  0.00  0.00    +0.000 A 
ATOM     16  C   UNL     1      22.510   0.682 194.425  0.00  0.00    +0.000 A 
ATOM     17  C   UNL     1      22.396  -0.652 194.792  0.00  0.00    +0.000 A 
BRANCH  15  18
ATOM     18  O   UNL     1      21.342  -2.787 194.525  0.00  0.00    +0.000 OA
ATOM     19  H   UNL     1      21.959  -3.340 194.010  0.00  0.00    +0.000 HD
ENDBRANCH  15  18
BRANCH  17  20
ATOM     20  O   UNL     1      23.168  -1.128 195.810  0.00  0.00    +0.000 OA
ATOM     21  H   UNL     1      22.560  -1.544 196.449  0.00  0.00    +0.000 HD
ENDBRANCH  17  20
ENDBRANCH   5  12
BRANCH   6  22
ATOM     22  O   UNL     1      17.961   0.655 192.477  0.00  0.00    +0.000 OA
ATOM     23  H   UNL     1      18.462   0.479 193.289  0.00  0.00    +0.000 HD
ENDBRANCH   6  22
BRANCH   8  24
ATOM     24  O   UNL     1      17.308   2.495 187.602  0.00  0.00    +0.000 OA
ATOM     25  H   UNL     1      17.228   2.993 186.755  0.00  0.00    +0.000 HD
ENDBRANCH   8  24
BRANCH  10  26
ATOM     26  O   UNL     1      21.786   2.724 186.052  0.00  0.00    +0.000 OA
ATOM     27  H   UNL     1      21.659   3.656 185.798  0.00  0.00    +0.000 HD
ENDBRANCH  10  26
TORSDOF 6
ENDMDL
MODEL 6
REMARK VINA RESULT:      -7.7      2.092      3.101
REMARK  Name = Quercetin.pdbqt.pdb
REMARK  6 active torsions:
REMARK  status: ('A' for Active; 'I' for Inactive)
REMARK    1  A    between atoms: C_5  and  C_12
REMARK    2  A    between atoms: C_6  and  O_22
REMARK    3  A    between atoms: C_8  and  O_24
REMARK    4  A    between atoms: C_10  and  O_26
REMARK    5  A    between atoms: C_15  and  O_18
REMARK    6  A    between atoms: C_17  and  O_20
REMARK                            x       y       z     vdW  Elec       q    Type
REMARK                         _______ _______ _______ _____ _____    ______ ____
ROOT
ATOM      1  O   UNL     1      20.810   2.333 188.828  0.00  0.00    +0.000 OA
ATOM      2  O   UNL     1      23.766   0.076 190.466  0.00  0.00    +0.000 OA
ATOM      3  C   UNL     1      21.555   0.808 190.559  0.00  0.00    +0.000 A 
ATOM      4  C   UNL     1      20.581   1.599 189.959  0.00  0.00    +0.000 A 
ATOM      5  C   UNL     1      22.062   2.279 188.234  0.00  0.00    +0.000 A 
ATOM      6  C   UNL     1      23.104   1.564 188.712  0.00  0.00    +0.000 A 
ATOM      7  C   UNL     1      22.887   0.761 189.949  0.00  0.00    +0.000 A 
ATOM      8  C   UNL     1      21.251   0.083 191.718  0.00  0.00    +0.000 A 
ATOM      9  C   UNL     1      19.303   1.673 190.510  0.00  0.00    +0.000 A 
ATOM     10  C   UNL     1      19.011   0.948 191.662  0.00  0.00    +0.000 A 
ATOM     11  C   UNL     1      19.976   0.153 192.272  0.00  0.00    +0.000 A 
ENDROOT
BRANCH   5  12
ATOM     12  C   UNL     1      22.133   3.103 187.019  0.00  0.00    +0.000 A 
ATOM     13  C   UNL     1      23.231   3.934 186.776  0.00  0.00    +0.000 A 
ATOM     14  C   UNL     1      21.117   3.011 186.059  0.00  0.00    +0.000 A 
ATOM     15  C   UNL     1      23.290   4.673 185.602  0.00  0.00    +0.000 A 
ATOM     16  C   UNL     1      21.187   3.741 184.874  0.00  0.00    +0.000 A 
ATOM     17  C   UNL     1      22.286   4.558 184.646  0.00  0.00    +0.000 A 
BRANCH  15  18
ATOM     18  O   UNL     1      24.329   5.539 185.422  0.00  0.00    +0.000 OA
ATOM     19  H   UNL     1      24.649   5.415 184.509  0.00  0.00    +0.000 HD
ENDBRANCH  15  18
BRANCH  17  20
ATOM     20  O   UNL     1      22.380   5.228 183.462  0.00  0.00    +0.000 OA
ATOM     21  H   UNL     1      21.472   5.307 183.114  0.00  0.00    +0.000 HD
ENDBRANCH  17  20
ENDBRANCH   5  12
BRANCH   6  22
ATOM     22  O   UNL     1      24.370   1.528 188.158  0.00  0.00    +0.000 OA
ATOM     23  H   UNL     1      24.975   2.089 188.668  0.00  0.00    +0.000 HD
ENDBRANCH   6  22
BRANCH   8  24
ATOM     24  O   UNL     1      22.159  -0.714 192.362  0.00  0.00    +0.000 OA
ATOM     25  H   UNL     1      21.667  -1.327 192.956  0.00  0.00    +0.000 HD
ENDBRANCH   8  24
BRANCH  10  26
ATOM     26  O   UNL     1      17.753   1.037 192.182  0.00  0.00    +0.000 OA
ATOM     27  H   UNL     1      17.815   1.469 193.052  0.00  0.00    +0.000 HD
ENDBRANCH  10  26
TORSDOF 6
ENDMDL
MODEL 7
REMARK VINA RESULT:      -7.3      2.664      7.140
REMARK  Name = Quercetin.pdbqt.pdb
REMARK  6 active torsions:
REMARK  status: ('A' for Active; 'I' for Inactive)
REMARK    1  A    between atoms: C_5  and  C_12
REMARK    2  A    between atoms: C_6  and  O_22
REMARK    3  A    between atoms: C_8  and  O_24
REMARK    4  A    between atoms: C_10  and  O_26
REMARK    5  A    between atoms: C_15  and  O_18
REMARK    6  A    between atoms: C_17  and  O_20
REMARK                            x       y       z     vdW  Elec       q    Type
REMARK                         _______ _______ _______ _____ _____    ______ ____
ROOT
ATOM      1  O   UNL     1      23.408   2.716 190.588  0.00  0.00    +0.000 OA
ATOM      2  O   UNL     1      19.917   4.405 189.369  0.00  0.00    +0.000 OA
ATOM      3  C   UNL     1      22.232   4.257 189.132  0.00  0.00    +0.000 A 
ATOM      4  C   UNL     1      23.396   3.651 189.590  0.00  0.00    +0.000 A 
ATOM      5  C   UNL     1      22.205   2.336 191.165  0.00  0.00    +0.000 A 
ATOM      6  C   UNL     1      21.001   2.849 190.830  0.00  0.00    +0.000 A 
ATOM      7  C   UNL     1      20.958   3.876 189.750  0.00  0.00    +0.000 A 
ATOM      8  C   UNL     1      22.295   5.209 188.106  0.00  0.00    +0.000 A 
ATOM      9  C   UNL     1      24.627   3.989 189.030  0.00  0.00    +0.000 A 
ATOM     10  C   UNL     1      24.679   4.934 188.010  0.00  0.00    +0.000 A 
ATOM     11  C   UNL     1      23.522   5.549 187.543  0.00  0.00    +0.000 A 
ENDROOT
BRANCH   5  12
ATOM     12  C   UNL     1      22.389   1.309 192.200  0.00  0.00    +0.000 A 
ATOM     13  C   UNL     1      21.879   0.018 192.032  0.00  0.00    +0.000 A 
ATOM     14  C   UNL     1      23.139   1.607 193.345  0.00  0.00    +0.000 A 
ATOM     15  C   UNL     1      22.101  -0.943 193.010  0.00  0.00    +0.000 A 
ATOM     16  C   UNL     1      23.374   0.635 194.317  0.00  0.00    +0.000 A 
ATOM     17  C   UNL     1      22.865  -0.642 194.133  0.00  0.00    +0.000 A 
BRANCH  15  18
ATOM     18  O   UNL     1      21.526  -2.171 192.866  0.00  0.00    +0.000 OA
ATOM     19  H   UNL     1      20.842  -2.087 192.175  0.00  0.00    +0.000 HD
ENDBRANCH  15  18
BRANCH  17  20
ATOM     20  O   UNL     1      23.143  -1.607 195.057  0.00  0.00    +0.000 OA
ATOM     21  H   UNL     1      23.453  -2.387 194.560  0.00  0.00    +0.000 HD
ENDBRANCH  17  20
ENDBRANCH   5  12
BRANCH   6  22
ATOM     22  O   UNL     1      19.797   2.513 191.419  0.00  0.00    +0.000 OA
ATOM     23  H   UNL     1      19.131   2.325 190.739  0.00  0.00    +0.000 HD
ENDBRANCH   6  22
BRANCH   8  24
ATOM     24  O   UNL     1      21.191   5.846 187.608  0.00  0.00    +0.000 OA
ATOM     25  H   UNL     1      20.767   6.349 188.342  0.00  0.00    +0.000 HD
ENDBRANCH   8  24
BRANCH  10  26
ATOM     26  O   UNL     1      25.895   5.248 187.478  0.00  0.00    +0.000 OA
ATOM     27  H   UNL     1      26.492   5.490 188.209  0.00  0.00    +0.000 HD
ENDBRANCH  10  26
TORSDOF 6
ENDMDL
MODEL 8
REMARK VINA RESULT:      -7.3     32.022     33.548
REMARK  Name = Quercetin.pdbqt.pdb
REMARK  6 active torsions:
REMARK  status: ('A' for Active; 'I' for Inactive)
REMARK    1  A    between atoms: C_5  and  C_12
REMARK    2  A    between atoms: C_6  and  O_22
REMARK    3  A    between atoms: C_8  and  O_24
REMARK    4  A    between atoms: C_10  and  O_26
REMARK    5  A    between atoms: C_15  and  O_18
REMARK    6  A    between atoms: C_17  and  O_20
REMARK                            x       y       z     vdW  Elec       q    Type
REMARK                         _______ _______ _______ _____ _____    ______ ____
ROOT
ATOM      1  O   UNL     1      41.838  -5.503 164.955  0.00  0.00    +0.000 OA
ATOM      2  O   UNL     1      42.557  -9.448 165.617  0.00  0.00    +0.000 OA
ATOM      3  C   UNL     1      41.044  -7.794 164.978  0.00  0.00    +0.000 A 
ATOM      4  C   UNL     1      40.852  -6.433 164.770  0.00  0.00    +0.000 A 
ATOM      5  C   UNL     1      43.096  -5.930 165.353  0.00  0.00    +0.000 A 
ATOM      6  C   UNL     1      43.423  -7.216 165.604  0.00  0.00    +0.000 A 
ATOM      7  C   UNL     1      42.366  -8.251 165.418  0.00  0.00    +0.000 A 
ATOM      8  C   UNL     1      39.988  -8.690 164.769  0.00  0.00    +0.000 A 
ATOM      9  C   UNL     1      39.609  -5.958 164.354  0.00  0.00    +0.000 A 
ATOM     10  C   UNL     1      38.567  -6.856 164.149  0.00  0.00    +0.000 A 
ATOM     11  C   UNL     1      38.746  -8.221 164.354  0.00  0.00    +0.000 A 
ENDROOT
BRANCH   5  12
ATOM     12  C   UNL     1      44.042  -4.813 165.483  0.00  0.00    +0.000 A 
ATOM     13  C   UNL     1      43.741  -3.704 166.280  0.00  0.00    +0.000 A 
ATOM     14  C   UNL     1      45.290  -4.884 164.850  0.00  0.00    +0.000 A 
ATOM     15  C   UNL     1      44.670  -2.679 166.415  0.00  0.00    +0.000 A 
ATOM     16  C   UNL     1      46.226  -3.862 165.001  0.00  0.00    +0.000 A 
ATOM     17  C   UNL     1      45.913  -2.771 165.799  0.00  0.00    +0.000 A 
BRANCH  15  18
ATOM     18  O   UNL     1      44.324  -1.571 167.130  0.00  0.00    +0.000 OA
ATOM     19  H   UNL     1      44.659  -0.797 166.639  0.00  0.00    +0.000 HD
ENDBRANCH  15  18
BRANCH  17  20
ATOM     20  O   UNL     1      46.852  -1.799 165.991  0.00  0.00    +0.000 OA
ATOM     21  H   UNL     1      47.715  -2.251 166.036  0.00  0.00    +0.000 HD
ENDBRANCH  17  20
ENDBRANCH   5  12
BRANCH   6  22
ATOM     22  O   UNL     1      44.658  -7.657 166.038  0.00  0.00    +0.000 OA
ATOM     23  H   UNL     1      45.318  -7.554 165.335  0.00  0.00    +0.000 HD
ENDBRANCH   6  22
BRANCH   8  24
ATOM     24  O   UNL     1      40.106 -10.041 164.956  0.00  0.00    +0.000 OA
ATOM     25  H   UNL     1      39.205 -10.440 164.905  0.00  0.00    +0.000 HD
ENDBRANCH   8  24
BRANCH  10  26
ATOM     26  O   UNL     1      37.360  -6.367 163.742  0.00  0.00    +0.000 OA
ATOM     27  H   UNL     1      36.749  -7.118 163.634  0.00  0.00    +0.000 HD
ENDBRANCH  10  26
TORSDOF 6
ENDMDL
MODEL 9
REMARK VINA RESULT:      -7.3     34.843     36.427
REMARK  Name = Quercetin.pdbqt.pdb
REMARK  6 active torsions:
REMARK  status: ('A' for Active; 'I' for Inactive)
REMARK    1  A    between atoms: C_5  and  C_12
REMARK    2  A    between atoms: C_6  and  O_22
REMARK    3  A    between atoms: C_8  and  O_24
REMARK    4  A    between atoms: C_10  and  O_26
REMARK    5  A    between atoms: C_15  and  O_18
REMARK    6  A    between atoms: C_17  and  O_20
REMARK                            x       y       z     vdW  Elec       q    Type
REMARK                         _______ _______ _______ _____ _____    ______ ____
ROOT
ATOM      1  O   UNL     1      43.068 -21.421 173.891  0.00  0.00    +0.000 OA
ATOM      2  O   UNL     1      40.563 -18.787 172.073  0.00  0.00    +0.000 OA
ATOM      3  C   UNL     1      40.873 -20.405 173.723  0.00  0.00    +0.000 A 
ATOM      4  C   UNL     1      41.771 -21.292 174.306  0.00  0.00    +0.000 A 
ATOM      5  C   UNL     1      43.523 -20.623 172.852  0.00  0.00    +0.000 A 
ATOM      6  C   UNL     1      42.761 -19.728 172.186  0.00  0.00    +0.000 A 
ATOM      7  C   UNL     1      41.341 -19.572 172.611  0.00  0.00    +0.000 A 
ATOM      8  C   UNL     1      39.558 -20.326 174.198  0.00  0.00    +0.000 A 
ATOM      9  C   UNL     1      41.364 -22.103 175.364  0.00  0.00    +0.000 A 
ATOM     10  C   UNL     1      40.056 -22.017 175.829  0.00  0.00    +0.000 A 
ATOM     11  C   UNL     1      39.148 -21.134 175.254  0.00  0.00    +0.000 A 
ENDROOT
BRANCH   5  12
ATOM     12  C   UNL     1      44.940 -20.868 172.547  0.00  0.00    +0.000 A 
ATOM     13  C   UNL     1      45.946 -20.087 173.124  0.00  0.00    +0.000 A 
ATOM     14  C   UNL     1      45.294 -21.939 171.716  0.00  0.00    +0.000 A 
ATOM     15  C   UNL     1      47.278 -20.365 172.847  0.00  0.00    +0.000 A 
ATOM     16  C   UNL     1      46.633 -22.226 171.454  0.00  0.00    +0.000 A 
ATOM     17  C   UNL     1      47.619 -21.443 172.038  0.00  0.00    +0.000 A 
BRANCH  15  18
ATOM     18  O   UNL     1      48.240 -19.540 173.354  0.00  0.00    +0.000 OA
ATOM     19  H   UNL     1      48.501 -18.932 172.637  0.00  0.00    +0.000 HD
ENDBRANCH  15  18
BRANCH  17  20
ATOM     20  O   UNL     1      48.929 -21.760 171.826  0.00  0.00    +0.000 OA
ATOM     21  H   UNL     1      49.023 -22.708 172.035  0.00  0.00    +0.000 HD
ENDBRANCH  17  20
ENDBRANCH   5  12
BRANCH   6  22
ATOM     22  O   UNL     1      43.184 -18.952 171.123  0.00  0.00    +0.000 OA
ATOM     23  H   UNL     1      43.483 -19.517 170.394  0.00  0.00    +0.000 HD
ENDBRANCH   6  22
BRANCH   8  24
ATOM     24  O   UNL     1      38.622 -19.478 173.671  0.00  0.00    +0.000 OA
ATOM     25  H   UNL     1      37.852 -19.447 174.286  0.00  0.00    +0.000 HD
ENDBRANCH   8  24
BRANCH  10  26
ATOM     26  O   UNL     1      39.682 -22.822 176.865  0.00  0.00    +0.000 OA
ATOM     27  H   UNL     1      39.388 -23.674 176.497  0.00  0.00    +0.000 HD
ENDBRANCH  10  26
TORSDOF 6
ENDMDL
