MODEL 1
REMARK VINA RESULT:      -6.8      0.000      0.000
REMARK  Name = 
REMARK  14 active torsions:
REMARK  status: ('A' for Active; 'I' for Inactive)
REMARK    1  A    between atoms: O_1  and  C_24
REMARK    2  A    between atoms: O_1  and  C_36
REMARK    3  A    between atoms: O_4  and  C_30
REMARK    4  A    between atoms: O_4  and  C_37
REMARK    5  A    between atoms: O_7  and  C_33
REMARK    6  A    between atoms: O_7  and  C_38
REMARK    7  A    between atoms: N_10  and  C_23
REMARK    8  A    between atoms: C_15  and  C_26
REMARK    9  A    between atoms: C_16  and  C_24
REMARK   10  A    between atoms: C_31  and  C_34
REMARK   11  A    between atoms: C_32  and  C_35
REMARK   12  A    between atoms: C_36  and  C_39
REMARK   13  A    between atoms: C_39  and  C_40
REMARK   14  A    between atoms: C_41  and  C_42
REMARK                            x       y       z     vdW  Elec       q    Type
REMARK                         _______ _______ _______ _____ _____    ______ ____
ROOT
ATOM      1  O   UNL     1      43.362 -22.593 169.267  0.00  0.00    +0.000 OA
ATOM      2  O   UNL     1      41.249 -17.783 170.084  0.00  0.00    +0.000 OA
ATOM      3  O   UNL     1      40.757 -26.265 170.483  0.00  0.00    +0.000 OA
ATOM      4  O   UNL     1      37.761 -24.486 174.499  0.00  0.00    +0.000 OA
ATOM      5  N   UNL     1      40.856 -21.915 173.098  0.00  0.00    +0.000 NA
ATOM      6  N   UNL     1      43.647 -21.002 173.089  0.00  0.00    +0.000 NA
ATOM      7  C   UNL     1      41.963 -22.740 172.549  0.00  0.00    +0.000 C 
ATOM      8  C   UNL     1      43.134 -21.838 171.966  0.00  0.00    +0.000 C 
ATOM      9  C   UNL     1      42.571 -20.077 173.527  0.00  0.00    +0.000 C 
ATOM     10  C   UNL     1      41.354 -20.906 174.087  0.00  0.00    +0.000 C 
ATOM     11  C   UNL     1      39.650 -22.656 173.560  0.00  0.00    +0.000 C 
ATOM     12  C   UNL     1      41.437 -23.730 171.488  0.00  0.00    +0.000 C 
ATOM     13  C   UNL     1      42.114 -19.127 172.385  0.00  0.00    +0.000 C 
ATOM     14  C   UNL     1      42.650 -20.976 170.809  0.00  0.00    +0.000 C 
ATOM     15  C   UNL     1      42.163 -19.742 171.010  0.00  0.00    +0.000 C 
ATOM     16  C   UNL     1      39.480 -24.043 172.959  0.00  0.00    +0.000 C 
ATOM     17  C   UNL     1      40.276 -24.527 171.998  0.00  0.00    +0.000 C 
ATOM     18  C   UNL     1      44.916 -20.342 172.795  0.00  0.00    +0.000 C 
ATOM     19  C   UNL     1      42.791 -21.521 169.439  0.00  0.00    +0.000 C 
ATOM     20  C   UNL     1      41.683 -18.913 169.885  0.00  0.00    +0.000 C 
ATOM     21  C   UNL     1      40.049 -25.861 171.399  0.00  0.00    +0.000 C 
ATOM     22  C   UNL     1      38.397 -24.886 173.530  0.00  0.00    +0.000 C 
ATOM     23  C   UNL     1      42.221 -20.725 168.303  0.00  0.00    +0.000 C 
ATOM     24  C   UNL     1      41.726 -19.495 168.519  0.00  0.00    +0.000 C 
ATOM     25  C   UNL     1      38.922 -26.676 171.914  0.00  0.00    +0.000 C 
ATOM     26  C   UNL     1      38.130 -26.220 172.898  0.00  0.00    +0.000 C 
ATOM     27  C   UNL     1      41.186 -18.606 167.437  0.00  0.00    +0.000 C 
ATOM     28  C   UNL     1      38.753 -28.013 171.252  0.00  0.00    +0.000 C 
ENDROOT
BRANCH  23  29
ATOM     29  O   UNL     1      42.253 -21.216 167.003  0.00  0.00    +0.000 OA
ATOM     30  C   UNL     1      41.257 -22.186 166.688  0.00  0.00    +0.000 C 
ENDBRANCH  23  29
BRANCH  26  31
ATOM     31  O   UNL     1      37.100 -27.030 173.364  0.00  0.00    +0.000 OA
ATOM     32  C   UNL     1      35.800 -26.688 172.886  0.00  0.00    +0.000 C 
ENDBRANCH  26  31
BRANCH  10  34
ATOM     33  N   UNL     1      41.999 -21.929 176.448  0.00  0.00    +0.000 NA
ATOM     34  C   UNL     1      41.738 -21.475 175.412  0.00  0.00    +0.000 C 
ENDBRANCH  10  34
BRANCH  11  35
ATOM     35  C   UNL     1      38.406 -21.778 173.230  0.00  0.00    +0.000 C 
BRANCH  35  36
ATOM     36  O   UNL     1      38.345 -21.561 171.804  0.00  0.00    +0.000 OA
BRANCH  36  38
ATOM     37  O   UNL     1      36.216 -22.374 171.580  0.00  0.00    +0.000 OA
ATOM     38  C   UNL     1      37.355 -22.231 171.169  0.00  0.00    +0.000 C 
BRANCH  38  39
ATOM     39  C   UNL     1      37.802 -22.667 169.815  0.00  0.00    +0.000 C 
ATOM     40  C   UNL     1      38.651 -21.646 169.112  0.00  0.00    +0.000 C 
ATOM     41  C   UNL     1      37.484 -23.844 169.240  0.00  0.00    +0.000 C 
ATOM     42  C   UNL     1      36.577 -24.915 169.757  0.00  0.00    +0.000 C 
ENDBRANCH  38  39
ENDBRANCH  36  38
ENDBRANCH  35  36
ENDBRANCH  11  35
TORSDOF 7
ENDMDL
MODEL 2
REMARK VINA RESULT:      -6.8      2.102      6.769
REMARK  Name = 
REMARK  14 active torsions:
REMARK  status: ('A' for Active; 'I' for Inactive)
REMARK    1  A    between atoms: O_1  and  C_24
REMARK    2  A    between atoms: O_1  and  C_36
REMARK    3  A    between atoms: O_4  and  C_30
REMARK    4  A    between atoms: O_4  and  C_37
REMARK    5  A    between atoms: O_7  and  C_33
REMARK    6  A    between atoms: O_7  and  C_38
REMARK    7  A    between atoms: N_10  and  C_23
REMARK    8  A    between atoms: C_15  and  C_26
REMARK    9  A    between atoms: C_16  and  C_24
REMARK   10  A    between atoms: C_31  and  C_34
REMARK   11  A    between atoms: C_32  and  C_35
REMARK   12  A    between atoms: C_36  and  C_39
REMARK   13  A    between atoms: C_39  and  C_40
REMARK   14  A    between atoms: C_41  and  C_42
REMARK                            x       y       z     vdW  Elec       q    Type
REMARK                         _______ _______ _______ _____ _____    ______ ____
ROOT
ATOM      1  O   UNL     1      37.423 -23.996 172.996  0.00  0.00    +0.000 OA
ATOM      2  O   UNL     1      41.870 -25.269 175.618  0.00  0.00    +0.000 OA
ATOM      3  O   UNL     1      37.948 -21.883 168.873  0.00  0.00    +0.000 OA
ATOM      4  O   UNL     1      42.527 -19.219 169.329  0.00  0.00    +0.000 OA
ATOM      5  N   UNL     1      40.979 -21.038 172.857  0.00  0.00    +0.000 NA
ATOM      6  N   UNL     1      39.248 -21.012 175.229  0.00  0.00    +0.000 NA
ATOM      7  C   UNL     1      39.498 -21.100 172.764  0.00  0.00    +0.000 C 
ATOM      8  C   UNL     1      38.858 -21.811 174.032  0.00  0.00    +0.000 C 
ATOM      9  C   UNL     1      40.722 -21.086 175.393  0.00  0.00    +0.000 C 
ATOM     10  C   UNL     1      41.429 -20.428 174.149  0.00  0.00    +0.000 C 
ATOM     11  C   UNL     1      41.692 -20.501 171.664  0.00  0.00    +0.000 C 
ATOM     12  C   UNL     1      39.057 -21.788 171.454  0.00  0.00    +0.000 C 
ATOM     13  C   UNL     1      41.217 -22.544 175.603  0.00  0.00    +0.000 C 
ATOM     14  C   UNL     1      39.323 -23.256 174.154  0.00  0.00    +0.000 C 
ATOM     15  C   UNL     1      40.417 -23.583 174.857  0.00  0.00    +0.000 C 
ATOM     16  C   UNL     1      40.909 -20.575 170.363  0.00  0.00    +0.000 C 
ATOM     17  C   UNL     1      39.721 -21.180 170.256  0.00  0.00    +0.000 C 
ATOM     18  C   UNL     1      38.496 -21.356 176.432  0.00  0.00    +0.000 C 
ATOM     19  C   UNL     1      38.490 -24.302 173.519  0.00  0.00    +0.000 C 
ATOM     20  C   UNL     1      40.872 -24.984 174.964  0.00  0.00    +0.000 C 
ATOM     21  C   UNL     1      39.011 -21.278 168.961  0.00  0.00    +0.000 C 
ATOM     22  C   UNL     1      41.506 -19.884 169.189  0.00  0.00    +0.000 C 
ATOM     23  C   UNL     1      38.995 -25.715 173.544  0.00  0.00    +0.000 C 
ATOM     24  C   UNL     1      40.098 -26.027 174.242  0.00  0.00    +0.000 C 
ATOM     25  C   UNL     1      39.640 -20.655 167.770  0.00  0.00    +0.000 C 
ATOM     26  C   UNL     1      40.818 -20.017 167.863  0.00  0.00    +0.000 C 
ATOM     27  C   UNL     1      40.645 -27.419 174.368  0.00  0.00    +0.000 C 
ATOM     28  C   UNL     1      38.863 -20.802 166.494  0.00  0.00    +0.000 C 
ENDROOT
BRANCH  23  29
ATOM     29  O   UNL     1      38.298 -26.731 172.900  0.00  0.00    +0.000 OA
ATOM     30  C   UNL     1      37.180 -27.255 173.612  0.00  0.00    +0.000 C 
ENDBRANCH  23  29
BRANCH  26  31
ATOM     31  O   UNL     1      41.356 -19.428 166.724  0.00  0.00    +0.000 OA
ATOM     32  C   UNL     1      42.569 -20.016 166.257  0.00  0.00    +0.000 C 
ENDBRANCH  26  31
BRANCH  10  34
ATOM     33  N   UNL     1      41.101 -17.797 174.254  0.00  0.00    +0.000 NA
ATOM     34  C   UNL     1      41.250 -18.948 174.229  0.00  0.00    +0.000 C 
ENDBRANCH  10  34
BRANCH  11  35
ATOM     35  C   UNL     1      43.029 -21.289 171.525  0.00  0.00    +0.000 C 
BRANCH  35  36
ATOM     36  O   UNL     1      42.833 -22.641 171.991  0.00  0.00    +0.000 OA
BRANCH  36  38
ATOM     37  O   UNL     1      44.224 -23.507 170.389  0.00  0.00    +0.000 OA
ATOM     38  C   UNL     1      43.269 -23.602 171.144  0.00  0.00    +0.000 C 
BRANCH  38  39
ATOM     39  C   UNL     1      42.506 -24.867 171.347  0.00  0.00    +0.000 C 
ATOM     40  C   UNL     1      41.133 -24.836 170.735  0.00  0.00    +0.000 C 
ATOM     41  C   UNL     1      42.960 -25.943 172.018  0.00  0.00    +0.000 C 
ATOM     42  C   UNL     1      44.247 -26.096 172.765  0.00  0.00    +0.000 C 
ENDBRANCH  38  39
ENDBRANCH  36  38
ENDBRANCH  35  36
ENDBRANCH  11  35
TORSDOF 7
ENDMDL
MODEL 3
REMARK VINA RESULT:      -6.5     33.308     36.013
REMARK  Name = 
REMARK  14 active torsions:
REMARK  status: ('A' for Active; 'I' for Inactive)
REMARK    1  A    between atoms: O_1  and  C_24
REMARK    2  A    between atoms: O_1  and  C_36
REMARK    3  A    between atoms: O_4  and  C_30
REMARK    4  A    between atoms: O_4  and  C_37
REMARK    5  A    between atoms: O_7  and  C_33
REMARK    6  A    between atoms: O_7  and  C_38
REMARK    7  A    between atoms: N_10  and  C_23
REMARK    8  A    between atoms: C_15  and  C_26
REMARK    9  A    between atoms: C_16  and  C_24
REMARK   10  A    between atoms: C_31  and  C_34
REMARK   11  A    between atoms: C_32  and  C_35
REMARK   12  A    between atoms: C_36  and  C_39
REMARK   13  A    between atoms: C_39  and  C_40
REMARK   14  A    between atoms: C_41  and  C_42
REMARK                            x       y       z     vdW  Elec       q    Type
REMARK                         _______ _______ _______ _____ _____    ______ ____
ROOT
ATOM      1  O   UNL     1      22.289  -1.758 191.643  0.00  0.00    +0.000 OA
ATOM      2  O   UNL     1      19.953   2.831 192.967  0.00  0.00    +0.000 OA
ATOM      3  O   UNL     1      26.655  -2.403 193.147  0.00  0.00    +0.000 OA
ATOM      4  O   UNL     1      28.685   2.502 193.449  0.00  0.00    +0.000 OA
ATOM      5  N   UNL     1      24.851   2.095 191.634  0.00  0.00    +0.000 NA
ATOM      6  N   UNL     1      23.139   1.566 189.307  0.00  0.00    +0.000 NA
ATOM      7  C   UNL     1      24.748   0.751 191.009  0.00  0.00    +0.000 C 
ATOM      8  C   UNL     1      23.321   0.517 190.352  0.00  0.00    +0.000 C 
ATOM      9  C   UNL     1      23.095   2.895 189.968  0.00  0.00    +0.000 C 
ATOM     10  C   UNL     1      24.472   3.183 190.676  0.00  0.00    +0.000 C 
ATOM     11  C   UNL     1      26.105   2.376 192.388  0.00  0.00    +0.000 C 
ATOM     12  C   UNL     1      25.084  -0.357 192.030  0.00  0.00    +0.000 C 
ATOM     13  C   UNL     1      21.919   3.009 190.978  0.00  0.00    +0.000 C 
ATOM     14  C   UNL     1      22.212   0.573 191.393  0.00  0.00    +0.000 C 
ATOM     15  C   UNL     1      21.588   1.722 191.692  0.00  0.00    +0.000 C 
ATOM     16  C   UNL     1      26.861   1.143 192.858  0.00  0.00    +0.000 C 
ATOM     17  C   UNL     1      26.390  -0.102 192.720  0.00  0.00    +0.000 C 
ATOM     18  C   UNL     1      22.017   1.308 188.409  0.00  0.00    +0.000 C 
ATOM     19  C   UNL     1      21.799  -0.700 192.026  0.00  0.00    +0.000 C 
ATOM     20  C   UNL     1      20.520   1.775 192.711  0.00  0.00    +0.000 C 
ATOM     21  C   UNL     1      27.128  -1.275 193.236  0.00  0.00    +0.000 C 
ATOM     22  C   UNL     1      28.206   1.373 193.448  0.00  0.00    +0.000 C 
ATOM     23  C   UNL     1      20.782  -0.641 193.128  0.00  0.00    +0.000 C 
ATOM     24  C   UNL     1      20.173   0.518 193.425  0.00  0.00    +0.000 C 
ATOM     25  C   UNL     1      28.437  -1.043 193.895  0.00  0.00    +0.000 C 
ATOM     26  C   UNL     1      28.941   0.196 194.017  0.00  0.00    +0.000 C 
ATOM     27  C   UNL     1      19.106   0.662 194.472  0.00  0.00    +0.000 C 
ATOM     28  C   UNL     1      29.121  -2.281 194.398  0.00  0.00    +0.000 C 
ENDROOT
BRANCH  23  29
ATOM     29  O   UNL     1      20.408  -1.790 193.815  0.00  0.00    +0.000 OA
ATOM     30  C   UNL     1      21.222  -2.129 194.935  0.00  0.00    +0.000 C 
ENDBRANCH  23  29
BRANCH  26  31
ATOM     31  O   UNL     1      30.183   0.362 194.621  0.00  0.00    +0.000 OA
ATOM     32  C   UNL     1      31.286   0.441 193.720  0.00  0.00    +0.000 C 
ENDBRANCH  26  31
BRANCH  10  34
ATOM     33  N   UNL     1      26.299   3.653 188.812  0.00  0.00    +0.000 NA
ATOM     34  C   UNL     1      25.494   3.468 189.627  0.00  0.00    +0.000 C 
ENDBRANCH  10  34
BRANCH  11  35
ATOM     35  C   UNL     1      25.727   3.266 193.610  0.00  0.00    +0.000 C 
BRANCH  35  36
ATOM     36  O   UNL     1      24.730   2.585 194.401  0.00  0.00    +0.000 OA
BRANCH  36  38
ATOM     37  O   UNL     1      25.922   2.716 196.352  0.00  0.00    +0.000 OA
ATOM     38  C   UNL     1      25.169   2.125 195.595  0.00  0.00    +0.000 C 
BRANCH  38  39
ATOM     39  C   UNL     1      24.500   0.838 195.941  0.00  0.00    +0.000 C 
ATOM     40  C   UNL     1      23.019   0.851 195.684  0.00  0.00    +0.000 C 
ATOM     41  C   UNL     1      25.124  -0.244 196.448  0.00  0.00    +0.000 C 
ATOM     42  C   UNL     1      26.557  -0.385 196.853  0.00  0.00    +0.000 C 
ENDBRANCH  38  39
ENDBRANCH  36  38
ENDBRANCH  35  36
ENDBRANCH  11  35
TORSDOF 7
ENDMDL
MODEL 4
REMARK VINA RESULT:      -6.4     31.571     33.907
REMARK  Name = 
REMARK  14 active torsions:
REMARK  status: ('A' for Active; 'I' for Inactive)
REMARK    1  A    between atoms: O_1  and  C_24
REMARK    2  A    between atoms: O_1  and  C_36
REMARK    3  A    between atoms: O_4  and  C_30
REMARK    4  A    between atoms: O_4  and  C_37
REMARK    5  A    between atoms: O_7  and  C_33
REMARK    6  A    between atoms: O_7  and  C_38
REMARK    7  A    between atoms: N_10  and  C_23
REMARK    8  A    between atoms: C_15  and  C_26
REMARK    9  A    between atoms: C_16  and  C_24
REMARK   10  A    between atoms: C_31  and  C_34
REMARK   11  A    between atoms: C_32  and  C_35
REMARK   12  A    between atoms: C_36  and  C_39
REMARK   13  A    between atoms: C_39  and  C_40
REMARK   14  A    between atoms: C_41  and  C_42
REMARK                            x       y       z     vdW  Elec       q    Type
REMARK                         _______ _______ _______ _____ _____    ______ ____
ROOT
ATOM      1  O   UNL     1      29.858   1.787 187.881  0.00  0.00    +0.000 OA
ATOM      2  O   UNL     1      31.587   4.660 192.007  0.00  0.00    +0.000 OA
ATOM      3  O   UNL     1      25.353   0.586 187.900  0.00  0.00    +0.000 OA
ATOM      4  O   UNL     1      24.093   0.263 193.055  0.00  0.00    +0.000 OA
ATOM      5  N   UNL     1      28.209   0.802 192.091  0.00  0.00    +0.000 NA
ATOM      6  N   UNL     1      30.848  -0.256 191.356  0.00  0.00    +0.000 NA
ATOM      7  C   UNL     1      28.482   0.192 190.764  0.00  0.00    +0.000 C 
ATOM      8  C   UNL     1      29.994   0.398 190.323  0.00  0.00    +0.000 C 
ATOM      9  C   UNL     1      30.674   0.462 192.644  0.00  0.00    +0.000 C 
ATOM     10  C   UNL     1      29.182   0.331 193.129  0.00  0.00    +0.000 C 
ATOM     11  C   UNL     1      26.791   0.775 192.548  0.00  0.00    +0.000 C 
ATOM     12  C   UNL     1      27.508   0.737 189.698  0.00  0.00    +0.000 C 
ATOM     13  C   UNL     1      31.094   1.955 192.544  0.00  0.00    +0.000 C 
ATOM     14  C   UNL     1      30.335   1.875 190.176  0.00  0.00    +0.000 C 
ATOM     15  C   UNL     1      30.818   2.588 191.204  0.00  0.00    +0.000 C 
ATOM     16  C   UNL     1      25.762   0.619 191.439  0.00  0.00    +0.000 C 
ATOM     17  C   UNL     1      26.080   0.626 190.139  0.00  0.00    +0.000 C 
ATOM     18  C   UNL     1      32.240  -0.419 190.946  0.00  0.00    +0.000 C 
ATOM     19  C   UNL     1      30.173   2.488 188.838  0.00  0.00    +0.000 C 
ATOM     20  C   UNL     1      31.137   4.024 191.060  0.00  0.00    +0.000 C 
ATOM     21  C   UNL     1      25.047   0.524 189.085  0.00  0.00    +0.000 C 
ATOM     22  C   UNL     1      24.355   0.401 191.865  0.00  0.00    +0.000 C 
ATOM     23  C   UNL     1      30.405   3.964 188.707  0.00  0.00    +0.000 C 
ATOM     24  C   UNL     1      30.879   4.669 189.747  0.00  0.00    +0.000 C 
ATOM     25  C   UNL     1      23.631   0.383 189.506  0.00  0.00    +0.000 C 
ATOM     26  C   UNL     1      23.295   0.345 190.806  0.00  0.00    +0.000 C 
ATOM     27  C   UNL     1      31.192   6.136 189.693  0.00  0.00    +0.000 C 
ATOM     28  C   UNL     1      22.642   0.293 188.379  0.00  0.00    +0.000 C 
ENDROOT
BRANCH  23  29
ATOM     29  O   UNL     1      30.196   4.614 187.496  0.00  0.00    +0.000 OA
ATOM     30  C   UNL     1      31.242   4.477 186.538  0.00  0.00    +0.000 C 
ENDBRANCH  23  29
BRANCH  26  31
ATOM     31  O   UNL     1      21.957   0.188 191.151  0.00  0.00    +0.000 OA
ATOM     32  C   UNL     1      21.669  -0.963 191.942  0.00  0.00    +0.000 C 
ENDBRANCH  26  31
BRANCH  10  34
ATOM     33  N   UNL     1      28.818  -2.158 193.972  0.00  0.00    +0.000 NA
ATOM     34  C   UNL     1      28.956  -1.067 193.599  0.00  0.00    +0.000 C 
ENDBRANCH  10  34
BRANCH  11  35
ATOM     35  C   UNL     1      26.529   2.094 193.335  0.00  0.00    +0.000 C 
BRANCH  35  36
ATOM     36  O   UNL     1      25.992   3.085 192.434  0.00  0.00    +0.000 OA
BRANCH  36  38
ATOM     37  O   UNL     1      25.087   4.589 193.905  0.00  0.00    +0.000 OA
ATOM     38  C   UNL     1      24.993   3.839 192.947  0.00  0.00    +0.000 C 
BRANCH  38  39
ATOM     39  C   UNL     1      23.771   3.739 192.099  0.00  0.00    +0.000 C 
ATOM     40  C   UNL     1      22.522   3.459 192.886  0.00  0.00    +0.000 C 
ATOM     41  C   UNL     1      23.751   3.867 190.757  0.00  0.00    +0.000 C 
ATOM     42  C   UNL     1      24.907   4.045 189.824  0.00  0.00    +0.000 C 
ENDBRANCH  38  39
ENDBRANCH  36  38
ENDBRANCH  35  36
ENDBRANCH  11  35
TORSDOF 7
ENDMDL
MODEL 5
REMARK VINA RESULT:      -6.4     15.234     18.236
REMARK  Name = 
REMARK  14 active torsions:
REMARK  status: ('A' for Active; 'I' for Inactive)
REMARK    1  A    between atoms: O_1  and  C_24
REMARK    2  A    between atoms: O_1  and  C_36
REMARK    3  A    between atoms: O_4  and  C_30
REMARK    4  A    between atoms: O_4  and  C_37
REMARK    5  A    between atoms: O_7  and  C_33
REMARK    6  A    between atoms: O_7  and  C_38
REMARK    7  A    between atoms: N_10  and  C_23
REMARK    8  A    between atoms: C_15  and  C_26
REMARK    9  A    between atoms: C_16  and  C_24
REMARK   10  A    between atoms: C_31  and  C_34
REMARK   11  A    between atoms: C_32  and  C_35
REMARK   12  A    between atoms: C_36  and  C_39
REMARK   13  A    between atoms: C_39  and  C_40
REMARK   14  A    between atoms: C_41  and  C_42
REMARK                            x       y       z     vdW  Elec       q    Type
REMARK                         _______ _______ _______ _____ _____    ______ ____
ROOT
ATOM      1  O   UNL     1      39.458  -6.049 159.451  0.00  0.00    +0.000 OA
ATOM      2  O   UNL     1      37.291 -10.841 160.234  0.00  0.00    +0.000 OA
ATOM      3  O   UNL     1      42.897  -4.802 162.343  0.00  0.00    +0.000 OA
ATOM      4  O   UNL     1      41.804  -7.359 166.875  0.00  0.00    +0.000 OA
ATOM      5  N   UNL     1      38.855  -7.505 163.803  0.00  0.00    +0.000 NA
ATOM      6  N   UNL     1      36.543  -6.375 162.387  0.00  0.00    +0.000 NA
ATOM      7  C   UNL     1      38.949  -6.272 162.978  0.00  0.00    +0.000 C 
ATOM      8  C   UNL     1      37.903  -6.284 161.783  0.00  0.00    +0.000 C 
ATOM      9  C   UNL     1      36.415  -7.681 163.082  0.00  0.00    +0.000 C 
ATOM     10  C   UNL     1      37.452  -7.757 164.265  0.00  0.00    +0.000 C 
ATOM     11  C   UNL     1      39.873  -7.656 164.879  0.00  0.00    +0.000 C 
ATOM     12  C   UNL     1      40.388  -6.065 162.462  0.00  0.00    +0.000 C 
ATOM     13  C   UNL     1      36.594  -8.881 162.112  0.00  0.00    +0.000 C 
ATOM     14  C   UNL     1      38.163  -7.439 160.826  0.00  0.00    +0.000 C 
ATOM     15  C   UNL     1      37.577  -8.634 160.995  0.00  0.00    +0.000 C 
ATOM     16  C   UNL     1      41.143  -6.843 164.679  0.00  0.00    +0.000 C 
ATOM     17  C   UNL     1      41.394  -6.137 163.570  0.00  0.00    +0.000 C 
ATOM     18  C   UNL     1      35.464  -6.093 161.445  0.00  0.00    +0.000 C 
ATOM     19  C   UNL     1      39.040  -7.183 159.661  0.00  0.00    +0.000 C 
ATOM     20  C   UNL     1      37.841  -9.757 160.071  0.00  0.00    +0.000 C 
ATOM     21  C   UNL     1      42.663  -5.400 163.388  0.00  0.00    +0.000 C 
ATOM     22  C   UNL     1      42.102  -6.819 165.814  0.00  0.00    +0.000 C 
ATOM     23  C   UNL     1      39.387  -8.342 158.773  0.00  0.00    +0.000 C 
ATOM     24  C   UNL     1      38.802  -9.536 158.960  0.00  0.00    +0.000 C 
ATOM     25  C   UNL     1      43.657  -5.436 164.489  0.00  0.00    +0.000 C 
ATOM     26  C   UNL     1      43.412  -6.115 165.621  0.00  0.00    +0.000 C 
ATOM     27  C   UNL     1      39.046 -10.734 158.089  0.00  0.00    +0.000 C 
ATOM     28  C   UNL     1      44.922  -4.670 164.226  0.00  0.00    +0.000 C 
ENDROOT
BRANCH  23  29
ATOM     29  O   UNL     1      40.266  -8.184 157.708  0.00  0.00    +0.000 OA
ATOM     30  C   UNL     1      41.651  -8.264 158.038  0.00  0.00    +0.000 C 
ENDBRANCH  23  29
BRANCH  26  31
ATOM     31  O   UNL     1      44.364  -6.100 166.635  0.00  0.00    +0.000 OA
ATOM     32  C   UNL     1      45.088  -7.318 166.801  0.00  0.00    +0.000 C 
ENDBRANCH  26  31
BRANCH  10  34
ATOM     33  N   UNL     1      36.596  -6.166 166.208  0.00  0.00    +0.000 NA
ATOM     34  C   UNL     1      36.991  -6.854 165.360  0.00  0.00    +0.000 C 
ENDBRANCH  10  34
BRANCH  11  35
ATOM     35  C   UNL     1      40.222  -9.171 164.983  0.00  0.00    +0.000 C 
BRANCH  35  36
ATOM     36  O   UNL     1      40.650  -9.648 163.689  0.00  0.00    +0.000 OA
BRANCH  36  38
ATOM     37  O   UNL     1      42.488 -10.706 164.555  0.00  0.00    +0.000 OA
ATOM     38  C   UNL     1      41.917 -10.121 163.649  0.00  0.00    +0.000 C 
BRANCH  38  39
ATOM     39  C   UNL     1      42.497  -9.956 162.285  0.00  0.00    +0.000 C 
ATOM     40  C   UNL     1      43.541  -8.878 162.210  0.00  0.00    +0.000 C 
ATOM     41  C   UNL     1      42.135 -10.671 161.201  0.00  0.00    +0.000 C 
ATOM     42  C   UNL     1      41.053 -11.698 161.085  0.00  0.00    +0.000 C 
ENDBRANCH  38  39
ENDBRANCH  36  38
ENDBRANCH  35  36
ENDBRANCH  11  35
TORSDOF 7
ENDMDL
MODEL 6
REMARK VINA RESULT:      -6.2      2.813      7.593
REMARK  Name = 
REMARK  14 active torsions:
REMARK  status: ('A' for Active; 'I' for Inactive)
REMARK    1  A    between atoms: O_1  and  C_24
REMARK    2  A    between atoms: O_1  and  C_36
REMARK    3  A    between atoms: O_4  and  C_30
REMARK    4  A    between atoms: O_4  and  C_37
REMARK    5  A    between atoms: O_7  and  C_33
REMARK    6  A    between atoms: O_7  and  C_38
REMARK    7  A    between atoms: N_10  and  C_23
REMARK    8  A    between atoms: C_15  and  C_26
REMARK    9  A    between atoms: C_16  and  C_24
REMARK   10  A    between atoms: C_31  and  C_34
REMARK   11  A    between atoms: C_32  and  C_35
REMARK   12  A    between atoms: C_36  and  C_39
REMARK   13  A    between atoms: C_39  and  C_40
REMARK   14  A    between atoms: C_41  and  C_42
REMARK                            x       y       z     vdW  Elec       q    Type
REMARK                         _______ _______ _______ _____ _____    ______ ____
ROOT
ATOM      1  O   UNL     1      38.078 -25.388 176.529  0.00  0.00    +0.000 OA
ATOM      2  O   UNL     1      37.943 -28.844 172.490  0.00  0.00    +0.000 OA
ATOM      3  O   UNL     1      40.067 -21.255 175.689  0.00  0.00    +0.000 OA
ATOM      4  O   UNL     1      43.699 -22.274 171.941  0.00  0.00    +0.000 OA
ATOM      5  N   UNL     1      41.742 -25.620 173.711  0.00  0.00    +0.000 NA
ATOM      6  N   UNL     1      41.490 -27.643 175.825  0.00  0.00    +0.000 NA
ATOM      7  C   UNL     1      41.349 -25.275 175.102  0.00  0.00    +0.000 C 
ATOM      8  C   UNL     1      40.572 -26.469 175.805  0.00  0.00    +0.000 C 
ATOM      9  C   UNL     1      41.753 -28.067 174.426  0.00  0.00    +0.000 C 
ATOM     10  C   UNL     1      42.495 -26.914 173.652  0.00  0.00    +0.000 C 
ATOM     11  C   UNL     1      42.369 -24.529 172.914  0.00  0.00    +0.000 C 
ATOM     12  C   UNL     1      40.523 -23.972 175.133  0.00  0.00    +0.000 C 
ATOM     13  C   UNL     1      40.452 -28.483 173.686  0.00  0.00    +0.000 C 
ATOM     14  C   UNL     1      39.273 -26.792 175.079  0.00  0.00    +0.000 C 
ATOM     15  C   UNL     1      39.229 -27.701 174.094  0.00  0.00    +0.000 C 
ATOM     16  C   UNL     1      42.066 -23.121 173.404  0.00  0.00    +0.000 C 
ATOM     17  C   UNL     1      41.207 -22.861 174.398  0.00  0.00    +0.000 C 
ATOM     18  C   UNL     1      41.043 -28.721 176.701  0.00  0.00    +0.000 C 
ATOM     19  C   UNL     1      38.040 -26.113 175.540  0.00  0.00    +0.000 C 
ATOM     20  C   UNL     1      37.969 -28.004 173.383  0.00  0.00    +0.000 C 
ATOM     21  C   UNL     1      40.897 -21.475 174.814  0.00  0.00    +0.000 C 
ATOM     22  C   UNL     1      42.818 -22.016 172.756  0.00  0.00    +0.000 C 
ATOM     23  C   UNL     1      36.778 -26.345 174.764  0.00  0.00    +0.000 C 
ATOM     24  C   UNL     1      36.750 -27.250 173.771  0.00  0.00    +0.000 C 
ATOM     25  C   UNL     1      41.590 -20.364 174.116  0.00  0.00    +0.000 C 
ATOM     26  C   UNL     1      42.476 -20.606 173.137  0.00  0.00    +0.000 C 
ATOM     27  C   UNL     1      35.520 -27.587 172.978  0.00  0.00    +0.000 C 
ATOM     28  C   UNL     1      41.216 -18.989 174.590  0.00  0.00    +0.000 C 
ENDROOT
BRANCH  23  29
ATOM     29  O   UNL     1      35.604 -25.679 175.097  0.00  0.00    +0.000 OA
ATOM     30  C   UNL     1      34.873 -26.232 176.188  0.00  0.00    +0.000 C 
ENDBRANCH  23  29
BRANCH  26  31
ATOM     31  O   UNL     1      43.118 -19.532 172.529  0.00  0.00    +0.000 OA
ATOM     32  C   UNL     1      42.613 -19.178 171.243  0.00  0.00    +0.000 C 
ENDBRANCH  26  31
BRANCH  10  34
ATOM     33  N   UNL     1      45.001 -26.804 174.513  0.00  0.00    +0.000 NA
ATOM     34  C   UNL     1      43.900 -26.835 174.148  0.00  0.00    +0.000 C 
ENDBRANCH  10  34
BRANCH  11  35
ATOM     35  C   UNL     1      41.893 -24.693 171.440  0.00  0.00    +0.000 C 
BRANCH  35  36
ATOM     36  O   UNL     1      40.490 -25.031 171.431  0.00  0.00    +0.000 OA
BRANCH  36  38
ATOM     37  O   UNL     1      39.594 -24.324 169.445  0.00  0.00    +0.000 OA
ATOM     38  C   UNL     1      39.718 -24.234 170.655  0.00  0.00    +0.000 C 
BRANCH  38  39
ATOM     39  C   UNL     1      38.917 -23.299 171.496  0.00  0.00    +0.000 C 
ATOM     40  C   UNL     1      37.964 -24.001 172.422  0.00  0.00    +0.000 C 
ATOM     41  C   UNL     1      39.000 -21.955 171.448  0.00  0.00    +0.000 C 
ATOM     42  C   UNL     1      39.814 -21.107 170.522  0.00  0.00    +0.000 C 
ENDBRANCH  38  39
ENDBRANCH  36  38
ENDBRANCH  35  36
ENDBRANCH  11  35
TORSDOF 7
ENDMDL
MODEL 7
REMARK VINA RESULT:      -6.2     32.720     35.197
REMARK  Name = 
REMARK  14 active torsions:
REMARK  status: ('A' for Active; 'I' for Inactive)
REMARK    1  A    between atoms: O_1  and  C_24
REMARK    2  A    between atoms: O_1  and  C_36
REMARK    3  A    between atoms: O_4  and  C_30
REMARK    4  A    between atoms: O_4  and  C_37
REMARK    5  A    between atoms: O_7  and  C_33
REMARK    6  A    between atoms: O_7  and  C_38
REMARK    7  A    between atoms: N_10  and  C_23
REMARK    8  A    between atoms: C_15  and  C_26
REMARK    9  A    between atoms: C_16  and  C_24
REMARK   10  A    between atoms: C_31  and  C_34
REMARK   11  A    between atoms: C_32  and  C_35
REMARK   12  A    between atoms: C_36  and  C_39
REMARK   13  A    between atoms: C_39  and  C_40
REMARK   14  A    between atoms: C_41  and  C_42
REMARK                            x       y       z     vdW  Elec       q    Type
REMARK                         _______ _______ _______ _____ _____    ______ ____
ROOT
ATOM      1  O   UNL     1      27.943   4.279 192.395  0.00  0.00    +0.000 OA
ATOM      2  O   UNL     1      29.416   0.476 188.984  0.00  0.00    +0.000 OA
ATOM      3  O   UNL     1      25.386   2.940 196.057  0.00  0.00    +0.000 OA
ATOM      4  O   UNL     1      22.709  -1.311 194.315  0.00  0.00    +0.000 OA
ATOM      5  N   UNL     1      24.927   0.905 191.429  0.00  0.00    +0.000 NA
ATOM      6  N   UNL     1      25.188   3.119 189.517  0.00  0.00    +0.000 NA
ATOM      7  C   UNL     1      25.003   2.325 191.859  0.00  0.00    +0.000 C 
ATOM      8  C   UNL     1      25.859   3.200 190.846  0.00  0.00    +0.000 C 
ATOM      9  C   UNL     1      25.253   1.716 189.034  0.00  0.00    +0.000 C 
ATOM     10  C   UNL     1      24.452   0.778 190.014  0.00  0.00    +0.000 C 
ATOM     11  C   UNL     1      24.252  -0.032 192.370  0.00  0.00    +0.000 C 
ATOM     12  C   UNL     1      25.552   2.435 193.297  0.00  0.00    +0.000 C 
ATOM     13  C   UNL     1      26.717   1.221 188.868  0.00  0.00    +0.000 C 
ATOM     14  C   UNL     1      27.300   2.715 190.770  0.00  0.00    +0.000 C 
ATOM     15  C   UNL     1      27.682   1.792 189.876  0.00  0.00    +0.000 C 
ATOM     16  C   UNL     1      24.196   0.439 193.815  0.00  0.00    +0.000 C 
ATOM     17  C   UNL     1      24.807   1.549 194.247  0.00  0.00    +0.000 C 
ATOM     18  C   UNL     1      25.673   4.104 188.555  0.00  0.00    +0.000 C 
ATOM     19  C   UNL     1      28.286   3.343 191.679  0.00  0.00    +0.000 C 
ATOM     20  C   UNL     1      29.080   1.314 189.813  0.00  0.00    +0.000 C 
ATOM     21  C   UNL     1      24.776   1.949 195.671  0.00  0.00    +0.000 C 
ATOM     22  C   UNL     1      23.372  -0.374 194.747  0.00  0.00    +0.000 C 
ATOM     23  C   UNL     1      29.683   2.799 191.686  0.00  0.00    +0.000 C 
ATOM     24  C   UNL     1      30.051   1.866 190.793  0.00  0.00    +0.000 C 
ATOM     25  C   UNL     1      24.016   1.098 196.620  0.00  0.00    +0.000 C 
ATOM     26  C   UNL     1      23.373  -0.003 196.200  0.00  0.00    +0.000 C 
ATOM     27  C   UNL     1      31.439   1.304 190.690  0.00  0.00    +0.000 C 
ATOM     28  C   UNL     1      24.038   1.566 198.047  0.00  0.00    +0.000 C 
ENDROOT
BRANCH  23  29
ATOM     29  O   UNL     1      30.636   3.293 192.570  0.00  0.00    +0.000 OA
ATOM     30  C   UNL     1      31.238   4.530 192.195  0.00  0.00    +0.000 C 
ENDBRANCH  23  29
BRANCH  26  31
ATOM     31  O   UNL     1      22.655  -0.756 197.123  0.00  0.00    +0.000 OA
ATOM     32  C   UNL     1      21.260  -0.463 197.187  0.00  0.00    +0.000 C 
ENDBRANCH  26  31
BRANCH  10  34
ATOM     33  N   UNL     1      21.862   1.213 189.644  0.00  0.00    +0.000 NA
ATOM     34  C   UNL     1      22.994   1.031 189.826  0.00  0.00    +0.000 C 
ENDBRANCH  10  34
BRANCH  11  35
ATOM     35  C   UNL     1      24.996  -1.398 192.284  0.00  0.00    +0.000 C 
BRANCH  35  36
ATOM     36  O   UNL     1      26.416  -1.172 192.407  0.00  0.00    +0.000 OA
BRANCH  36  38
ATOM     37  O   UNL     1      27.140  -3.022 193.546  0.00  0.00    +0.000 OA
ATOM     38  C   UNL     1      27.007  -1.814 193.442  0.00  0.00    +0.000 C 
BRANCH  38  39
ATOM     39  C   UNL     1      27.606  -0.835 194.394  0.00  0.00    +0.000 C 
ATOM     40  C   UNL     1      28.561   0.122 193.738  0.00  0.00    +0.000 C 
ATOM     41  C   UNL     1      27.353  -0.792 195.717  0.00  0.00    +0.000 C 
ATOM     42  C   UNL     1      26.516  -1.726 196.533  0.00  0.00    +0.000 C 
ENDBRANCH  38  39
ENDBRANCH  36  38
ENDBRANCH  35  36
ENDBRANCH  11  35
TORSDOF 7
ENDMDL
MODEL 8
REMARK VINA RESULT:      -6.2      2.668      6.694
REMARK  Name = 
REMARK  14 active torsions:
REMARK  status: ('A' for Active; 'I' for Inactive)
REMARK    1  A    between atoms: O_1  and  C_24
REMARK    2  A    between atoms: O_1  and  C_36
REMARK    3  A    between atoms: O_4  and  C_30
REMARK    4  A    between atoms: O_4  and  C_37
REMARK    5  A    between atoms: O_7  and  C_33
REMARK    6  A    between atoms: O_7  and  C_38
REMARK    7  A    between atoms: N_10  and  C_23
REMARK    8  A    between atoms: C_15  and  C_26
REMARK    9  A    between atoms: C_16  and  C_24
REMARK   10  A    between atoms: C_31  and  C_34
REMARK   11  A    between atoms: C_32  and  C_35
REMARK   12  A    between atoms: C_36  and  C_39
REMARK   13  A    between atoms: C_39  and  C_40
REMARK   14  A    between atoms: C_41  and  C_42
REMARK                            x       y       z     vdW  Elec       q    Type
REMARK                         _______ _______ _______ _____ _____    ______ ____
ROOT
ATOM      1  O   UNL     1      41.856 -23.939 172.215  0.00  0.00    +0.000 OA
ATOM      2  O   UNL     1      38.802 -19.813 173.600  0.00  0.00    +0.000 OA
ATOM      3  O   UNL     1      43.211 -24.147 167.758  0.00  0.00    +0.000 OA
ATOM      4  O   UNL     1      39.302 -21.738 165.077  0.00  0.00    +0.000 OA
ATOM      5  N   UNL     1      38.644 -22.480 169.221  0.00  0.00    +0.000 NA
ATOM      6  N   UNL     1      37.791 -24.219 171.429  0.00  0.00    +0.000 NA
ATOM      7  C   UNL     1      39.410 -23.687 169.628  0.00  0.00    +0.000 C 
ATOM      8  C   UNL     1      39.243 -23.993 171.177  0.00  0.00    +0.000 C 
ATOM      9  C   UNL     1      37.058 -22.955 171.160  0.00  0.00    +0.000 C 
ATOM     10  C   UNL     1      37.209 -22.567 169.642  0.00  0.00    +0.000 C 
ATOM     11  C   UNL     1      38.826 -22.028 167.813  0.00  0.00    +0.000 C 
ATOM     12  C   UNL     1      40.897 -23.550 169.239  0.00  0.00    +0.000 C 
ATOM     13  C   UNL     1      37.534 -21.795 172.078  0.00  0.00    +0.000 C 
ATOM     14  C   UNL     1      39.785 -22.855 172.031  0.00  0.00    +0.000 C 
ATOM     15  C   UNL     1      39.001 -21.840 172.423  0.00  0.00    +0.000 C 
ATOM     16  C   UNL     1      40.108 -22.504 167.148  0.00  0.00    +0.000 C 
ATOM     17  C   UNL     1      41.065 -23.176 167.798  0.00  0.00    +0.000 C 
ATOM     18  C   UNL     1      37.508 -24.806 172.735  0.00  0.00    +0.000 C 
ATOM     19  C   UNL     1      41.196 -22.937 172.472  0.00  0.00    +0.000 C 
ATOM     20  C   UNL     1      39.533 -20.730 173.242  0.00  0.00    +0.000 C 
ATOM     21  C   UNL     1      42.323 -23.579 167.132  0.00  0.00    +0.000 C 
ATOM     22  C   UNL     1      40.240 -22.234 165.692  0.00  0.00    +0.000 C 
ATOM     23  C   UNL     1      41.767 -21.771 173.223  0.00  0.00    +0.000 C 
ATOM     24  C   UNL     1      40.975 -20.755 173.599  0.00  0.00    +0.000 C 
ATOM     25  C   UNL     1      42.492 -23.244 165.696  0.00  0.00    +0.000 C 
ATOM     26  C   UNL     1      41.530 -22.596 165.018  0.00  0.00    +0.000 C 
ATOM     27  C   UNL     1      41.446 -19.575 174.400  0.00  0.00    +0.000 C 
ATOM     28  C   UNL     1      43.797 -23.679 165.094  0.00  0.00    +0.000 C 
ENDROOT
BRANCH  23  29
ATOM     29  O   UNL     1      43.106 -21.752 173.598  0.00  0.00    +0.000 OA
ATOM     30  C   UNL     1      44.008 -21.228 172.626  0.00  0.00    +0.000 C 
ENDBRANCH  23  29
BRANCH  26  31
ATOM     31  O   UNL     1      41.725 -22.324 163.668  0.00  0.00    +0.000 OA
ATOM     32  C   UNL     1      41.140 -23.268 162.773  0.00  0.00    +0.000 C 
ENDBRANCH  26  31
BRANCH  10  34
ATOM     33  N   UNL     1      35.723 -24.249 168.226  0.00  0.00    +0.000 NA
ATOM     34  C   UNL     1      36.381 -23.504 168.827  0.00  0.00    +0.000 C 
ENDBRANCH  10  34
BRANCH  11  35
ATOM     35  C   UNL     1      38.773 -20.471 167.812  0.00  0.00    +0.000 C 
BRANCH  35  36
ATOM     36  O   UNL     1      39.642 -19.967 168.847  0.00  0.00    +0.000 OA
BRANCH  36  38
ATOM     37  O   UNL     1      40.824 -18.678 167.368  0.00  0.00    +0.000 OA
ATOM     38  C   UNL     1      40.746 -19.324 168.400  0.00  0.00    +0.000 C 
BRANCH  38  39
ATOM     39  C   UNL     1      41.839 -19.391 169.412  0.00  0.00    +0.000 C 
ATOM     40  C   UNL     1      41.481 -18.739 170.718  0.00  0.00    +0.000 C 
ATOM     41  C   UNL     1      43.045 -19.957 169.208  0.00  0.00    +0.000 C 
ATOM     42  C   UNL     1      43.591 -20.552 167.948  0.00  0.00    +0.000 C 
ENDBRANCH  38  39
ENDBRANCH  36  38
ENDBRANCH  35  36
ENDBRANCH  11  35
TORSDOF 7
ENDMDL
MODEL 9
REMARK VINA RESULT:      -6.2     31.580     33.992
REMARK  Name = 
REMARK  14 active torsions:
REMARK  status: ('A' for Active; 'I' for Inactive)
REMARK    1  A    between atoms: O_1  and  C_24
REMARK    2  A    between atoms: O_1  and  C_36
REMARK    3  A    between atoms: O_4  and  C_30
REMARK    4  A    between atoms: O_4  and  C_37
REMARK    5  A    between atoms: O_7  and  C_33
REMARK    6  A    between atoms: O_7  and  C_38
REMARK    7  A    between atoms: N_10  and  C_23
REMARK    8  A    between atoms: C_15  and  C_26
REMARK    9  A    between atoms: C_16  and  C_24
REMARK   10  A    between atoms: C_31  and  C_34
REMARK   11  A    between atoms: C_32  and  C_35
REMARK   12  A    between atoms: C_36  and  C_39
REMARK   13  A    between atoms: C_39  and  C_40
REMARK   14  A    between atoms: C_41  and  C_42
REMARK                            x       y       z     vdW  Elec       q    Type
REMARK                         _______ _______ _______ _____ _____    ______ ____
ROOT
ATOM      1  O   UNL     1      29.709   1.756 187.808  0.00  0.00    +0.000 OA
ATOM      2  O   UNL     1      31.586   4.386 192.029  0.00  0.00    +0.000 OA
ATOM      3  O   UNL     1      25.111   0.988 187.686  0.00  0.00    +0.000 OA
ATOM      4  O   UNL     1      23.685   0.704 192.801  0.00  0.00    +0.000 OA
ATOM      5  N   UNL     1      27.858   0.865 191.954  0.00  0.00    +0.000 NA
ATOM      6  N   UNL     1      30.405  -0.427 191.268  0.00  0.00    +0.000 NA
ATOM      7  C   UNL     1      28.109   0.253 190.623  0.00  0.00    +0.000 C 
ATOM      8  C   UNL     1      29.645   0.322 190.226  0.00  0.00    +0.000 C 
ATOM      9  C   UNL     1      30.264   0.284 192.564  0.00  0.00    +0.000 C 
ATOM     10  C   UNL     1      28.753   0.287 193.007  0.00  0.00    +0.000 C 
ATOM     11  C   UNL     1      26.432   0.965 192.374  0.00  0.00    +0.000 C 
ATOM     12  C   UNL     1      27.220   0.905 189.543  0.00  0.00    +0.000 C 
ATOM     13  C   UNL     1      30.826   1.731 192.503  0.00  0.00    +0.000 C 
ATOM     14  C   UNL     1      30.128   1.762 190.115  0.00  0.00    +0.000 C 
ATOM     15  C   UNL     1      30.648   2.409 191.168  0.00  0.00    +0.000 C 
ATOM     16  C   UNL     1      25.424   0.926 191.236  0.00  0.00    +0.000 C 
ATOM     17  C   UNL     1      25.777   0.923 189.944  0.00  0.00    +0.000 C 
ATOM     18  C   UNL     1      31.786  -0.714 190.892  0.00  0.00    +0.000 C 
ATOM     19  C   UNL     1      30.062   2.409 188.784  0.00  0.00    +0.000 C 
ATOM     20  C   UNL     1      31.105   3.811 191.060  0.00  0.00    +0.000 C 
ATOM     21  C   UNL     1      24.768   0.937 188.862  0.00  0.00    +0.000 C 
ATOM     22  C   UNL     1      23.991   0.836 191.620  0.00  0.00    +0.000 C 
ATOM     23  C   UNL     1      30.436   3.858 188.688  0.00  0.00    +0.000 C 
ATOM     24  C   UNL     1      30.945   4.499 189.753  0.00  0.00    +0.000 C 
ATOM     25  C   UNL     1      23.334   0.924 189.243  0.00  0.00    +0.000 C 
ATOM     26  C   UNL     1      22.960   0.897 190.533  0.00  0.00    +0.000 C 
ATOM     27  C   UNL     1      31.396   5.930 189.734  0.00  0.00    +0.000 C 
ATOM     28  C   UNL     1      22.373   0.947 188.090  0.00  0.00    +0.000 C 
ENDROOT
BRANCH  23  29
ATOM     29  O   UNL     1      30.322   4.544 187.484  0.00  0.00    +0.000 OA
ATOM     30  C   UNL     1      31.419   4.393 186.586  0.00  0.00    +0.000 C 
ENDBRANCH  23  29
BRANCH  26  31
ATOM     31  O   UNL     1      21.604   0.862 190.840  0.00  0.00    +0.000 OA
ATOM     32  C   UNL     1      21.032   2.121 191.191  0.00  0.00    +0.000 C 
ENDBRANCH  26  31
BRANCH  10  34
ATOM     33  N   UNL     1      28.102  -2.152 193.822  0.00  0.00    +0.000 NA
ATOM     34  C   UNL     1      28.384  -1.091 193.445  0.00  0.00    +0.000 C 
ENDBRANCH  10  34
BRANCH  11  35
ATOM     35  C   UNL     1      26.274   2.290 193.178  0.00  0.00    +0.000 C 
BRANCH  35  36
ATOM     36  O   UNL     1      26.792   2.099 194.511  0.00  0.00    +0.000 OA
BRANCH  36  38
ATOM     37  O   UNL     1      24.748   2.072 195.543  0.00  0.00    +0.000 OA
ATOM     38  C   UNL     1      25.888   1.656 195.415  0.00  0.00    +0.000 C 
BRANCH  38  39
ATOM     39  C   UNL     1      26.423   0.482 196.162  0.00  0.00    +0.000 C 
ATOM     40  C   UNL     1      27.706   0.776 196.889  0.00  0.00    +0.000 C 
ATOM     41  C   UNL     1      25.852  -0.738 196.194  0.00  0.00    +0.000 C 
ATOM     42  C   UNL     1      24.644  -1.217 195.452  0.00  0.00    +0.000 C 
ENDBRANCH  38  39
ENDBRANCH  36  38
ENDBRANCH  35  36
ENDBRANCH  11  35
TORSDOF 7
ENDMDL
