MODEL 1
REMARK VINA RESULT:      -7.4      0.000      0.000
REMARK  Name = Resveratrol.pdbqt.pdb
REMARK  5 active torsions:
REMARK  status: ('A' for Active; 'I' for Inactive)
REMARK    1  A    between atoms: C_1  and  C_11
REMARK    2  A    between atoms: C_4  and  O_7
REMARK    3  A    between atoms: C_5  and  O_9
REMARK    4  A    between atoms: C_12  and  C_13
REMARK    5  A    between atoms: C_18  and  O_19
REMARK                            x       y       z     vdW  Elec       q    Type
REMARK                         _______ _______ _______ _____ _____    ______ ____
ROOT
ATOM      1  C   UNL     1      19.797   2.784 188.999  0.00  0.00    +0.000 A 
ATOM      2  C   UNL     1      18.605   2.064 189.054  0.00  0.00    +0.000 A 
ATOM      3  C   UNL     1      20.477   3.107 190.173  0.00  0.00    +0.000 A 
ATOM      4  C   UNL     1      19.954   2.704 191.399  0.00  0.00    +0.000 A 
ATOM      5  C   UNL     1      18.100   1.671 190.289  0.00  0.00    +0.000 A 
ATOM      6  C   UNL     1      18.766   1.985 191.469  0.00  0.00    +0.000 A 
ENDROOT
BRANCH   4   7
ATOM      7  O   UNL     1      20.598   3.005 192.564  0.00  0.00    +0.000 OA
ATOM      8  H   UNL     1      21.526   3.212 192.354  0.00  0.00    +0.000 HD
ENDBRANCH   4   7
BRANCH   5   9
ATOM      9  O   UNL     1      16.931   0.966 190.318  0.00  0.00    +0.000 OA
ATOM     10  H   UNL     1      17.151   0.022 190.409  0.00  0.00    +0.000 HD
ENDBRANCH   5   9
BRANCH   1  11
ATOM     11  C   UNL     1      20.325   3.194 187.739  0.00  0.00    +0.000 C 
ATOM     12  C   UNL     1      20.769   3.540 186.678  0.00  0.00    +0.000 C 
BRANCH  12  13
ATOM     13  C   UNL     1      21.298   3.950 185.418  0.00  0.00    +0.000 A 
ATOM     14  C   UNL     1      20.860   3.333 184.247  0.00  0.00    +0.000 A 
ATOM     15  C   UNL     1      22.250   4.968 185.361  0.00  0.00    +0.000 A 
ATOM     16  C   UNL     1      21.374   3.732 183.016  0.00  0.00    +0.000 A 
ATOM     17  C   UNL     1      22.767   5.369 184.133  0.00  0.00    +0.000 A 
ATOM     18  C   UNL     1      22.325   4.747 182.969  0.00  0.00    +0.000 A 
BRANCH  18  19
ATOM     19  O   UNL     1      22.845   5.158 181.777  0.00  0.00    +0.000 OA
ATOM     20  H   UNL     1      22.355   5.947 181.485  0.00  0.00    +0.000 HD
ENDBRANCH  18  19
ENDBRANCH  12  13
ENDBRANCH   1  11
TORSDOF 5
ENDMDL
MODEL 2
REMARK VINA RESULT:      -7.4      0.292      2.028
REMARK  Name = Resveratrol.pdbqt.pdb
REMARK  5 active torsions:
REMARK  status: ('A' for Active; 'I' for Inactive)
REMARK    1  A    between atoms: C_1  and  C_11
REMARK    2  A    between atoms: C_4  and  O_7
REMARK    3  A    between atoms: C_5  and  O_9
REMARK    4  A    between atoms: C_12  and  C_13
REMARK    5  A    between atoms: C_18  and  O_19
REMARK                            x       y       z     vdW  Elec       q    Type
REMARK                         _______ _______ _______ _____ _____    ______ ____
ROOT
ATOM      1  C   UNL     1      19.756   2.750 189.276  0.00  0.00    +0.000 A 
ATOM      2  C   UNL     1      20.447   3.036 190.452  0.00  0.00    +0.000 A 
ATOM      3  C   UNL     1      18.552   2.048 189.322  0.00  0.00    +0.000 A 
ATOM      4  C   UNL     1      18.046   1.637 190.553  0.00  0.00    +0.000 A 
ATOM      5  C   UNL     1      19.925   2.616 191.671  0.00  0.00    +0.000 A 
ATOM      6  C   UNL     1      18.725   1.916 191.735  0.00  0.00    +0.000 A 
ENDROOT
BRANCH   4   7
ATOM      7  O   UNL     1      16.870   0.950 190.629  0.00  0.00    +0.000 OA
ATOM      8  H   UNL     1      16.144   1.596 190.693  0.00  0.00    +0.000 HD
ENDBRANCH   4   7
BRANCH   5   9
ATOM      9  O   UNL     1      20.620   2.908 192.810  0.00  0.00    +0.000 OA
ATOM     10  H   UNL     1      20.615   3.875 192.926  0.00  0.00    +0.000 HD
ENDBRANCH   5   9
BRANCH   1  11
ATOM     11  C   UNL     1      20.281   3.174 188.019  0.00  0.00    +0.000 C 
ATOM     12  C   UNL     1      20.723   3.531 186.961  0.00  0.00    +0.000 C 
BRANCH  12  13
ATOM     13  C   UNL     1      21.247   3.955 185.704  0.00  0.00    +0.000 A 
ATOM     14  C   UNL     1      20.876   3.289 184.536  0.00  0.00    +0.000 A 
ATOM     15  C   UNL     1      22.130   5.033 185.646  0.00  0.00    +0.000 A 
ATOM     16  C   UNL     1      21.386   3.701 183.309  0.00  0.00    +0.000 A 
ATOM     17  C   UNL     1      22.642   5.448 184.420  0.00  0.00    +0.000 A 
ATOM     18  C   UNL     1      22.267   4.778 183.261  0.00  0.00    +0.000 A 
BRANCH  18  19
ATOM     19  O   UNL     1      22.782   5.203 182.071  0.00  0.00    +0.000 OA
ATOM     20  H   UNL     1      22.530   4.562 181.383  0.00  0.00    +0.000 HD
ENDBRANCH  18  19
ENDBRANCH  12  13
ENDBRANCH   1  11
TORSDOF 5
ENDMDL
MODEL 3
REMARK VINA RESULT:      -6.7      1.348      7.551
REMARK  Name = Resveratrol.pdbqt.pdb
REMARK  5 active torsions:
REMARK  status: ('A' for Active; 'I' for Inactive)
REMARK    1  A    between atoms: C_1  and  C_11
REMARK    2  A    between atoms: C_4  and  O_7
REMARK    3  A    between atoms: C_5  and  O_9
REMARK    4  A    between atoms: C_12  and  C_13
REMARK    5  A    between atoms: C_18  and  O_19
REMARK                            x       y       z     vdW  Elec       q    Type
REMARK                         _______ _______ _______ _____ _____    ______ ____
ROOT
ATOM      1  C   UNL     1      21.303   3.814 185.169  0.00  0.00    +0.000 A 
ATOM      2  C   UNL     1      20.865   3.526 183.876  0.00  0.00    +0.000 A 
ATOM      3  C   UNL     1      22.453   4.576 185.367  0.00  0.00    +0.000 A 
ATOM      4  C   UNL     1      23.160   5.049 184.263  0.00  0.00    +0.000 A 
ATOM      5  C   UNL     1      21.586   4.007 182.788  0.00  0.00    +0.000 A 
ATOM      6  C   UNL     1      22.735   4.771 182.969  0.00  0.00    +0.000 A 
ENDROOT
BRANCH   4   7
ATOM      7  O   UNL     1      24.289   5.798 184.427  0.00  0.00    +0.000 OA
ATOM      8  H   UNL     1      24.380   6.383 183.654  0.00  0.00    +0.000 HD
ENDBRANCH   4   7
BRANCH   5   9
ATOM      9  O   UNL     1      21.138   3.714 181.532  0.00  0.00    +0.000 OA
ATOM     10  H   UNL     1      20.982   4.553 181.064  0.00  0.00    +0.000 HD
ENDBRANCH   5   9
BRANCH   1  11
ATOM     11  C   UNL     1      20.574   3.325 186.293  0.00  0.00    +0.000 C 
ATOM     12  C   UNL     1      19.959   2.915 187.240  0.00  0.00    +0.000 C 
BRANCH  12  13
ATOM     13  C   UNL     1      19.230   2.427 188.364  0.00  0.00    +0.000 A 
ATOM     14  C   UNL     1      19.799   2.474 189.636  0.00  0.00    +0.000 A 
ATOM     15  C   UNL     1      17.949   1.904 188.188  0.00  0.00    +0.000 A 
ATOM     16  C   UNL     1      19.089   1.999 190.734  0.00  0.00    +0.000 A 
ATOM     17  C   UNL     1      17.235   1.428 189.284  0.00  0.00    +0.000 A 
ATOM     18  C   UNL     1      17.811   1.478 190.549  0.00  0.00    +0.000 A 
BRANCH  18  19
ATOM     19  O   UNL     1      17.092   1.006 191.608  0.00  0.00    +0.000 OA
ATOM     20  H   UNL     1      16.342   0.492 191.262  0.00  0.00    +0.000 HD
ENDBRANCH  18  19
ENDBRANCH  12  13
ENDBRANCH   1  11
TORSDOF 5
ENDMDL
MODEL 4
REMARK VINA RESULT:      -6.6      1.309      7.731
REMARK  Name = Resveratrol.pdbqt.pdb
REMARK  5 active torsions:
REMARK  status: ('A' for Active; 'I' for Inactive)
REMARK    1  A    between atoms: C_1  and  C_11
REMARK    2  A    between atoms: C_4  and  O_7
REMARK    3  A    between atoms: C_5  and  O_9
REMARK    4  A    between atoms: C_12  and  C_13
REMARK    5  A    between atoms: C_18  and  O_19
REMARK                            x       y       z     vdW  Elec       q    Type
REMARK                         _______ _______ _______ _____ _____    ______ ____
ROOT
ATOM      1  C   UNL     1      21.365   3.804 185.242  0.00  0.00    +0.000 A 
ATOM      2  C   UNL     1      22.500   4.596 185.414  0.00  0.00    +0.000 A 
ATOM      3  C   UNL     1      20.910   3.499 183.959  0.00  0.00    +0.000 A 
ATOM      4  C   UNL     1      21.599   3.992 182.853  0.00  0.00    +0.000 A 
ATOM      5  C   UNL     1      23.173   5.078 184.296  0.00  0.00    +0.000 A 
ATOM      6  C   UNL     1      22.732   4.782 183.010  0.00  0.00    +0.000 A 
ENDROOT
BRANCH   4   7
ATOM      7  O   UNL     1      21.177   3.709 181.587  0.00  0.00    +0.000 OA
ATOM      8  H   UNL     1      20.289   3.313 181.644  0.00  0.00    +0.000 HD
ENDBRANCH   4   7
BRANCH   5   9
ATOM      9  O   UNL     1      24.281   5.852 184.489  0.00  0.00    +0.000 OA
ATOM     10  H   UNL     1      24.015   6.785 184.408  0.00  0.00    +0.000 HD
ENDBRANCH   5   9
BRANCH   1  11
ATOM     11  C   UNL     1      20.666   3.304 186.379  0.00  0.00    +0.000 C 
ATOM     12  C   UNL     1      20.076   2.882 187.338  0.00  0.00    +0.000 C 
BRANCH  12  13
ATOM     13  C   UNL     1      19.378   2.381 188.476  0.00  0.00    +0.000 A 
ATOM     14  C   UNL     1      18.043   1.993 188.356  0.00  0.00    +0.000 A 
ATOM     15  C   UNL     1      20.030   2.282 189.704  0.00  0.00    +0.000 A 
ATOM     16  C   UNL     1      17.359   1.504 189.465  0.00  0.00    +0.000 A 
ATOM     17  C   UNL     1      19.349   1.793 190.816  0.00  0.00    +0.000 A 
ATOM     18  C   UNL     1      18.018   1.409 190.688  0.00  0.00    +0.000 A 
BRANCH  18  19
ATOM     19  O   UNL     1      17.372   0.933 191.791  0.00  0.00    +0.000 OA
ATOM     20  H   UNL     1      16.980   0.071 191.568  0.00  0.00    +0.000 HD
ENDBRANCH  18  19
ENDBRANCH  12  13
ENDBRANCH   1  11
TORSDOF 5
ENDMDL
MODEL 5
REMARK VINA RESULT:      -6.5      2.561      4.273
REMARK  Name = Resveratrol.pdbqt.pdb
REMARK  5 active torsions:
REMARK  status: ('A' for Active; 'I' for Inactive)
REMARK    1  A    between atoms: C_1  and  C_11
REMARK    2  A    between atoms: C_4  and  O_7
REMARK    3  A    between atoms: C_5  and  O_9
REMARK    4  A    between atoms: C_12  and  C_13
REMARK    5  A    between atoms: C_18  and  O_19
REMARK                            x       y       z     vdW  Elec       q    Type
REMARK                         _______ _______ _______ _____ _____    ______ ____
ROOT
ATOM      1  C   UNL     1      20.061   1.225 192.357  0.00  0.00    +0.000 A 
ATOM      2  C   UNL     1      21.004   1.607 193.310  0.00  0.00    +0.000 A 
ATOM      3  C   UNL     1      18.965   0.446 192.727  0.00  0.00    +0.000 A 
ATOM      4  C   UNL     1      18.821   0.055 194.056  0.00  0.00    +0.000 A 
ATOM      5  C   UNL     1      20.842   1.205 194.632  0.00  0.00    +0.000 A 
ATOM      6  C   UNL     1      19.754   0.429 195.017  0.00  0.00    +0.000 A 
ENDROOT
BRANCH   4   7
ATOM      7  O   UNL     1      17.758  -0.707 194.447  0.00  0.00    +0.000 OA
ATOM      8  H   UNL     1      17.712  -0.688 195.419  0.00  0.00    +0.000 HD
ENDBRANCH   4   7
BRANCH   5   9
ATOM      9  O   UNL     1      21.778   1.591 195.548  0.00  0.00    +0.000 OA
ATOM     10  H   UNL     1      22.654   1.522 195.129  0.00  0.00    +0.000 HD
ENDBRANCH   5   9
BRANCH   1  11
ATOM     11  C   UNL     1      20.217   1.629 190.999  0.00  0.00    +0.000 C 
ATOM     12  C   UNL     1      20.348   1.971 189.854  0.00  0.00    +0.000 C 
BRANCH  12  13
ATOM     13  C   UNL     1      20.504   2.376 188.496  0.00  0.00    +0.000 A 
ATOM     14  C   UNL     1      19.386   2.741 187.747  0.00  0.00    +0.000 A 
ATOM     15  C   UNL     1      21.774   2.406 187.920  0.00  0.00    +0.000 A 
ATOM     16  C   UNL     1      19.536   3.138 186.421  0.00  0.00    +0.000 A 
ATOM     17  C   UNL     1      21.929   2.801 186.595  0.00  0.00    +0.000 A 
ATOM     18  C   UNL     1      20.808   3.164 185.855  0.00  0.00    +0.000 A 
BRANCH  18  19
ATOM     19  O   UNL     1      20.984   3.548 184.557  0.00  0.00    +0.000 OA
ATOM     20  H   UNL     1      21.858   3.968 184.480  0.00  0.00    +0.000 HD
ENDBRANCH  18  19
ENDBRANCH  12  13
ENDBRANCH   1  11
TORSDOF 5
ENDMDL
MODEL 6
REMARK VINA RESULT:      -6.3      4.396     10.031
REMARK  Name = Resveratrol.pdbqt.pdb
REMARK  5 active torsions:
REMARK  status: ('A' for Active; 'I' for Inactive)
REMARK    1  A    between atoms: C_1  and  C_11
REMARK    2  A    between atoms: C_4  and  O_7
REMARK    3  A    between atoms: C_5  and  O_9
REMARK    4  A    between atoms: C_12  and  C_13
REMARK    5  A    between atoms: C_18  and  O_19
REMARK                            x       y       z     vdW  Elec       q    Type
REMARK                         _______ _______ _______ _____ _____    ______ ____
ROOT
ATOM      1  C   UNL     1      18.735   1.499 191.559  0.00  0.00    +0.000 A 
ATOM      2  C   UNL     1      19.598   2.509 191.137  0.00  0.00    +0.000 A 
ATOM      3  C   UNL     1      17.802   0.958 190.674  0.00  0.00    +0.000 A 
ATOM      4  C   UNL     1      17.742   1.435 189.367  0.00  0.00    +0.000 A 
ATOM      5  C   UNL     1      19.522   2.972 189.828  0.00  0.00    +0.000 A 
ATOM      6  C   UNL     1      18.598   2.442 188.933  0.00  0.00    +0.000 A 
ENDROOT
BRANCH   4   7
ATOM      7  O   UNL     1      16.841   0.924 188.479  0.00  0.00    +0.000 OA
ATOM      8  H   UNL     1      16.327   1.663 188.109  0.00  0.00    +0.000 HD
ENDBRANCH   4   7
BRANCH   5   9
ATOM      9  O   UNL     1      20.378   3.961 189.437  0.00  0.00    +0.000 OA
ATOM     10  H   UNL     1      21.087   4.024 190.101  0.00  0.00    +0.000 HD
ENDBRANCH   5   9
BRANCH   1  11
ATOM     11  C   UNL     1      18.803   1.016 192.899  0.00  0.00    +0.000 C 
ATOM     12  C   UNL     1      18.860   0.609 194.028  0.00  0.00    +0.000 C 
BRANCH  12  13
ATOM     13  C   UNL     1      18.928   0.126 195.368  0.00  0.00    +0.000 A 
ATOM     14  C   UNL     1      19.668  -1.020 195.656  0.00  0.00    +0.000 A 
ATOM     15  C   UNL     1      18.255   0.802 196.386  0.00  0.00    +0.000 A 
ATOM     16  C   UNL     1      19.737  -1.493 196.964  0.00  0.00    +0.000 A 
ATOM     17  C   UNL     1      18.322   0.331 197.695  0.00  0.00    +0.000 A 
ATOM     18  C   UNL     1      19.062  -0.813 197.973  0.00  0.00    +0.000 A 
BRANCH  18  19
ATOM     19  O   UNL     1      19.112  -1.255 199.263  0.00  0.00    +0.000 OA
ATOM     20  H   UNL     1      18.614  -0.630 199.819  0.00  0.00    +0.000 HD
ENDBRANCH  18  19
ENDBRANCH  12  13
ENDBRANCH   1  11
TORSDOF 5
ENDMDL
MODEL 7
REMARK VINA RESULT:      -6.3      2.050      7.588
REMARK  Name = Resveratrol.pdbqt.pdb
REMARK  5 active torsions:
REMARK  status: ('A' for Active; 'I' for Inactive)
REMARK    1  A    between atoms: C_1  and  C_11
REMARK    2  A    between atoms: C_4  and  O_7
REMARK    3  A    between atoms: C_5  and  O_9
REMARK    4  A    between atoms: C_12  and  C_13
REMARK    5  A    between atoms: C_18  and  O_19
REMARK                            x       y       z     vdW  Elec       q    Type
REMARK                         _______ _______ _______ _____ _____    ______ ____
ROOT
ATOM      1  C   UNL     1      21.854   3.613 187.087  0.00  0.00    +0.000 A 
ATOM      2  C   UNL     1      21.303   3.440 185.818  0.00  0.00    +0.000 A 
ATOM      3  C   UNL     1      23.012   4.371 187.253  0.00  0.00    +0.000 A 
ATOM      4  C   UNL     1      23.614   4.954 186.140  0.00  0.00    +0.000 A 
ATOM      5  C   UNL     1      21.920   4.030 184.719  0.00  0.00    +0.000 A 
ATOM      6  C   UNL     1      23.076   4.790 184.868  0.00  0.00    +0.000 A 
ENDROOT
BRANCH   4   7
ATOM      7  O   UNL     1      24.748   5.701 186.272  0.00  0.00    +0.000 OA
ATOM      8  H   UNL     1      25.467   5.249 185.796  0.00  0.00    +0.000 HD
ENDBRANCH   4   7
BRANCH   5   9
ATOM      9  O   UNL     1      21.363   3.848 183.486  0.00  0.00    +0.000 OA
ATOM     10  H   UNL     1      20.903   2.989 183.488  0.00  0.00    +0.000 HD
ENDBRANCH   5   9
BRANCH   1  11
ATOM     11  C   UNL     1      21.232   3.012 188.221  0.00  0.00    +0.000 C 
ATOM     12  C   UNL     1      20.708   2.506 189.177  0.00  0.00    +0.000 C 
BRANCH  12  13
ATOM     13  C   UNL     1      20.085   1.907 190.311  0.00  0.00    +0.000 A 
ATOM     14  C   UNL     1      18.808   2.312 190.698  0.00  0.00    +0.000 A 
ATOM     15  C   UNL     1      20.755   0.917 191.030  0.00  0.00    +0.000 A 
ATOM     16  C   UNL     1      18.198   1.727 191.804  0.00  0.00    +0.000 A 
ATOM     17  C   UNL     1      20.149   0.330 192.138  0.00  0.00    +0.000 A 
ATOM     18  C   UNL     1      18.874   0.741 192.516  0.00  0.00    +0.000 A 
BRANCH  18  19
ATOM     19  O   UNL     1      18.301   0.151 193.605  0.00  0.00    +0.000 OA
ATOM     20  H   UNL     1      17.548   0.699 193.887  0.00  0.00    +0.000 HD
ENDBRANCH  18  19
ENDBRANCH  12  13
ENDBRANCH   1  11
TORSDOF 5
ENDMDL
MODEL 8
REMARK VINA RESULT:      -6.2      2.502      3.434
REMARK  Name = Resveratrol.pdbqt.pdb
REMARK  5 active torsions:
REMARK  status: ('A' for Active; 'I' for Inactive)
REMARK    1  A    between atoms: C_1  and  C_11
REMARK    2  A    between atoms: C_4  and  O_7
REMARK    3  A    between atoms: C_5  and  O_9
REMARK    4  A    between atoms: C_12  and  C_13
REMARK    5  A    between atoms: C_18  and  O_19
REMARK                            x       y       z     vdW  Elec       q    Type
REMARK                         _______ _______ _______ _____ _____    ______ ____
ROOT
ATOM      1  C   UNL     1      21.252   1.003 190.535  0.00  0.00    +0.000 A 
ATOM      2  C   UNL     1      22.242   0.200 191.100  0.00  0.00    +0.000 A 
ATOM      3  C   UNL     1      19.972   1.031 191.086  0.00  0.00    +0.000 A 
ATOM      4  C   UNL     1      19.691   0.251 192.205  0.00  0.00    +0.000 A 
ATOM      5  C   UNL     1      21.941  -0.572 192.217  0.00  0.00    +0.000 A 
ATOM      6  C   UNL     1      20.668  -0.555 192.779  0.00  0.00    +0.000 A 
ENDROOT
BRANCH   4   7
ATOM      7  O   UNL     1      18.447   0.259 192.766  0.00  0.00    +0.000 OA
ATOM      8  H   UNL     1      18.458   0.874 193.521  0.00  0.00    +0.000 HD
ENDBRANCH   4   7
BRANCH   5   9
ATOM      9  O   UNL     1      22.926  -1.351 192.753  0.00  0.00    +0.000 OA
ATOM     10  H   UNL     1      22.503  -2.038 193.298  0.00  0.00    +0.000 HD
ENDBRANCH   5   9
BRANCH   1  11
ATOM     11  C   UNL     1      21.548   1.799 189.389  0.00  0.00    +0.000 C 
ATOM     12  C   UNL     1      21.798   2.470 188.424  0.00  0.00    +0.000 C 
BRANCH  12  13
ATOM     13  C   UNL     1      22.095   3.265 187.278  0.00  0.00    +0.000 A 
ATOM     14  C   UNL     1      23.243   4.057 187.260  0.00  0.00    +0.000 A 
ATOM     15  C   UNL     1      21.237   3.249 186.179  0.00  0.00    +0.000 A 
ATOM     16  C   UNL     1      23.535   4.833 186.143  0.00  0.00    +0.000 A 
ATOM     17  C   UNL     1      21.525   4.025 185.060  0.00  0.00    +0.000 A 
ATOM     18  C   UNL     1      22.673   4.812 185.051  0.00  0.00    +0.000 A 
BRANCH  18  19
ATOM     19  O   UNL     1      22.934   5.564 183.943  0.00  0.00    +0.000 OA
ATOM     20  H   UNL     1      22.780   6.498 184.165  0.00  0.00    +0.000 HD
ENDBRANCH  18  19
ENDBRANCH  12  13
ENDBRANCH   1  11
TORSDOF 5
ENDMDL
MODEL 9
REMARK VINA RESULT:      -6.2      3.226      8.358
REMARK  Name = Resveratrol.pdbqt.pdb
REMARK  5 active torsions:
REMARK  status: ('A' for Active; 'I' for Inactive)
REMARK    1  A    between atoms: C_1  and  C_11
REMARK    2  A    between atoms: C_4  and  O_7
REMARK    3  A    between atoms: C_5  and  O_9
REMARK    4  A    between atoms: C_12  and  C_13
REMARK    5  A    between atoms: C_18  and  O_19
REMARK                            x       y       z     vdW  Elec       q    Type
REMARK                         _______ _______ _______ _____ _____    ______ ____
ROOT
ATOM      1  C   UNL     1      20.448   3.291 189.594  0.00  0.00    +0.000 A 
ATOM      2  C   UNL     1      19.701   2.891 188.488  0.00  0.00    +0.000 A 
ATOM      3  C   UNL     1      21.391   4.312 189.473  0.00  0.00    +0.000 A 
ATOM      4  C   UNL     1      21.578   4.927 188.238  0.00  0.00    +0.000 A 
ATOM      5  C   UNL     1      19.903   3.519 187.262  0.00  0.00    +0.000 A 
ATOM      6  C   UNL     1      20.839   4.538 187.125  0.00  0.00    +0.000 A 
ENDROOT
BRANCH   4   7
ATOM      7  O   UNL     1      22.494   5.929 188.089  0.00  0.00    +0.000 OA
ATOM      8  H   UNL     1      22.564   6.138 187.141  0.00  0.00    +0.000 HD
ENDBRANCH   4   7
BRANCH   5   9
ATOM      9  O   UNL     1      19.160   3.110 186.193  0.00  0.00    +0.000 OA
ATOM     10  H   UNL     1      19.615   3.400 185.382  0.00  0.00    +0.000 HD
ENDBRANCH   5   9
BRANCH   1  11
ATOM     11  C   UNL     1      20.250   2.656 190.855  0.00  0.00    +0.000 C 
ATOM     12  C   UNL     1      20.083   2.120 191.918  0.00  0.00    +0.000 C 
BRANCH  12  13
ATOM     13  C   UNL     1      19.885   1.484 193.178  0.00  0.00    +0.000 A 
ATOM     14  C   UNL     1      18.733   0.729 193.402  0.00  0.00    +0.000 A 
ATOM     15  C   UNL     1      20.841   1.619 194.184  0.00  0.00    +0.000 A 
ATOM     16  C   UNL     1      18.538   0.107 194.632  0.00  0.00    +0.000 A 
ATOM     17  C   UNL     1      20.649   0.998 195.415  0.00  0.00    +0.000 A 
ATOM     18  C   UNL     1      19.498   0.247 195.630  0.00  0.00    +0.000 A 
BRANCH  18  19
ATOM     19  O   UNL     1      19.331  -0.352 196.844  0.00  0.00    +0.000 OA
ATOM     20  H   UNL     1      18.628   0.121 197.324  0.00  0.00    +0.000 HD
ENDBRANCH  18  19
ENDBRANCH  12  13
ENDBRANCH   1  11
TORSDOF 5
ENDMDL
