MODEL 1
REMARK VINA RESULT:      -8.1      0.000      0.000
REMARK  Name = RetinoicAcid.pdbqt.pdb
REMARK  6 active torsions:
REMARK  status: ('A' for Active; 'I' for Inactive)
REMARK    1  A    between atoms: C_1  and  C_3
REMARK    2  A    between atoms: C_1  and  C_5
REMARK    3  A    between atoms: C_3  and  C_15
REMARK    4  A    between atoms: C_4  and  C_9
REMARK    5  A    between atoms: C_16  and  C_17
REMARK    6  A    between atoms: C_21  and  O_22
REMARK                            x       y       z     vdW  Elec       q    Type
REMARK                         _______ _______ _______ _____ _____    ______ ____
ROOT
ATOM      1  C   UNL     1      18.460   1.734 191.146  0.00  0.00    +0.000 C 
ATOM      2  C   UNL     1      17.260   1.302 190.360  0.00  0.00    +0.000 C 
ENDROOT
BRANCH   1   4
ATOM      3  C   UNL     1      20.327   3.174 190.005  0.00  0.00    +0.000 C 
ATOM      4  C   UNL     1      19.473   2.507 190.528  0.00  0.00    +0.000 C 
BRANCH   3   8
ATOM      5  C   UNL     1      20.973   4.918 188.186  0.00  0.00    +0.000 C 
ATOM      6  C   UNL     1      22.200   5.624 187.748  0.00  0.00    +0.000 C 
ATOM      7  C   UNL     1      23.678   5.744 188.060  0.00  0.00    +0.000 C 
ATOM      8  C   UNL     1      21.350   3.979 189.381  0.00  0.00    +0.000 C 
ATOM      9  C   UNL     1      23.605   4.742 189.191  0.00  0.00    +0.000 C 
ATOM     10  C   UNL     1      22.628   3.928 189.831  0.00  0.00    +0.000 C 
ATOM     11  C   UNL     1      20.416   4.055 187.021  0.00  0.00    +0.000 C 
ATOM     12  C   UNL     1      19.916   5.948 188.676  0.00  0.00    +0.000 C 
ATOM     13  C   UNL     1      23.092   3.073 190.978  0.00  0.00    +0.000 C 
ENDBRANCH   3   8
ENDBRANCH   1   4
BRANCH   1  14
ATOM     14  C   UNL     1      18.594   1.358 192.379  0.00  0.00    +0.000 C 
BRANCH  14  15
ATOM     15  C   UNL     1      18.751   0.913 193.839  0.00  0.00    +0.000 C 
ATOM     16  C   UNL     1      18.874   0.567 194.982  0.00  0.00    +0.000 C 
BRANCH  16  17
ATOM     17  C   UNL     1      19.017   0.163 196.331  0.00  0.00    +0.000 C 
ATOM     18  C   UNL     1      20.363   0.225 196.987  0.00  0.00    +0.000 C 
ATOM     19  C   UNL     1      17.999  -0.287 196.983  0.00  0.00    +0.000 C 
ATOM     20  O   UNL     1      16.049  -0.039 198.221  0.00  0.00    +0.000 OA
ATOM     21  C   UNL     1      16.868  -0.769 197.695  0.00  0.00    +0.000 C 
BRANCH  21  22
ATOM     22  O   UNL     1      16.767  -2.108 197.718  0.00  0.00    +0.000 OA
ATOM     23  H   UNL     1      16.077  -2.308 197.051  0.00  0.00    +0.000 HD
ENDBRANCH  21  22
ENDBRANCH  16  17
ENDBRANCH  14  15
ENDBRANCH   1  14
TORSDOF 6
ENDMDL
MODEL 2
REMARK VINA RESULT:      -8.0      1.738      2.213
REMARK  Name = RetinoicAcid.pdbqt.pdb
REMARK  6 active torsions:
REMARK  status: ('A' for Active; 'I' for Inactive)
REMARK    1  A    between atoms: C_1  and  C_3
REMARK    2  A    between atoms: C_1  and  C_5
REMARK    3  A    between atoms: C_3  and  C_15
REMARK    4  A    between atoms: C_4  and  C_9
REMARK    5  A    between atoms: C_16  and  C_17
REMARK    6  A    between atoms: C_21  and  O_22
REMARK                            x       y       z     vdW  Elec       q    Type
REMARK                         _______ _______ _______ _____ _____    ______ ____
ROOT
ATOM      1  C   UNL     1      18.499   1.722 191.049  0.00  0.00    +0.000 C 
ATOM      2  C   UNL     1      17.316   1.280 190.244  0.00  0.00    +0.000 C 
ENDROOT
BRANCH   1   4
ATOM      3  C   UNL     1      20.378   3.170 189.938  0.00  0.00    +0.000 C 
ATOM      4  C   UNL     1      19.517   2.500 190.446  0.00  0.00    +0.000 C 
BRANCH   3   8
ATOM      5  C   UNL     1      21.045   4.932 188.144  0.00  0.00    +0.000 C 
ATOM      6  C   UNL     1      22.278   5.639 187.725  0.00  0.00    +0.000 C 
ATOM      7  C   UNL     1      23.754   5.752 188.052  0.00  0.00    +0.000 C 
ATOM      8  C   UNL     1      21.408   3.979 189.332  0.00  0.00    +0.000 C 
ATOM      9  C   UNL     1      23.667   4.738 189.172  0.00  0.00    +0.000 C 
ATOM     10  C   UNL     1      22.682   3.920 189.794  0.00  0.00    +0.000 C 
ATOM     11  C   UNL     1      20.498   4.083 186.965  0.00  0.00    +0.000 C 
ATOM     12  C   UNL     1      19.987   5.960 188.635  0.00  0.00    +0.000 C 
ATOM     13  C   UNL     1      23.133   3.051 190.936  0.00  0.00    +0.000 C 
ENDBRANCH   3   8
ENDBRANCH   1   4
BRANCH   1  14
ATOM     14  C   UNL     1      18.614   1.352 192.286  0.00  0.00    +0.000 C 
BRANCH  14  15
ATOM     15  C   UNL     1      18.749   0.911 193.749  0.00  0.00    +0.000 C 
ATOM     16  C   UNL     1      18.853   0.568 194.895  0.00  0.00    +0.000 C 
BRANCH  16  17
ATOM     17  C   UNL     1      18.971   0.164 196.246  0.00  0.00    +0.000 C 
ATOM     18  C   UNL     1      17.805  -0.476 196.936  0.00  0.00    +0.000 C 
ATOM     19  C   UNL     1      20.068   0.376 196.892  0.00  0.00    +0.000 C 
ATOM     20  O   UNL     1      22.250  -0.133 197.504  0.00  0.00    +0.000 OA
ATOM     21  C   UNL     1      21.285   0.603 197.588  0.00  0.00    +0.000 C 
BRANCH  21  22
ATOM     22  O   UNL     1      21.288   1.720 198.334  0.00  0.00    +0.000 OA
ATOM     23  H   UNL     1      21.673   1.435 199.189  0.00  0.00    +0.000 HD
ENDBRANCH  21  22
ENDBRANCH  16  17
ENDBRANCH  14  15
ENDBRANCH   1  14
TORSDOF 6
ENDMDL
MODEL 3
REMARK VINA RESULT:      -7.9      0.547      2.110
REMARK  Name = RetinoicAcid.pdbqt.pdb
REMARK  6 active torsions:
REMARK  status: ('A' for Active; 'I' for Inactive)
REMARK    1  A    between atoms: C_1  and  C_3
REMARK    2  A    between atoms: C_1  and  C_5
REMARK    3  A    between atoms: C_3  and  C_15
REMARK    4  A    between atoms: C_4  and  C_9
REMARK    5  A    between atoms: C_16  and  C_17
REMARK    6  A    between atoms: C_21  and  O_22
REMARK                            x       y       z     vdW  Elec       q    Type
REMARK                         _______ _______ _______ _____ _____    ______ ____
ROOT
ATOM      1  C   UNL     1      18.556   1.737 191.195  0.00  0.00    +0.000 C 
ATOM      2  C   UNL     1      17.372   1.315 190.381  0.00  0.00    +0.000 C 
ENDROOT
BRANCH   1   4
ATOM      3  C   UNL     1      20.471   3.149 190.101  0.00  0.00    +0.000 C 
ATOM      4  C   UNL     1      19.592   2.497 190.599  0.00  0.00    +0.000 C 
BRANCH   3   8
ATOM      5  C   UNL     1      23.020   3.513 189.723  0.00  0.00    +0.000 C 
ATOM      6  C   UNL     1      23.882   4.483 189.008  0.00  0.00    +0.000 C 
ATOM      7  C   UNL     1      23.811   5.732 188.152  0.00  0.00    +0.000 C 
ATOM      8  C   UNL     1      21.527   3.936 189.510  0.00  0.00    +0.000 C 
ATOM      9  C   UNL     1      22.300   5.778 188.200  0.00  0.00    +0.000 C 
ATOM     10  C   UNL     1      21.229   5.032 188.770  0.00  0.00    +0.000 C 
ATOM     11  C   UNL     1      23.341   3.540 191.241  0.00  0.00    +0.000 C 
ATOM     12  C   UNL     1      23.222   2.089 189.131  0.00  0.00    +0.000 C 
ATOM     13  C   UNL     1      19.832   5.517 188.494  0.00  0.00    +0.000 C 
ENDBRANCH   3   8
ENDBRANCH   1   4
BRANCH   1  14
ATOM     14  C   UNL     1      18.655   1.365 192.433  0.00  0.00    +0.000 C 
BRANCH  14  15
ATOM     15  C   UNL     1      18.774   0.923 193.897  0.00  0.00    +0.000 C 
ATOM     16  C   UNL     1      18.868   0.575 195.042  0.00  0.00    +0.000 C 
BRANCH  16  17
ATOM     17  C   UNL     1      18.984   0.164 196.392  0.00  0.00    +0.000 C 
ATOM     18  C   UNL     1      20.314   0.230 197.078  0.00  0.00    +0.000 C 
ATOM     19  C   UNL     1      17.954  -0.295 197.019  0.00  0.00    +0.000 C 
ATOM     20  O   UNL     1      15.975  -0.065 198.214  0.00  0.00    +0.000 OA
ATOM     21  C   UNL     1      16.810  -0.788 197.702  0.00  0.00    +0.000 C 
BRANCH  21  22
ATOM     22  O   UNL     1      16.716  -2.127 197.715  0.00  0.00    +0.000 OA
ATOM     23  H   UNL     1      16.490  -2.342 198.644  0.00  0.00    +0.000 HD
ENDBRANCH  21  22
ENDBRANCH  16  17
ENDBRANCH  14  15
ENDBRANCH   1  14
TORSDOF 6
ENDMDL
MODEL 4
REMARK VINA RESULT:      -7.7      1.791      3.034
REMARK  Name = RetinoicAcid.pdbqt.pdb
REMARK  6 active torsions:
REMARK  status: ('A' for Active; 'I' for Inactive)
REMARK    1  A    between atoms: C_1  and  C_3
REMARK    2  A    between atoms: C_1  and  C_5
REMARK    3  A    between atoms: C_3  and  C_15
REMARK    4  A    between atoms: C_4  and  C_9
REMARK    5  A    between atoms: C_16  and  C_17
REMARK    6  A    between atoms: C_21  and  O_22
REMARK                            x       y       z     vdW  Elec       q    Type
REMARK                         _______ _______ _______ _____ _____    ______ ____
ROOT
ATOM      1  C   UNL     1      18.585   1.689 191.120  0.00  0.00    +0.000 C 
ATOM      2  C   UNL     1      17.423   1.245 190.285  0.00  0.00    +0.000 C 
ENDROOT
BRANCH   1   4
ATOM      3  C   UNL     1      20.500   3.121 190.051  0.00  0.00    +0.000 C 
ATOM      4  C   UNL     1      19.623   2.458 190.539  0.00  0.00    +0.000 C 
BRANCH   3   8
ATOM      5  C   UNL     1      23.046   3.499 189.671  0.00  0.00    +0.000 C 
ATOM      6  C   UNL     1      23.904   4.483 188.970  0.00  0.00    +0.000 C 
ATOM      7  C   UNL     1      23.826   5.747 188.136  0.00  0.00    +0.000 C 
ATOM      8  C   UNL     1      21.552   3.921 189.470  0.00  0.00    +0.000 C 
ATOM      9  C   UNL     1      22.314   5.787 188.189  0.00  0.00    +0.000 C 
ATOM     10  C   UNL     1      21.248   5.028 188.749  0.00  0.00    +0.000 C 
ATOM     11  C   UNL     1      23.373   3.501 191.189  0.00  0.00    +0.000 C 
ATOM     12  C   UNL     1      23.252   2.086 189.054  0.00  0.00    +0.000 C 
ATOM     13  C   UNL     1      19.849   5.513 188.486  0.00  0.00    +0.000 C 
ENDBRANCH   3   8
ENDBRANCH   1   4
BRANCH   1  14
ATOM     14  C   UNL     1      18.663   1.328 192.362  0.00  0.00    +0.000 C 
BRANCH  14  15
ATOM     15  C   UNL     1      18.758   0.899 193.832  0.00  0.00    +0.000 C 
ATOM     16  C   UNL     1      18.831   0.565 194.982  0.00  0.00    +0.000 C 
BRANCH  16  17
ATOM     17  C   UNL     1      18.912   0.169 196.339  0.00  0.00    +0.000 C 
ATOM     18  C   UNL     1      17.729  -0.472 196.999  0.00  0.00    +0.000 C 
ATOM     19  C   UNL     1      19.989   0.390 197.014  0.00  0.00    +0.000 C 
ATOM     20  O   UNL     1      22.155  -0.106 197.691  0.00  0.00    +0.000 OA
ATOM     21  C   UNL     1      21.185   0.626 197.743  0.00  0.00    +0.000 C 
BRANCH  21  22
ATOM     22  O   UNL     1      21.162   1.748 198.483  0.00  0.00    +0.000 OA
ATOM     23  H   UNL     1      21.889   1.624 199.127  0.00  0.00    +0.000 HD
ENDBRANCH  21  22
ENDBRANCH  16  17
ENDBRANCH  14  15
ENDBRANCH   1  14
TORSDOF 6
ENDMDL
MODEL 5
REMARK VINA RESULT:      -7.4      6.383      9.608
REMARK  Name = RetinoicAcid.pdbqt.pdb
REMARK  6 active torsions:
REMARK  status: ('A' for Active; 'I' for Inactive)
REMARK    1  A    between atoms: C_1  and  C_3
REMARK    2  A    between atoms: C_1  and  C_5
REMARK    3  A    between atoms: C_3  and  C_15
REMARK    4  A    between atoms: C_4  and  C_9
REMARK    5  A    between atoms: C_16  and  C_17
REMARK    6  A    between atoms: C_21  and  O_22
REMARK                            x       y       z     vdW  Elec       q    Type
REMARK                         _______ _______ _______ _____ _____    ______ ____
ROOT
ATOM      1  C   UNL     1      23.738   4.517 188.537  0.00  0.00    +0.000 C 
ATOM      2  C   UNL     1      23.772   5.951 188.104  0.00  0.00    +0.000 C 
ENDROOT
BRANCH   1   4
ATOM      3  C   UNL     1      21.440   3.308 188.884  0.00  0.00    +0.000 C 
ATOM      4  C   UNL     1      22.496   3.864 188.731  0.00  0.00    +0.000 C 
BRANCH   3   8
ATOM      5  C   UNL     1      19.847   1.949 190.427  0.00  0.00    +0.000 C 
ATOM      6  C   UNL     1      18.493   1.353 190.333  0.00  0.00    +0.000 C 
ATOM      7  C   UNL     1      17.331   1.187 189.373  0.00  0.00    +0.000 C 
ATOM      8  C   UNL     1      20.173   2.640 189.060  0.00  0.00    +0.000 C 
ATOM      9  C   UNL     1      18.028   1.949 188.268  0.00  0.00    +0.000 C 
ATOM     10  C   UNL     1      19.268   2.615 188.051  0.00  0.00    +0.000 C 
ATOM     11  C   UNL     1      20.895   0.835 190.693  0.00  0.00    +0.000 C 
ATOM     12  C   UNL     1      19.873   3.026 191.548  0.00  0.00    +0.000 C 
ATOM     13  C   UNL     1      19.476   3.257 186.707  0.00  0.00    +0.000 C 
ENDBRANCH   3   8
ENDBRANCH   1   4
BRANCH   1  14
ATOM     14  C   UNL     1      24.845   3.889 188.782  0.00  0.00    +0.000 C 
BRANCH  14  15
ATOM     15  C   UNL     1      26.154   3.144 189.072  0.00  0.00    +0.000 C 
ATOM     16  C   UNL     1      27.179   2.562 189.298  0.00  0.00    +0.000 C 
BRANCH  16  17
ATOM     17  C   UNL     1      28.391   1.880 189.564  0.00  0.00    +0.000 C 
ATOM     18  C   UNL     1      28.422   0.791 190.592  0.00  0.00    +0.000 C 
ATOM     19  C   UNL     1      29.472   2.218 188.946  0.00  0.00    +0.000 C 
ATOM     20  O   UNL     1      30.922   2.194 187.131  0.00  0.00    +0.000 OA
ATOM     21  C   UNL     1      30.653   2.590 188.250  0.00  0.00    +0.000 C 
BRANCH  21  22
ATOM     22  O   UNL     1      31.442   3.439 188.928  0.00  0.00    +0.000 OA
ATOM     23  H   UNL     1      32.270   2.935 189.071  0.00  0.00    +0.000 HD
ENDBRANCH  21  22
ENDBRANCH  16  17
ENDBRANCH  14  15
ENDBRANCH   1  14
TORSDOF 6
ENDMDL
MODEL 6
REMARK VINA RESULT:      -7.4      7.357     11.019
REMARK  Name = RetinoicAcid.pdbqt.pdb
REMARK  6 active torsions:
REMARK  status: ('A' for Active; 'I' for Inactive)
REMARK    1  A    between atoms: C_1  and  C_3
REMARK    2  A    between atoms: C_1  and  C_5
REMARK    3  A    between atoms: C_3  and  C_15
REMARK    4  A    between atoms: C_4  and  C_9
REMARK    5  A    between atoms: C_16  and  C_17
REMARK    6  A    between atoms: C_21  and  O_22
REMARK                            x       y       z     vdW  Elec       q    Type
REMARK                         _______ _______ _______ _____ _____    ______ ____
ROOT
ATOM      1  C   UNL     1      26.469   2.773 190.469  0.00  0.00    +0.000 C 
ATOM      2  C   UNL     1      26.661   1.751 191.547  0.00  0.00    +0.000 C 
ENDROOT
BRANCH   1   4
ATOM      3  C   UNL     1      24.060   3.555 189.802  0.00  0.00    +0.000 C 
ATOM      4  C   UNL     1      25.165   3.191 190.111  0.00  0.00    +0.000 C 
BRANCH   3   8
ATOM      5  C   UNL     1      21.485   3.222 189.954  0.00  0.00    +0.000 C 
ATOM      6  C   UNL     1      20.271   3.888 189.426  0.00  0.00    +0.000 C 
ATOM      7  C   UNL     1      19.837   5.052 188.557  0.00  0.00    +0.000 C 
ATOM      8  C   UNL     1      22.738   3.997 189.427  0.00  0.00    +0.000 C 
ATOM      9  C   UNL     1      21.261   5.487 188.285  0.00  0.00    +0.000 C 
ATOM     10  C   UNL     1      22.582   5.081 188.628  0.00  0.00    +0.000 C 
ATOM     11  C   UNL     1      21.546   1.756 189.445  0.00  0.00    +0.000 C 
ATOM     12  C   UNL     1      21.482   3.276 191.508  0.00  0.00    +0.000 C 
ATOM     13  C   UNL     1      23.716   5.903 188.079  0.00  0.00    +0.000 C 
ENDBRANCH   3   8
ENDBRANCH   1   4
BRANCH   1  14
ATOM     14  C   UNL     1      27.497   3.240 189.831  0.00  0.00    +0.000 C 
BRANCH  14  15
ATOM     15  C   UNL     1      28.711   3.793 189.074  0.00  0.00    +0.000 C 
ATOM     16  C   UNL     1      29.661   4.224 188.480  0.00  0.00    +0.000 C 
BRANCH  16  17
ATOM     17  C   UNL     1      30.778   4.731 187.775  0.00  0.00    +0.000 C 
ATOM     18  C   UNL     1      32.164   4.408 188.244  0.00  0.00    +0.000 C 
ATOM     19  C   UNL     1      30.604   5.497 186.751  0.00  0.00    +0.000 C 
ATOM     20  O   UNL     1      30.161   5.896 184.506  0.00  0.00    +0.000 OA
ATOM     21  C   UNL     1      30.400   6.329 185.618  0.00  0.00    +0.000 C 
BRANCH  21  22
ATOM     22  O   UNL     1      30.469   7.644 185.885  0.00  0.00    +0.000 OA
ATOM     23  H   UNL     1      29.598   7.992 185.602  0.00  0.00    +0.000 HD
ENDBRANCH  21  22
ENDBRANCH  16  17
ENDBRANCH  14  15
ENDBRANCH   1  14
TORSDOF 6
ENDMDL
MODEL 7
REMARK VINA RESULT:      -7.3      6.589      9.396
REMARK  Name = RetinoicAcid.pdbqt.pdb
REMARK  6 active torsions:
REMARK  status: ('A' for Active; 'I' for Inactive)
REMARK    1  A    between atoms: C_1  and  C_3
REMARK    2  A    between atoms: C_1  and  C_5
REMARK    3  A    between atoms: C_3  and  C_15
REMARK    4  A    between atoms: C_4  and  C_9
REMARK    5  A    between atoms: C_16  and  C_17
REMARK    6  A    between atoms: C_21  and  O_22
REMARK                            x       y       z     vdW  Elec       q    Type
REMARK                         _______ _______ _______ _____ _____    ______ ____
ROOT
ATOM      1  C   UNL     1      24.665   4.404 188.184  0.00  0.00    +0.000 C 
ATOM      2  C   UNL     1      24.896   5.673 187.423  0.00  0.00    +0.000 C 
ENDROOT
BRANCH   1   4
ATOM      3  C   UNL     1      22.238   3.468 188.490  0.00  0.00    +0.000 C 
ATOM      4  C   UNL     1      23.351   3.901 188.345  0.00  0.00    +0.000 C 
BRANCH   3   8
ATOM      5  C   UNL     1      19.706   3.606 187.910  0.00  0.00    +0.000 C 
ATOM      6  C   UNL     1      18.469   2.874 188.271  0.00  0.00    +0.000 C 
ATOM      7  C   UNL     1      17.977   1.716 189.117  0.00  0.00    +0.000 C 
ATOM      8  C   UNL     1      20.905   2.946 188.670  0.00  0.00    +0.000 C 
ATOM      9  C   UNL     1      19.362   1.398 189.634  0.00  0.00    +0.000 C 
ATOM     10  C   UNL     1      20.692   1.885 189.488  0.00  0.00    +0.000 C 
ATOM     11  C   UNL     1      19.586   5.091 188.348  0.00  0.00    +0.000 C 
ATOM     12  C   UNL     1      19.961   3.490 186.381  0.00  0.00    +0.000 C 
ATOM     13  C   UNL     1      21.773   1.171 190.252  0.00  0.00    +0.000 C 
ENDBRANCH   3   8
ENDBRANCH   1   4
BRANCH   1  14
ATOM     14  C   UNL     1      25.665   3.791 188.737  0.00  0.00    +0.000 C 
BRANCH  14  15
ATOM     15  C   UNL     1      26.847   3.067 189.394  0.00  0.00    +0.000 C 
ATOM     16  C   UNL     1      27.771   2.501 189.910  0.00  0.00    +0.000 C 
BRANCH  16  17
ATOM     17  C   UNL     1      28.858   1.832 190.522  0.00  0.00    +0.000 C 
ATOM     18  C   UNL     1      28.602   0.844 191.619  0.00  0.00    +0.000 C 
ATOM     19  C   UNL     1      30.068   2.097 190.159  0.00  0.00    +0.000 C 
ATOM     20  O   UNL     1      31.911   1.885 188.761  0.00  0.00    +0.000 OA
ATOM     21  C   UNL     1      31.394   2.387 189.742  0.00  0.00    +0.000 C 
BRANCH  21  22
ATOM     22  O   UNL     1      32.026   3.287 190.513  0.00  0.00    +0.000 OA
ATOM     23  H   UNL     1      32.869   2.848 190.752  0.00  0.00    +0.000 HD
ENDBRANCH  21  22
ENDBRANCH  16  17
ENDBRANCH  14  15
ENDBRANCH   1  14
TORSDOF 6
ENDMDL
MODEL 8
REMARK VINA RESULT:      -7.3      7.500     11.027
REMARK  Name = RetinoicAcid.pdbqt.pdb
REMARK  6 active torsions:
REMARK  status: ('A' for Active; 'I' for Inactive)
REMARK    1  A    between atoms: C_1  and  C_3
REMARK    2  A    between atoms: C_1  and  C_5
REMARK    3  A    between atoms: C_3  and  C_15
REMARK    4  A    between atoms: C_4  and  C_9
REMARK    5  A    between atoms: C_16  and  C_17
REMARK    6  A    between atoms: C_21  and  O_22
REMARK                            x       y       z     vdW  Elec       q    Type
REMARK                         _______ _______ _______ _____ _____    ______ ____
ROOT
ATOM      1  C   UNL     1      26.653   2.630 190.341  0.00  0.00    +0.000 C 
ATOM      2  C   UNL     1      26.788   1.507 191.323  0.00  0.00    +0.000 C 
ENDROOT
BRANCH   1   4
ATOM      3  C   UNL     1      24.280   3.522 189.685  0.00  0.00    +0.000 C 
ATOM      4  C   UNL     1      25.369   3.108 189.982  0.00  0.00    +0.000 C 
BRANCH   3   8
ATOM      5  C   UNL     1      21.694   3.312 189.885  0.00  0.00    +0.000 C 
ATOM      6  C   UNL     1      20.505   4.034 189.375  0.00  0.00    +0.000 C 
ATOM      7  C   UNL     1      20.111   5.215 188.509  0.00  0.00    +0.000 C 
ATOM      8  C   UNL     1      22.973   4.025 189.332  0.00  0.00    +0.000 C 
ATOM      9  C   UNL     1      21.549   5.580 188.211  0.00  0.00    +0.000 C 
ATOM     10  C   UNL     1      22.855   5.113 188.531  0.00  0.00    +0.000 C 
ATOM     11  C   UNL     1      21.676   1.844 189.380  0.00  0.00    +0.000 C 
ATOM     12  C   UNL     1      21.722   3.372 191.438  0.00  0.00    +0.000 C 
ATOM     13  C   UNL     1      24.016   5.878 187.959  0.00  0.00    +0.000 C 
ENDBRANCH   3   8
ENDBRANCH   1   4
BRANCH   1  14
ATOM     14  C   UNL     1      27.710   3.132 189.784  0.00  0.00    +0.000 C 
BRANCH  14  15
ATOM     15  C   UNL     1      28.960   3.727 189.122  0.00  0.00    +0.000 C 
ATOM     16  C   UNL     1      29.937   4.192 188.603  0.00  0.00    +0.000 C 
BRANCH  16  17
ATOM     17  C   UNL     1      31.086   4.742 187.986  0.00  0.00    +0.000 C 
ATOM     18  C   UNL     1      31.131   4.895 186.496  0.00  0.00    +0.000 C 
ATOM     19  C   UNL     1      32.105   5.080 188.702  0.00  0.00    +0.000 C 
ATOM     20  O   UNL     1      33.282   6.523 190.091  0.00  0.00    +0.000 OA
ATOM     21  C   UNL     1      33.216   5.460 189.502  0.00  0.00    +0.000 C 
BRANCH  21  22
ATOM     22  O   UNL     1      34.183   4.530 189.572  0.00  0.00    +0.000 OA
ATOM     23  H   UNL     1      35.004   5.022 189.360  0.00  0.00    +0.000 HD
ENDBRANCH  21  22
ENDBRANCH  16  17
ENDBRANCH  14  15
ENDBRANCH   1  14
TORSDOF 6
ENDMDL
MODEL 9
REMARK VINA RESULT:      -7.2      2.294      3.371
REMARK  Name = RetinoicAcid.pdbqt.pdb
REMARK  6 active torsions:
REMARK  status: ('A' for Active; 'I' for Inactive)
REMARK    1  A    between atoms: C_1  and  C_3
REMARK    2  A    between atoms: C_1  and  C_5
REMARK    3  A    between atoms: C_3  and  C_15
REMARK    4  A    between atoms: C_4  and  C_9
REMARK    5  A    between atoms: C_16  and  C_17
REMARK    6  A    between atoms: C_21  and  O_22
REMARK                            x       y       z     vdW  Elec       q    Type
REMARK                         _______ _______ _______ _____ _____    ______ ____
ROOT
ATOM      1  C   UNL     1      22.700   3.218 192.375  0.00  0.00    +0.000 C 
ATOM      2  C   UNL     1      23.892   3.908 192.964  0.00  0.00    +0.000 C 
ENDROOT
BRANCH   1   4
ATOM      3  C   UNL     1      22.164   3.485 189.826  0.00  0.00    +0.000 C 
ATOM      4  C   UNL     1      22.405   3.365 190.998  0.00  0.00    +0.000 C 
BRANCH   3   8
ATOM      5  C   UNL     1      21.651   5.051 187.812  0.00  0.00    +0.000 C 
ATOM      6  C   UNL     1      21.389   4.901 186.361  0.00  0.00    +0.000 C 
ATOM      7  C   UNL     1      21.268   3.848 185.277  0.00  0.00    +0.000 C 
ATOM      8  C   UNL     1      21.880   3.625 188.417  0.00  0.00    +0.000 C 
ATOM      9  C   UNL     1      21.541   2.711 186.237  0.00  0.00    +0.000 C 
ATOM     10  C   UNL     1      21.819   2.529 187.621  0.00  0.00    +0.000 C 
ATOM     11  C   UNL     1      20.424   5.703 188.505  0.00  0.00    +0.000 C 
ATOM     12  C   UNL     1      22.936   5.898 188.032  0.00  0.00    +0.000 C 
ATOM     13  C   UNL     1      22.036   1.119 188.098  0.00  0.00    +0.000 C 
ENDBRANCH   3   8
ENDBRANCH   1   4
BRANCH   1  14
ATOM     14  C   UNL     1      21.912   2.526 193.137  0.00  0.00    +0.000 C 
BRANCH  14  15
ATOM     15  C   UNL     1      20.981   1.707 194.039  0.00  0.00    +0.000 C 
ATOM     16  C   UNL     1      20.251   1.066 194.744  0.00  0.00    +0.000 C 
BRANCH  16  17
ATOM     17  C   UNL     1      19.391   0.305 195.572  0.00  0.00    +0.000 C 
ATOM     18  C   UNL     1      18.189  -0.366 194.981  0.00  0.00    +0.000 C 
ATOM     19  C   UNL     1      19.624   0.216 196.839  0.00  0.00    +0.000 C 
ATOM     20  O   UNL     1      20.700  -0.672 198.696  0.00  0.00    +0.000 OA
ATOM     21  C   UNL     1      19.898   0.115 198.228  0.00  0.00    +0.000 C 
BRANCH  21  22
ATOM     22  O   UNL     1      19.210   0.985 198.986  0.00  0.00    +0.000 OA
ATOM     23  H   UNL     1      19.422   1.860 198.598  0.00  0.00    +0.000 HD
ENDBRANCH  21  22
ENDBRANCH  16  17
ENDBRANCH  14  15
ENDBRANCH   1  14
TORSDOF 6
ENDMDL
