MODEL 1
REMARK VINA RESULT:      -8.2      0.000      0.000
REMARK  Name = SB_202190.pdbqt.pdb
REMARK  4 active torsions:
REMARK  status: ('A' for Active; 'I' for Inactive)
REMARK    1  A    between atoms: C_4  and  C_7
REMARK    2  A    between atoms: C_5  and  C_19
REMARK    3  A    between atoms: C_6  and  C_8
REMARK    4  A    between atoms: C_15  and  O_26
REMARK                            x       y       z     vdW  Elec       q    Type
REMARK                         _______ _______ _______ _____ _____    ______ ____
ROOT
ATOM      1  N   UNL     1      20.443   2.967 187.522  0.00  0.00    +0.000 N 
ATOM      2  N   UNL     1      22.542   3.308 188.079  0.00  0.00    +0.000 NA
ATOM      3  C   UNL     1      20.520   2.606 188.853  0.00  0.00    +0.000 A 
ATOM      4  C   UNL     1      21.859   2.804 189.163  0.00  0.00    +0.000 A 
ATOM      5  C   UNL     1      21.675   3.399 187.093  0.00  0.00    +0.000 A 
ATOM      6  H   UNL     1      19.606   2.955 186.957  0.00  0.00    +0.000 HD
ENDROOT
BRANCH   4   7
ATOM      7  C   UNL     1      22.534   2.532 190.414  0.00  0.00    +0.000 A 
ATOM      8  C   UNL     1      22.825   3.554 191.320  0.00  0.00    +0.000 A 
ATOM      9  C   UNL     1      23.434   3.269 192.540  0.00  0.00    +0.000 A 
ATOM     10  C   UNL     1      23.736   1.949 192.855  0.00  0.00    +0.000 A 
ATOM     11  F   UNL     1      24.326   1.671 194.025  0.00  0.00    +0.000 F 
ATOM     12  C   UNL     1      23.438   0.915 191.976  0.00  0.00    +0.000 A 
ATOM     13  C   UNL     1      22.830   1.210 190.758  0.00  0.00    +0.000 A 
ENDBRANCH   4   7
BRANCH   3  15
ATOM     14  N   UNL     1      17.070   1.410 191.058  0.00  0.00    +0.000 NA
ATOM     15  C   UNL     1      19.348   2.180 189.612  0.00  0.00    +0.000 A 
ATOM     16  C   UNL     1      19.292   2.353 190.993  0.00  0.00    +0.000 A 
ATOM     17  C   UNL     1      18.246   1.628 188.960  0.00  0.00    +0.000 A 
ATOM     18  C   UNL     1      18.147   1.954 191.663  0.00  0.00    +0.000 A 
ATOM     19  C   UNL     1      17.148   1.259 189.720  0.00  0.00    +0.000 A 
ENDBRANCH   3  15
BRANCH   5  20
ATOM     20  C   UNL     1      21.948   3.880 185.743  0.00  0.00    +0.000 A 
ATOM     21  C   UNL     1      23.010   4.763 185.523  0.00  0.00    +0.000 A 
ATOM     22  C   UNL     1      21.169   3.476 184.656  0.00  0.00    +0.000 A 
ATOM     23  C   UNL     1      23.290   5.236 184.243  0.00  0.00    +0.000 A 
ATOM     24  C   UNL     1      21.441   3.943 183.372  0.00  0.00    +0.000 A 
ATOM     25  C   UNL     1      22.501   4.820 183.176  0.00  0.00    +0.000 A 
BRANCH  25  26
ATOM     26  O   UNL     1      22.750   5.264 181.911  0.00  0.00    +0.000 OA
ATOM     27  H   UNL     1      23.548   4.815 181.582  0.00  0.00    +0.000 HD
ENDBRANCH  25  26
ENDBRANCH   5  20
TORSDOF 4
ENDMDL
MODEL 2
REMARK VINA RESULT:      -8.2      2.102      4.306
REMARK  Name = SB_202190.pdbqt.pdb
REMARK  4 active torsions:
REMARK  status: ('A' for Active; 'I' for Inactive)
REMARK    1  A    between atoms: C_4  and  C_7
REMARK    2  A    between atoms: C_5  and  C_19
REMARK    3  A    between atoms: C_6  and  C_8
REMARK    4  A    between atoms: C_15  and  O_26
REMARK                            x       y       z     vdW  Elec       q    Type
REMARK                         _______ _______ _______ _____ _____    ______ ____
ROOT
ATOM      1  N   UNL     1      23.252   3.842 188.385  0.00  0.00    +0.000 N 
ATOM      2  N   UNL     1      21.212   3.068 188.113  0.00  0.00    +0.000 NA
ATOM      3  C   UNL     1      22.889   3.356 189.625  0.00  0.00    +0.000 A 
ATOM      4  C   UNL     1      21.592   2.905 189.427  0.00  0.00    +0.000 A 
ATOM      5  C   UNL     1      22.225   3.638 187.495  0.00  0.00    +0.000 A 
ATOM      6  H   UNL     1      24.146   4.249 188.151  0.00  0.00    +0.000 HD
ENDROOT
BRANCH   4   7
ATOM      7  C   UNL     1      20.684   2.342 190.405  0.00  0.00    +0.000 A 
ATOM      8  C   UNL     1      19.562   3.048 190.845  0.00  0.00    +0.000 A 
ATOM      9  C   UNL     1      18.674   2.473 191.751  0.00  0.00    +0.000 A 
ATOM     10  C   UNL     1      18.907   1.179 192.202  0.00  0.00    +0.000 A 
ATOM     11  F   UNL     1      18.057   0.625 193.078  0.00  0.00    +0.000 F 
ATOM     12  C   UNL     1      20.007   0.453 191.763  0.00  0.00    +0.000 A 
ATOM     13  C   UNL     1      20.890   1.036 190.858  0.00  0.00    +0.000 A 
ENDBRANCH   4   7
BRANCH   3  15
ATOM     14  N   UNL     1      25.568   3.307 192.945  0.00  0.00    +0.000 NA
ATOM     15  C   UNL     1      23.808   3.359 190.760  0.00  0.00    +0.000 A 
ATOM     16  C   UNL     1      23.346   3.611 192.050  0.00  0.00    +0.000 A 
ATOM     17  C   UNL     1      25.159   3.068 190.576  0.00  0.00    +0.000 A 
ATOM     18  C   UNL     1      24.255   3.578 193.095  0.00  0.00    +0.000 A 
ATOM     19  C   UNL     1      25.988   3.061 191.687  0.00  0.00    +0.000 A 
ENDBRANCH   3  15
BRANCH   5  20
ATOM     20  C   UNL     1      22.278   4.008 186.085  0.00  0.00    +0.000 A 
ATOM     21  C   UNL     1      21.333   3.490 185.195  0.00  0.00    +0.000 A 
ATOM     22  C   UNL     1      23.259   4.877 185.598  0.00  0.00    +0.000 A 
ATOM     23  C   UNL     1      21.364   3.829 183.845  0.00  0.00    +0.000 A 
ATOM     24  C   UNL     1      23.299   5.223 184.249  0.00  0.00    +0.000 A 
ATOM     25  C   UNL     1      22.349   4.695 183.383  0.00  0.00    +0.000 A 
BRANCH  25  26
ATOM     26  O   UNL     1      22.406   5.047 182.066  0.00  0.00    +0.000 OA
ATOM     27  H   UNL     1      21.634   4.663 181.615  0.00  0.00    +0.000 HD
ENDBRANCH  25  26
ENDBRANCH   5  20
TORSDOF 4
ENDMDL
MODEL 3
REMARK VINA RESULT:      -8.1      4.884      8.503
REMARK  Name = SB_202190.pdbqt.pdb
REMARK  4 active torsions:
REMARK  status: ('A' for Active; 'I' for Inactive)
REMARK    1  A    between atoms: C_4  and  C_7
REMARK    2  A    between atoms: C_5  and  C_19
REMARK    3  A    between atoms: C_6  and  C_8
REMARK    4  A    between atoms: C_15  and  O_26
REMARK                            x       y       z     vdW  Elec       q    Type
REMARK                         _______ _______ _______ _____ _____    ______ ____
ROOT
ATOM      1  N   UNL     1      22.145   1.457 192.529  0.00  0.00    +0.000 N 
ATOM      2  N   UNL     1      20.119   1.796 191.745  0.00  0.00    +0.000 NA
ATOM      3  C   UNL     1      22.334   1.876 191.227  0.00  0.00    +0.000 A 
ATOM      4  C   UNL     1      21.042   2.052 190.754  0.00  0.00    +0.000 A 
ATOM      5  C   UNL     1      20.800   1.435 192.812  0.00  0.00    +0.000 A 
ATOM      6  H   UNL     1      22.877   1.236 193.189  0.00  0.00    +0.000 HD
ENDROOT
BRANCH   4   7
ATOM      7  C   UNL     1      20.623   2.431 189.421  0.00  0.00    +0.000 A 
ATOM      8  C   UNL     1      19.775   3.520 189.208  0.00  0.00    +0.000 A 
ATOM      9  C   UNL     1      19.420   3.899 187.916  0.00  0.00    +0.000 A 
ATOM     10  C   UNL     1      19.932   3.191 186.835  0.00  0.00    +0.000 A 
ATOM     11  F   UNL     1      19.589   3.550 185.591  0.00  0.00    +0.000 F 
ATOM     12  C   UNL     1      20.792   2.116 187.024  0.00  0.00    +0.000 A 
ATOM     13  C   UNL     1      21.141   1.744 188.320  0.00  0.00    +0.000 A 
ENDBRANCH   4   7
BRANCH   3  15
ATOM     14  N   UNL     1      26.245   2.454 189.624  0.00  0.00    +0.000 NA
ATOM     15  C   UNL     1      23.665   2.076 190.661  0.00  0.00    +0.000 A 
ATOM     16  C   UNL     1      24.169   3.360 190.460  0.00  0.00    +0.000 A 
ATOM     17  C   UNL     1      24.472   0.983 190.348  0.00  0.00    +0.000 A 
ATOM     18  C   UNL     1      25.447   3.494 189.942  0.00  0.00    +0.000 A 
ATOM     19  C   UNL     1      25.736   1.222 189.833  0.00  0.00    +0.000 A 
ENDBRANCH   3  15
BRANCH   5  20
ATOM     20  C   UNL     1      20.242   1.064 194.107  0.00  0.00    +0.000 A 
ATOM     21  C   UNL     1      21.018   1.201 195.262  0.00  0.00    +0.000 A 
ATOM     22  C   UNL     1      18.940   0.570 194.224  0.00  0.00    +0.000 A 
ATOM     23  C   UNL     1      20.507   0.854 196.510  0.00  0.00    +0.000 A 
ATOM     24  C   UNL     1      18.419   0.219 195.467  0.00  0.00    +0.000 A 
ATOM     25  C   UNL     1      19.208   0.365 196.601  0.00  0.00    +0.000 A 
BRANCH  25  26
ATOM     26  O   UNL     1      18.679   0.016 197.809  0.00  0.00    +0.000 OA
ATOM     27  H   UNL     1      18.488  -0.938 197.793  0.00  0.00    +0.000 HD
ENDBRANCH  25  26
ENDBRANCH   5  20
TORSDOF 4
ENDMDL
MODEL 4
REMARK VINA RESULT:      -7.7      3.062      5.111
REMARK  Name = SB_202190.pdbqt.pdb
REMARK  4 active torsions:
REMARK  status: ('A' for Active; 'I' for Inactive)
REMARK    1  A    between atoms: C_4  and  C_7
REMARK    2  A    between atoms: C_5  and  C_19
REMARK    3  A    between atoms: C_6  and  C_8
REMARK    4  A    between atoms: C_15  and  O_26
REMARK                            x       y       z     vdW  Elec       q    Type
REMARK                         _______ _______ _______ _____ _____    ______ ____
ROOT
ATOM      1  N   UNL     1      22.748   1.358 189.983  0.00  0.00    +0.000 N 
ATOM      2  N   UNL     1      20.557   1.264 190.138  0.00  0.00    +0.000 NA
ATOM      3  C   UNL     1      22.505   0.777 191.211  0.00  0.00    +0.000 A 
ATOM      4  C   UNL     1      21.119   0.760 191.291  0.00  0.00    +0.000 A 
ATOM      5  C   UNL     1      21.553   1.624 189.357  0.00  0.00    +0.000 A 
ATOM      6  H   UNL     1      23.659   1.528 189.582  0.00  0.00    +0.000 HD
ENDROOT
BRANCH   4   7
ATOM      7  C   UNL     1      20.294   0.312 192.393  0.00  0.00    +0.000 A 
ATOM      8  C   UNL     1      20.363  -1.000 192.866  0.00  0.00    +0.000 A 
ATOM      9  C   UNL     1      19.595  -1.402 193.956  0.00  0.00    +0.000 A 
ATOM     10  C   UNL     1      18.769  -0.476 194.582  0.00  0.00    +0.000 A 
ATOM     11  F   UNL     1      18.026  -0.860 195.629  0.00  0.00    +0.000 F 
ATOM     12  C   UNL     1      18.699   0.839 194.139  0.00  0.00    +0.000 A 
ATOM     13  C   UNL     1      19.470   1.231 193.047  0.00  0.00    +0.000 A 
ENDBRANCH   4   7
BRANCH   3  15
ATOM     14  N   UNL     1      25.618  -0.626 193.768  0.00  0.00    +0.000 NA
ATOM     15  C   UNL     1      23.583   0.308 192.077  0.00  0.00    +0.000 A 
ATOM     16  C   UNL     1      23.975   1.047 193.191  0.00  0.00    +0.000 A 
ATOM     17  C   UNL     1      24.212  -0.911 191.825  0.00  0.00    +0.000 A 
ATOM     18  C   UNL     1      24.987   0.546 193.993  0.00  0.00    +0.000 A 
ATOM     19  C   UNL     1      25.216  -1.325 192.686  0.00  0.00    +0.000 A 
ENDBRANCH   3  15
BRANCH   5  20
ATOM     20  C   UNL     1      21.439   2.216 188.029  0.00  0.00    +0.000 A 
ATOM     21  C   UNL     1      22.587   2.662 187.367  0.00  0.00    +0.000 A 
ATOM     22  C   UNL     1      20.200   2.347 187.396  0.00  0.00    +0.000 A 
ATOM     23  C   UNL     1      22.503   3.230 186.098  0.00  0.00    +0.000 A 
ATOM     24  C   UNL     1      20.105   2.914 186.127  0.00  0.00    +0.000 A 
ATOM     25  C   UNL     1      21.259   3.351 185.488  0.00  0.00    +0.000 A 
BRANCH  25  26
ATOM     26  O   UNL     1      21.143   3.903 184.245  0.00  0.00    +0.000 OA
ATOM     27  H   UNL     1      21.791   3.473 183.660  0.00  0.00    +0.000 HD
ENDBRANCH  25  26
ENDBRANCH   5  20
TORSDOF 4
ENDMDL
MODEL 5
REMARK VINA RESULT:      -7.7      4.787      7.849
REMARK  Name = SB_202190.pdbqt.pdb
REMARK  4 active torsions:
REMARK  status: ('A' for Active; 'I' for Inactive)
REMARK    1  A    between atoms: C_4  and  C_7
REMARK    2  A    between atoms: C_5  and  C_19
REMARK    3  A    between atoms: C_6  and  C_8
REMARK    4  A    between atoms: C_15  and  O_26
REMARK                            x       y       z     vdW  Elec       q    Type
REMARK                         _______ _______ _______ _____ _____    ______ ____
ROOT
ATOM      1  N   UNL     1      19.594   1.820 192.488  0.00  0.00    +0.000 N 
ATOM      2  N   UNL     1      21.704   1.531 193.036  0.00  0.00    +0.000 NA
ATOM      3  C   UNL     1      20.303   2.123 191.342  0.00  0.00    +0.000 A 
ATOM      4  C   UNL     1      21.626   1.961 191.730  0.00  0.00    +0.000 A 
ATOM      5  C   UNL     1      20.468   1.452 193.483  0.00  0.00    +0.000 A 
ATOM      6  H   UNL     1      18.588   1.826 192.577  0.00  0.00    +0.000 HD
ENDROOT
BRANCH   4   7
ATOM      7  C   UNL     1      22.820   2.201 190.948  0.00  0.00    +0.000 A 
ATOM      8  C   UNL     1      23.350   1.218 190.110  0.00  0.00    +0.000 A 
ATOM      9  C   UNL     1      24.474   1.482 189.330  0.00  0.00    +0.000 A 
ATOM     10  C   UNL     1      25.055   2.743 189.381  0.00  0.00    +0.000 A 
ATOM     11  F   UNL     1      26.138   2.999 188.636  0.00  0.00    +0.000 F 
ATOM     12  C   UNL     1      24.532   3.742 190.194  0.00  0.00    +0.000 A 
ATOM     13  C   UNL     1      23.409   3.469 190.971  0.00  0.00    +0.000 A 
ENDBRANCH   4   7
BRANCH   3  15
ATOM     14  N   UNL     1      18.334   3.175 187.707  0.00  0.00    +0.000 NA
ATOM     15  C   UNL     1      19.641   2.471 190.088  0.00  0.00    +0.000 A 
ATOM     16  C   UNL     1      18.642   1.657 189.559  0.00  0.00    +0.000 A 
ATOM     17  C   UNL     1      19.971   3.649 189.418  0.00  0.00    +0.000 A 
ATOM     18  C   UNL     1      18.029   2.045 188.379  0.00  0.00    +0.000 A 
ATOM     19  C   UNL     1      19.301   3.948 188.243  0.00  0.00    +0.000 A 
ENDBRANCH   3  15
BRANCH   5  20
ATOM     20  C   UNL     1      20.058   1.042 194.822  0.00  0.00    +0.000 A 
ATOM     21  C   UNL     1      20.980   1.080 195.872  0.00  0.00    +0.000 A 
ATOM     22  C   UNL     1      18.754   0.610 195.082  0.00  0.00    +0.000 A 
ATOM     23  C   UNL     1      20.611   0.694 197.158  0.00  0.00    +0.000 A 
ATOM     24  C   UNL     1      18.376   0.221 196.365  0.00  0.00    +0.000 A 
ATOM     25  C   UNL     1      19.309   0.267 197.393  0.00  0.00    +0.000 A 
BRANCH  25  26
ATOM     26  O   UNL     1      18.917  -0.118 198.642  0.00  0.00    +0.000 OA
ATOM     27  H   UNL     1      18.795  -1.083 198.639  0.00  0.00    +0.000 HD
ENDBRANCH  25  26
ENDBRANCH   5  20
TORSDOF 4
ENDMDL
MODEL 6
REMARK VINA RESULT:      -7.5      4.771      7.616
REMARK  Name = SB_202190.pdbqt.pdb
REMARK  4 active torsions:
REMARK  status: ('A' for Active; 'I' for Inactive)
REMARK    1  A    between atoms: C_4  and  C_7
REMARK    2  A    between atoms: C_5  and  C_19
REMARK    3  A    between atoms: C_6  and  C_8
REMARK    4  A    between atoms: C_15  and  O_26
REMARK                            x       y       z     vdW  Elec       q    Type
REMARK                         _______ _______ _______ _____ _____    ______ ____
ROOT
ATOM      1  N   UNL     1      26.407   2.057 189.300  0.00  0.00    +0.000 N 
ATOM      2  N   UNL     1      25.392   1.189 191.046  0.00  0.00    +0.000 NA
ATOM      3  C   UNL     1      25.115   2.539 189.234  0.00  0.00    +0.000 A 
ATOM      4  C   UNL     1      24.496   1.950 190.328  0.00  0.00    +0.000 A 
ATOM      5  C   UNL     1      26.543   1.260 190.411  0.00  0.00    +0.000 A 
ATOM      6  H   UNL     1      27.153   2.283 188.657  0.00  0.00    +0.000 HD
ENDROOT
BRANCH   4   7
ATOM      7  C   UNL     1      23.109   2.051 190.730  0.00  0.00    +0.000 A 
ATOM      8  C   UNL     1      22.683   3.021 191.640  0.00  0.00    +0.000 A 
ATOM      9  C   UNL     1      21.338   3.132 191.980  0.00  0.00    +0.000 A 
ATOM     10  C   UNL     1      20.415   2.277 191.389  0.00  0.00    +0.000 A 
ATOM     11  F   UNL     1      19.120   2.378 191.716  0.00  0.00    +0.000 F 
ATOM     12  C   UNL     1      20.814   1.316 190.467  0.00  0.00    +0.000 A 
ATOM     13  C   UNL     1      22.163   1.212 190.134  0.00  0.00    +0.000 A 
ENDBRANCH   4   7
BRANCH   3  15
ATOM     14  N   UNL     1      23.832   5.314 186.260  0.00  0.00    +0.000 NA
ATOM     15  C   UNL     1      24.687   3.480 188.203  0.00  0.00    +0.000 A 
ATOM     16  C   UNL     1      23.664   3.150 187.317  0.00  0.00    +0.000 A 
ATOM     17  C   UNL     1      25.270   4.744 188.114  0.00  0.00    +0.000 A 
ATOM     18  C   UNL     1      23.280   4.088 186.373  0.00  0.00    +0.000 A 
ATOM     19  C   UNL     1      24.817   5.610 187.133  0.00  0.00    +0.000 A 
ENDBRANCH   3  15
BRANCH   5  20
ATOM     20  C   UNL     1      27.787   0.607 190.802  0.00  0.00    +0.000 A 
ATOM     21  C   UNL     1      27.906   0.049 192.078  0.00  0.00    +0.000 A 
ATOM     22  C   UNL     1      28.872   0.524 189.924  0.00  0.00    +0.000 A 
ATOM     23  C   UNL     1      29.084  -0.581 192.474  0.00  0.00    +0.000 A 
ATOM     24  C   UNL     1      30.054  -0.103 190.310  0.00  0.00    +0.000 A 
ATOM     25  C   UNL     1      30.150  -0.651 191.583  0.00  0.00    +0.000 A 
BRANCH  25  26
ATOM     26  O   UNL     1      31.317  -1.261 191.940  0.00  0.00    +0.000 OA
ATOM     27  H   UNL     1      31.943  -1.178 191.200  0.00  0.00    +0.000 HD
ENDBRANCH  25  26
ENDBRANCH   5  20
TORSDOF 4
ENDMDL
MODEL 7
REMARK VINA RESULT:      -7.4      2.510      3.640
REMARK  Name = SB_202190.pdbqt.pdb
REMARK  4 active torsions:
REMARK  status: ('A' for Active; 'I' for Inactive)
REMARK    1  A    between atoms: C_4  and  C_7
REMARK    2  A    between atoms: C_5  and  C_19
REMARK    3  A    between atoms: C_6  and  C_8
REMARK    4  A    between atoms: C_15  and  O_26
REMARK                            x       y       z     vdW  Elec       q    Type
REMARK                         _______ _______ _______ _____ _____    ______ ____
ROOT
ATOM      1  N   UNL     1      20.783   1.168 190.166  0.00  0.00    +0.000 N 
ATOM      2  N   UNL     1      22.966   1.350 189.984  0.00  0.00    +0.000 NA
ATOM      3  C   UNL     1      21.281   0.653 191.346  0.00  0.00    +0.000 A 
ATOM      4  C   UNL     1      22.655   0.754 191.187  0.00  0.00    +0.000 A 
ATOM      5  C   UNL     1      21.824   1.592 189.376  0.00  0.00    +0.000 A 
ATOM      6  H   UNL     1      19.805   1.259 189.930  0.00  0.00    +0.000 HD
ENDROOT
BRANCH   4   7
ATOM      7  C   UNL     1      23.694   0.311 192.093  0.00  0.00    +0.000 A 
ATOM      8  C   UNL     1      24.342  -0.913 191.912  0.00  0.00    +0.000 A 
ATOM      9  C   UNL     1      25.371  -1.303 192.766  0.00  0.00    +0.000 A 
ATOM     10  C   UNL     1      25.759  -0.452 193.795  0.00  0.00    +0.000 A 
ATOM     11  F   UNL     1      26.745  -0.826 194.621  0.00  0.00    +0.000 F 
ATOM     12  C   UNL     1      25.140   0.778 193.981  0.00  0.00    +0.000 A 
ATOM     13  C   UNL     1      24.111   1.159 193.122  0.00  0.00    +0.000 A 
ENDBRANCH   4   7
BRANCH   3  15
ATOM     14  N   UNL     1      18.767  -0.662 194.533  0.00  0.00    +0.000 NA
ATOM     15  C   UNL     1      20.408   0.195 192.424  0.00  0.00    +0.000 A 
ATOM     16  C   UNL     1      20.530  -1.094 192.940  0.00  0.00    +0.000 A 
ATOM     17  C   UNL     1      19.464   1.055 192.983  0.00  0.00    +0.000 A 
ATOM     18  C   UNL     1      19.694  -1.471 193.978  0.00  0.00    +0.000 A 
ATOM     19  C   UNL     1      18.674   0.582 194.018  0.00  0.00    +0.000 A 
ENDBRANCH   3  15
BRANCH   5  20
ATOM     20  C   UNL     1      21.657   2.213 188.066  0.00  0.00    +0.000 A 
ATOM     21  C   UNL     1      20.392   2.257 187.475  0.00  0.00    +0.000 A 
ATOM     22  C   UNL     1      22.742   2.771 187.383  0.00  0.00    +0.000 A 
ATOM     23  C   UNL     1      20.208   2.845 186.226  0.00  0.00    +0.000 A 
ATOM     24  C   UNL     1      22.569   3.361 186.134  0.00  0.00    +0.000 A 
ATOM     25  C   UNL     1      21.302   3.393 185.565  0.00  0.00    +0.000 A 
BRANCH  25  26
ATOM     26  O   UNL     1      21.155   3.977 184.340  0.00  0.00    +0.000 OA
ATOM     27  H   UNL     1      22.000   4.393 184.098  0.00  0.00    +0.000 HD
ENDBRANCH  25  26
ENDBRANCH   5  20
TORSDOF 4
ENDMDL
MODEL 8
REMARK VINA RESULT:      -7.4      4.673      8.214
REMARK  Name = SB_202190.pdbqt.pdb
REMARK  4 active torsions:
REMARK  status: ('A' for Active; 'I' for Inactive)
REMARK    1  A    between atoms: C_4  and  C_7
REMARK    2  A    between atoms: C_5  and  C_19
REMARK    3  A    between atoms: C_6  and  C_8
REMARK    4  A    between atoms: C_15  and  O_26
REMARK                            x       y       z     vdW  Elec       q    Type
REMARK                         _______ _______ _______ _____ _____    ______ ____
ROOT
ATOM      1  N   UNL     1      23.109   1.203 191.493  0.00  0.00    +0.000 N 
ATOM      2  N   UNL     1      21.331   2.118 190.580  0.00  0.00    +0.000 NA
ATOM      3  C   UNL     1      23.597   1.952 190.440  0.00  0.00    +0.000 A 
ATOM      4  C   UNL     1      22.451   2.489 189.870  0.00  0.00    +0.000 A 
ATOM      5  C   UNL     1      21.743   1.338 191.558  0.00  0.00    +0.000 A 
ATOM      6  H   UNL     1      23.668   0.669 192.143  0.00  0.00    +0.000 HD
ENDROOT
BRANCH   4   7
ATOM      7  C   UNL     1      22.347   3.318 188.687  0.00  0.00    +0.000 A 
ATOM      8  C   UNL     1      22.617   2.808 187.416  0.00  0.00    +0.000 A 
ATOM      9  C   UNL     1      22.467   3.607 186.285  0.00  0.00    +0.000 A 
ATOM     10  C   UNL     1      22.030   4.918 186.434  0.00  0.00    +0.000 A 
ATOM     11  F   UNL     1      21.889   5.692 185.349  0.00  0.00    +0.000 F 
ATOM     12  C   UNL     1      21.738   5.440 187.688  0.00  0.00    +0.000 A 
ATOM     13  C   UNL     1      21.892   4.633 188.813  0.00  0.00    +0.000 A 
ENDBRANCH   4   7
BRANCH   3  15
ATOM     14  N   UNL     1      27.762   2.344 189.605  0.00  0.00    +0.000 NA
ATOM     15  C   UNL     1      25.026   2.072 190.167  0.00  0.00    +0.000 A 
ATOM     16  C   UNL     1      25.650   1.227 189.252  0.00  0.00    +0.000 A 
ATOM     17  C   UNL     1      25.784   3.063 190.790  0.00  0.00    +0.000 A 
ATOM     18  C   UNL     1      27.003   1.398 189.011  0.00  0.00    +0.000 A 
ATOM     19  C   UNL     1      27.132   3.152 190.483  0.00  0.00    +0.000 A 
ENDBRANCH   3  15
BRANCH   5  20
ATOM     20  C   UNL     1      20.905   0.702 192.567  0.00  0.00    +0.000 A 
ATOM     21  C   UNL     1      20.554   1.407 193.722  0.00  0.00    +0.000 A 
ATOM     22  C   UNL     1      20.439  -0.606 192.406  0.00  0.00    +0.000 A 
ATOM     23  C   UNL     1      19.754   0.820 194.700  0.00  0.00    +0.000 A 
ATOM     24  C   UNL     1      19.639  -1.202 193.378  0.00  0.00    +0.000 A 
ATOM     25  C   UNL     1      19.303  -0.483 194.518  0.00  0.00    +0.000 A 
BRANCH  25  26
ATOM     26  O   UNL     1      18.518  -1.086 195.458  0.00  0.00    +0.000 OA
ATOM     27  H   UNL     1      17.660  -0.626 195.478  0.00  0.00    +0.000 HD
ENDBRANCH  25  26
ENDBRANCH   5  20
TORSDOF 4
ENDMDL
MODEL 9
REMARK VINA RESULT:      -7.3      3.551      5.657
REMARK  Name = SB_202190.pdbqt.pdb
REMARK  4 active torsions:
REMARK  status: ('A' for Active; 'I' for Inactive)
REMARK    1  A    between atoms: C_4  and  C_7
REMARK    2  A    between atoms: C_5  and  C_19
REMARK    3  A    between atoms: C_6  and  C_8
REMARK    4  A    between atoms: C_15  and  O_26
REMARK                            x       y       z     vdW  Elec       q    Type
REMARK                         _______ _______ _______ _____ _____    ______ ____
ROOT
ATOM      1  N   UNL     1      24.344   1.381 190.912  0.00  0.00    +0.000 N 
ATOM      2  N   UNL     1      22.199   1.849 190.810  0.00  0.00    +0.000 NA
ATOM      3  C   UNL     1      23.769   0.626 191.914  0.00  0.00    +0.000 A 
ATOM      4  C   UNL     1      22.425   0.966 191.843  0.00  0.00    +0.000 A 
ATOM      5  C   UNL     1      23.368   2.094 190.257  0.00  0.00    +0.000 A 
ATOM      6  H   UNL     1      25.324   1.385 190.666  0.00  0.00    +0.000 HD
ENDROOT
BRANCH   4   7
ATOM      7  C   UNL     1      21.345   0.521 192.698  0.00  0.00    +0.000 A 
ATOM      8  C   UNL     1      20.812   1.350 193.687  0.00  0.00    +0.000 A 
ATOM      9  C   UNL     1      19.743   0.922 194.470  0.00  0.00    +0.000 A 
ATOM     10  C   UNL     1      19.197  -0.336 194.245  0.00  0.00    +0.000 A 
ATOM     11  F   UNL     1      18.171  -0.753 194.999  0.00  0.00    +0.000 F 
ATOM     12  C   UNL     1      19.700  -1.170 193.253  0.00  0.00    +0.000 A 
ATOM     13  C   UNL     1      20.771  -0.733 192.476  0.00  0.00    +0.000 A 
ENDBRANCH   4   7
BRANCH   3  15
ATOM     14  N   UNL     1      26.072  -2.035 194.326  0.00  0.00    +0.000 NA
ATOM     15  C   UNL     1      24.546  -0.299 192.734  0.00  0.00    +0.000 A 
ATOM     16  C   UNL     1      25.566  -1.064 192.173  0.00  0.00    +0.000 A 
ATOM     17  C   UNL     1      24.305  -0.403 194.104  0.00  0.00    +0.000 A 
ATOM     18  C   UNL     1      26.289  -1.909 193.000  0.00  0.00    +0.000 A 
ATOM     19  C   UNL     1      25.082  -1.279 194.845  0.00  0.00    +0.000 A 
ENDBRANCH   3  15
BRANCH   5  20
ATOM     20  C   UNL     1      23.621   2.978 189.125  0.00  0.00    +0.000 A 
ATOM     21  C   UNL     1      24.400   4.125 189.301  0.00  0.00    +0.000 A 
ATOM     22  C   UNL     1      23.099   2.703 187.858  0.00  0.00    +0.000 A 
ATOM     23  C   UNL     1      24.655   4.984 188.235  0.00  0.00    +0.000 A 
ATOM     24  C   UNL     1      23.348   3.555 186.785  0.00  0.00    +0.000 A 
ATOM     25  C   UNL     1      24.125   4.690 186.983  0.00  0.00    +0.000 A 
BRANCH  25  26
ATOM     26  O   UNL     1      24.357   5.511 185.918  0.00  0.00    +0.000 OA
ATOM     27  H   UNL     1      23.548   5.545 185.378  0.00  0.00    +0.000 HD
ENDBRANCH  25  26
ENDBRANCH   5  20
TORSDOF 4
ENDMDL
