MODEL 1
REMARK VINA RESULT:      -9.0      0.000      0.000
REMARK  Name = Simvastatin.pdbqt.pdb
REMARK  7 active torsions:
REMARK  status: ('A' for Active; 'I' for Inactive)
REMARK    1  A    between atoms: C_2  and  C_13
REMARK    2  A    between atoms: C_3  and  O_24
REMARK    3  A    between atoms: C_14  and  C_15
REMARK    4  A    between atoms: C_20  and  O_22
REMARK    5  A    between atoms: O_24  and  C_25
REMARK    6  A    between atoms: C_25  and  C_27
REMARK    7  A    between atoms: C_27  and  C_30
REMARK                            x       y       z     vdW  Elec       q    Type
REMARK                         _______ _______ _______ _____ _____    ______ ____
ROOT
ATOM      1  C   UNL     1      21.485   3.827 189.186  0.00  0.00    +0.000 A 
ATOM      2  C   UNL     1      20.298   2.934 189.475  0.00  0.00    +0.000 A 
ATOM      3  C   UNL     1      22.760   3.869 189.988  0.00  0.00    +0.000 A 
ATOM      4  C   UNL     1      19.229   2.771 188.452  0.00  0.00    +0.000 A 
ATOM      5  C   UNL     1      21.404   4.704 187.919  0.00  0.00    +0.000 A 
ATOM      6  C   UNL     1      23.734   4.743 189.393  0.00  0.00    +0.000 A 
ATOM      7  C   UNL     1      23.759   5.536 188.202  0.00  0.00    +0.000 A 
ATOM      8  C   UNL     1      22.477   5.365 187.599  0.00  0.00    +0.000 A 
ATOM      9  C   UNL     1      19.441   3.601 187.314  0.00  0.00    +0.000 A 
ATOM     10  C   UNL     1      20.313   4.389 187.078  0.00  0.00    +0.000 A 
ATOM     11  C   UNL     1      18.010   1.907 188.564  0.00  0.00    +0.000 C 
ATOM     12  C   UNL     1      24.992   5.571 187.357  0.00  0.00    +0.000 C 
ENDROOT
BRANCH   2  13
ATOM     13  C   UNL     1      20.109   2.435 190.797  0.00  0.00    +0.000 C 
ATOM     14  C   UNL     1      19.978   1.886 192.223  0.00  0.00    +0.000 C 
BRANCH  14  15
ATOM     15  C   UNL     1      19.921   1.390 193.547  0.00  0.00    +0.000 C 
ATOM     16  O   UNL     1      21.118   1.467 194.348  0.00  0.00    +0.000 OA
ATOM     17  C   UNL     1      21.138   0.945 195.645  0.00  0.00    +0.000 C 
ATOM     18  O   UNL     1      22.114   0.975 196.380  0.00  0.00    +0.000 OA
ATOM     19  C   UNL     1      19.892   0.347 196.057  0.00  0.00    +0.000 C 
ATOM     20  C   UNL     1      18.644   0.172 195.422  0.00  0.00    +0.000 C 
ATOM     21  C   UNL     1      18.801   0.752 194.144  0.00  0.00    +0.000 C 
BRANCH  20  22
ATOM     22  O   UNL     1      17.883  -0.937 195.646  0.00  0.00    +0.000 OA
ATOM     23  H   UNL     1      17.244  -1.104 194.926  0.00  0.00    +0.000 HD
ENDBRANCH  20  22
ENDBRANCH  14  15
ENDBRANCH   2  13
BRANCH   3  24
ATOM     24  O   UNL     1      23.194   2.633 190.476  0.00  0.00    +0.000 OA
BRANCH  24  25
ATOM     25  C   UNL     1      23.469   2.667 191.831  0.00  0.00    +0.000 C 
ATOM     26  O   UNL     1      23.124   3.589 192.573  0.00  0.00    +0.000 OA
BRANCH  25  27
ATOM     27  C   UNL     1      24.285   1.401 192.269  0.00  0.00    +0.000 C 
ATOM     28  C   UNL     1      24.772   1.583 193.756  0.00  0.00    +0.000 C 
ATOM     29  C   UNL     1      25.552   1.195 191.343  0.00  0.00    +0.000 C 
BRANCH  27  30
ATOM     30  C   UNL     1      23.379   0.225 192.140  0.00  0.00    +0.000 C 
ATOM     31  C   UNL     1      22.427  -1.004 192.055  0.00  0.00    +0.000 C 
ENDBRANCH  27  30
ENDBRANCH  25  27
ENDBRANCH  24  25
ENDBRANCH   3  24
TORSDOF 7
ENDMDL
MODEL 2
REMARK VINA RESULT:      -8.2      1.178      2.057
REMARK  Name = Simvastatin.pdbqt.pdb
REMARK  7 active torsions:
REMARK  status: ('A' for Active; 'I' for Inactive)
REMARK    1  A    between atoms: C_2  and  C_13
REMARK    2  A    between atoms: C_3  and  O_24
REMARK    3  A    between atoms: C_14  and  C_15
REMARK    4  A    between atoms: C_20  and  O_22
REMARK    5  A    between atoms: O_24  and  C_25
REMARK    6  A    between atoms: C_25  and  C_27
REMARK    7  A    between atoms: C_27  and  C_30
REMARK                            x       y       z     vdW  Elec       q    Type
REMARK                         _______ _______ _______ _____ _____    ______ ____
ROOT
ATOM      1  C   UNL     1      21.569   3.796 189.433  0.00  0.00    +0.000 A 
ATOM      2  C   UNL     1      20.413   2.882 189.780  0.00  0.00    +0.000 A 
ATOM      3  C   UNL     1      22.900   3.823 190.137  0.00  0.00    +0.000 A 
ATOM      4  C   UNL     1      19.271   2.745 188.836  0.00  0.00    +0.000 A 
ATOM      5  C   UNL     1      21.385   4.715 188.207  0.00  0.00    +0.000 A 
ATOM      6  C   UNL     1      23.819   4.727 189.500  0.00  0.00    +0.000 A 
ATOM      7  C   UNL     1      23.749   5.560 188.339  0.00  0.00    +0.000 A 
ATOM      8  C   UNL     1      22.426   5.397 187.830  0.00  0.00    +0.000 A 
ATOM      9  C   UNL     1      19.389   3.615 187.714  0.00  0.00    +0.000 A 
ATOM     10  C   UNL     1      20.236   4.419 187.441  0.00  0.00    +0.000 A 
ATOM     11  C   UNL     1      18.070   1.866 189.010  0.00  0.00    +0.000 C 
ATOM     12  C   UNL     1      24.914   5.635 187.405  0.00  0.00    +0.000 C 
ENDROOT
BRANCH   2  13
ATOM     13  C   UNL     1      20.329   2.337 191.094  0.00  0.00    +0.000 C 
ATOM     14  C   UNL     1      20.188   1.801 192.524  0.00  0.00    +0.000 C 
BRANCH  14  15
ATOM     15  C   UNL     1      20.001   1.336 193.848  0.00  0.00    +0.000 C 
ATOM     16  O   UNL     1      21.111   1.447 194.764  0.00  0.00    +0.000 OA
ATOM     17  C   UNL     1      21.004   0.957 196.069  0.00  0.00    +0.000 C 
ATOM     18  O   UNL     1      21.900   1.016 196.897  0.00  0.00    +0.000 OA
ATOM     19  C   UNL     1      19.729   0.355 196.368  0.00  0.00    +0.000 C 
ATOM     20  C   UNL     1      18.553   0.149 195.615  0.00  0.00    +0.000 C 
ATOM     21  C   UNL     1      18.833   0.700 194.345  0.00  0.00    +0.000 C 
BRANCH  20  22
ATOM     22  O   UNL     1      17.783  -0.963 195.788  0.00  0.00    +0.000 OA
ATOM     23  H   UNL     1      17.419  -1.301 194.948  0.00  0.00    +0.000 HD
ENDBRANCH  20  22
ENDBRANCH  14  15
ENDBRANCH   2  13
BRANCH   3  24
ATOM     24  O   UNL     1      23.378   2.575 190.548  0.00  0.00    +0.000 OA
BRANCH  24  25
ATOM     25  C   UNL     1      24.465   2.154 189.804  0.00  0.00    +0.000 C 
ATOM     26  O   UNL     1      24.420   1.947 188.589  0.00  0.00    +0.000 OA
BRANCH  25  27
ATOM     27  C   UNL     1      25.727   1.961 190.715  0.00  0.00    +0.000 C 
ATOM     28  C   UNL     1      26.005   0.422 190.903  0.00  0.00    +0.000 C 
ATOM     29  C   UNL     1      25.504   2.612 192.139  0.00  0.00    +0.000 C 
BRANCH  27  30
ATOM     30  C   UNL     1      26.870   2.633 190.035  0.00  0.00    +0.000 C 
ATOM     31  C   UNL     1      28.032   3.358 189.294  0.00  0.00    +0.000 C 
ENDBRANCH  27  30
ENDBRANCH  25  27
ENDBRANCH  24  25
ENDBRANCH   3  24
TORSDOF 7
ENDMDL
MODEL 3
REMARK VINA RESULT:      -7.6      2.345      5.239
REMARK  Name = Simvastatin.pdbqt.pdb
REMARK  7 active torsions:
REMARK  status: ('A' for Active; 'I' for Inactive)
REMARK    1  A    between atoms: C_2  and  C_13
REMARK    2  A    between atoms: C_3  and  O_24
REMARK    3  A    between atoms: C_14  and  C_15
REMARK    4  A    between atoms: C_20  and  O_22
REMARK    5  A    between atoms: O_24  and  C_25
REMARK    6  A    between atoms: C_25  and  C_27
REMARK    7  A    between atoms: C_27  and  C_30
REMARK                            x       y       z     vdW  Elec       q    Type
REMARK                         _______ _______ _______ _____ _____    ______ ____
ROOT
ATOM      1  C   UNL     1      21.001   2.749 191.321  0.00  0.00    +0.000 A 
ATOM      2  C   UNL     1      21.156   1.840 192.521  0.00  0.00    +0.000 A 
ATOM      3  C   UNL     1      22.133   3.348 190.528  0.00  0.00    +0.000 A 
ATOM      4  C   UNL     1      19.982   1.083 193.032  0.00  0.00    +0.000 A 
ATOM      5  C   UNL     1      19.561   3.012 190.829  0.00  0.00    +0.000 A 
ATOM      6  C   UNL     1      21.655   4.077 189.386  0.00  0.00    +0.000 A 
ATOM      7  C   UNL     1      20.357   4.316 188.832  0.00  0.00    +0.000 A 
ATOM      8  C   UNL     1      19.438   3.679 189.720  0.00  0.00    +0.000 A 
ATOM      9  C   UNL     1      18.783   1.411 192.335  0.00  0.00    +0.000 A 
ATOM     10  C   UNL     1      18.592   2.188 191.442  0.00  0.00    +0.000 A 
ATOM     11  C   UNL     1      19.969   0.123 194.182  0.00  0.00    +0.000 C 
ATOM     12  C   UNL     1      20.153   4.241 187.353  0.00  0.00    +0.000 C 
ENDROOT
BRANCH   2  13
ATOM     13  C   UNL     1      22.365   1.887 193.276  0.00  0.00    +0.000 C 
ATOM     14  C   UNL     1      23.700   1.913 194.029  0.00  0.00    +0.000 C 
BRANCH  14  15
ATOM     15  C   UNL     1      24.964   1.937 194.667  0.00  0.00    +0.000 C 
ATOM     16  O   UNL     1      25.392   0.745 195.358  0.00  0.00    +0.000 OA
ATOM     17  C   UNL     1      26.606   0.725 196.052  0.00  0.00    +0.000 C 
ATOM     18  O   UNL     1      27.031  -0.246 196.658  0.00  0.00    +0.000 OA
ATOM     19  C   UNL     1      27.330   1.971 196.003  0.00  0.00    +0.000 C 
ATOM     20  C   UNL     1      27.071   3.220 195.400  0.00  0.00    +0.000 C 
ATOM     21  C   UNL     1      25.828   3.061 194.750  0.00  0.00    +0.000 C 
BRANCH  20  22
ATOM     22  O   UNL     1      27.456   4.388 195.991  0.00  0.00    +0.000 OA
ATOM     23  H   UNL     1      27.231   5.171 195.452  0.00  0.00    +0.000 HD
ENDBRANCH  20  22
ENDBRANCH  14  15
ENDBRANCH   2  13
BRANCH   3  24
ATOM     24  O   UNL     1      23.245   2.517 190.363  0.00  0.00    +0.000 OA
BRANCH  24  25
ATOM     25  C   UNL     1      24.438   3.217 190.394  0.00  0.00    +0.000 C 
ATOM     26  O   UNL     1      24.799   3.905 191.351  0.00  0.00    +0.000 OA
BRANCH  25  27
ATOM     27  C   UNL     1      25.232   3.030 189.055  0.00  0.00    +0.000 C 
ATOM     28  C   UNL     1      24.627   1.817 188.253  0.00  0.00    +0.000 C 
ATOM     29  C   UNL     1      26.761   2.736 189.338  0.00  0.00    +0.000 C 
BRANCH  27  30
ATOM     30  C   UNL     1      25.105   4.299 188.285  0.00  0.00    +0.000 C 
ATOM     31  C   UNL     1      24.936   5.605 187.454  0.00  0.00    +0.000 C 
ENDBRANCH  27  30
ENDBRANCH  25  27
ENDBRANCH  24  25
ENDBRANCH   3  24
TORSDOF 7
ENDMDL
MODEL 4
REMARK VINA RESULT:      -7.3     22.419     25.001
REMARK  Name = Simvastatin.pdbqt.pdb
REMARK  7 active torsions:
REMARK  status: ('A' for Active; 'I' for Inactive)
REMARK    1  A    between atoms: C_2  and  C_13
REMARK    2  A    between atoms: C_3  and  O_24
REMARK    3  A    between atoms: C_14  and  C_15
REMARK    4  A    between atoms: C_20  and  O_22
REMARK    5  A    between atoms: O_24  and  C_25
REMARK    6  A    between atoms: C_25  and  C_27
REMARK    7  A    between atoms: C_27  and  C_30
REMARK                            x       y       z     vdW  Elec       q    Type
REMARK                         _______ _______ _______ _____ _____    ______ ____
ROOT
ATOM      1  C   UNL     1      14.427 -18.003 177.401  0.00  0.00    +0.000 A 
ATOM      2  C   UNL     1      13.229 -17.103 177.187  0.00  0.00    +0.000 A 
ATOM      3  C   UNL     1      15.205 -18.130 178.685  0.00  0.00    +0.000 A 
ATOM      4  C   UNL     1      12.375 -17.283 175.982  0.00  0.00    +0.000 A 
ATOM      5  C   UNL     1      14.827 -18.920 176.225  0.00  0.00    +0.000 A 
ATOM      6  C   UNL     1      16.218 -19.146 178.594  0.00  0.00    +0.000 A 
ATOM      7  C   UNL     1      16.609 -20.070 177.575  0.00  0.00    +0.000 A 
ATOM      8  C   UNL     1      15.767 -19.787 176.457  0.00  0.00    +0.000 A 
ATOM      9  C   UNL     1      12.890 -18.275 175.099  0.00  0.00    +0.000 A 
ATOM     10  C   UNL     1      13.879 -18.949 175.179  0.00  0.00    +0.000 A 
ATOM     11  C   UNL     1      11.143 -16.503 175.637  0.00  0.00    +0.000 C 
ATOM     12  C   UNL     1      16.934 -21.484 177.936  0.00  0.00    +0.000 C 
ENDROOT
BRANCH   2  13
ATOM     13  C   UNL     1      13.061 -15.962 178.024  0.00  0.00    +0.000 C 
ATOM     14  C   UNL     1      12.852 -14.697 178.867  0.00  0.00    +0.000 C 
BRANCH  14  15
ATOM     15  C   UNL     1      12.617 -13.510 179.600  0.00  0.00    +0.000 C 
ATOM     16  O   UNL     1      12.753 -12.252 178.907  0.00  0.00    +0.000 OA
ATOM     17  C   UNL     1      12.586 -11.044 179.591  0.00  0.00    +0.000 C 
ATOM     18  O   UNL     1      12.686  -9.943 179.070  0.00  0.00    +0.000 OA
ATOM     19  C   UNL     1      12.287 -11.199 180.993  0.00  0.00    +0.000 C 
ATOM     20  C   UNL     1      12.129 -12.323 181.832  0.00  0.00    +0.000 C 
ATOM     21  C   UNL     1      12.324 -13.438 180.988  0.00  0.00    +0.000 C 
BRANCH  20  22
ATOM     22  O   UNL     1      12.529 -12.299 183.136  0.00  0.00    +0.000 OA
ATOM     23  H   UNL     1      13.476 -12.512 183.240  0.00  0.00    +0.000 HD
ENDBRANCH  20  22
ENDBRANCH  14  15
ENDBRANCH   2  13
BRANCH   3  24
ATOM     24  O   UNL     1      14.437 -18.064 179.851  0.00  0.00    +0.000 OA
BRANCH  24  25
ATOM     25  C   UNL     1      14.266 -19.303 180.442  0.00  0.00    +0.000 C 
ATOM     26  O   UNL     1      15.176 -19.926 180.992  0.00  0.00    +0.000 OA
BRANCH  25  27
ATOM     27  C   UNL     1      12.785 -19.796 180.292  0.00  0.00    +0.000 C 
ATOM     28  C   UNL     1      11.827 -18.549 180.193  0.00  0.00    +0.000 C 
ATOM     29  C   UNL     1      12.350 -20.670 181.537  0.00  0.00    +0.000 C 
BRANCH  27  30
ATOM     30  C   UNL     1      12.718 -20.624 179.056  0.00  0.00    +0.000 C 
ATOM     31  C   UNL     1      12.678 -21.457 177.741  0.00  0.00    +0.000 C 
ENDBRANCH  27  30
ENDBRANCH  25  27
ENDBRANCH  24  25
ENDBRANCH   3  24
TORSDOF 7
ENDMDL
MODEL 5
REMARK VINA RESULT:      -7.2     33.567     36.029
REMARK  Name = Simvastatin.pdbqt.pdb
REMARK  7 active torsions:
REMARK  status: ('A' for Active; 'I' for Inactive)
REMARK    1  A    between atoms: C_2  and  C_13
REMARK    2  A    between atoms: C_3  and  O_24
REMARK    3  A    between atoms: C_14  and  C_15
REMARK    4  A    between atoms: C_20  and  O_22
REMARK    5  A    between atoms: O_24  and  C_25
REMARK    6  A    between atoms: C_25  and  C_27
REMARK    7  A    between atoms: C_27  and  C_30
REMARK                            x       y       z     vdW  Elec       q    Type
REMARK                         _______ _______ _______ _____ _____    ______ ____
ROOT
ATOM      1  C   UNL     1      41.160 -22.044 173.997  0.00  0.00    +0.000 A 
ATOM      2  C   UNL     1      39.895 -21.851 174.804  0.00  0.00    +0.000 A 
ATOM      3  C   UNL     1      41.512 -23.278 173.209  0.00  0.00    +0.000 A 
ATOM      4  C   UNL     1      39.528 -20.493 175.290  0.00  0.00    +0.000 A 
ATOM      5  C   UNL     1      42.124 -20.841 173.916  0.00  0.00    +0.000 A 
ATOM      6  C   UNL     1      42.732 -23.106 172.467  0.00  0.00    +0.000 A 
ATOM      7  C   UNL     1      43.642 -22.015 172.292  0.00  0.00    +0.000 A 
ATOM      8  C   UNL     1      43.139 -20.961 173.113  0.00  0.00    +0.000 A 
ATOM      9  C   UNL     1      40.527 -19.523 174.989  0.00  0.00    +0.000 A 
ATOM     10  C   UNL     1      41.583 -19.643 174.434  0.00  0.00    +0.000 A 
ATOM     11  C   UNL     1      38.303 -20.125 176.071  0.00  0.00    +0.000 C 
ATOM     12  C   UNL     1      44.195 -21.718 170.936  0.00  0.00    +0.000 C 
ENDROOT
BRANCH   2  13
ATOM     13  C   UNL     1      39.188 -22.997 175.272  0.00  0.00    +0.000 C 
ATOM     14  C   UNL     1      38.370 -24.188 175.787  0.00  0.00    +0.000 C 
BRANCH  14  15
ATOM     15  C   UNL     1      37.561 -25.252 176.251  0.00  0.00    +0.000 C 
ATOM     16  O   UNL     1      36.209 -25.336 175.756  0.00  0.00    +0.000 OA
ATOM     17  C   UNL     1      35.345 -26.334 176.218  0.00  0.00    +0.000 C 
ATOM     18  O   UNL     1      34.189 -26.466 175.845  0.00  0.00    +0.000 OA
ATOM     19  C   UNL     1      35.934 -27.212 177.199  0.00  0.00    +0.000 C 
ATOM     20  C   UNL     1      37.209 -27.278 177.801  0.00  0.00    +0.000 C 
ATOM     21  C   UNL     1      37.940 -26.216 177.223  0.00  0.00    +0.000 C 
BRANCH  20  22
ATOM     22  O   UNL     1      37.363 -27.665 179.099  0.00  0.00    +0.000 OA
ATOM     23  H   UNL     1      36.597 -28.172 179.432  0.00  0.00    +0.000 HD
ENDBRANCH  20  22
ENDBRANCH  14  15
ENDBRANCH   2  13
BRANCH   3  24
ATOM     24  O   UNL     1      40.435 -23.903 172.574  0.00  0.00    +0.000 OA
BRANCH  24  25
ATOM     25  C   UNL     1      40.439 -23.702 171.206  0.00  0.00    +0.000 C 
ATOM     26  O   UNL     1      41.242 -24.241 170.441  0.00  0.00    +0.000 OA
BRANCH  25  27
ATOM     27  C   UNL     1      39.314 -22.694 170.784  0.00  0.00    +0.000 C 
ATOM     28  C   UNL     1      38.135 -22.761 171.825  0.00  0.00    +0.000 C 
ATOM     29  C   UNL     1      38.744 -23.047 169.351  0.00  0.00    +0.000 C 
BRANCH  27  30
ATOM     30  C   UNL     1      39.927 -21.336 170.754  0.00  0.00    +0.000 C 
ATOM     31  C   UNL     1      40.530 -19.901 170.695  0.00  0.00    +0.000 C 
ENDBRANCH  27  30
ENDBRANCH  25  27
ENDBRANCH  24  25
ENDBRANCH   3  24
TORSDOF 7
ENDMDL
MODEL 6
REMARK VINA RESULT:      -6.9     30.978     34.139
REMARK  Name = Simvastatin.pdbqt.pdb
REMARK  7 active torsions:
REMARK  status: ('A' for Active; 'I' for Inactive)
REMARK    1  A    between atoms: C_2  and  C_13
REMARK    2  A    between atoms: C_3  and  O_24
REMARK    3  A    between atoms: C_14  and  C_15
REMARK    4  A    between atoms: C_20  and  O_22
REMARK    5  A    between atoms: O_24  and  C_25
REMARK    6  A    between atoms: C_25  and  C_27
REMARK    7  A    between atoms: C_27  and  C_30
REMARK                            x       y       z     vdW  Elec       q    Type
REMARK                         _______ _______ _______ _____ _____    ______ ____
ROOT
ATOM      1  C   UNL     1      41.324  -6.034 165.083  0.00  0.00    +0.000 A 
ATOM      2  C   UNL     1      40.297  -5.687 164.026  0.00  0.00    +0.000 A 
ATOM      3  C   UNL     1      41.251  -7.215 166.015  0.00  0.00    +0.000 A 
ATOM      4  C   UNL     1      40.623  -4.678 162.983  0.00  0.00    +0.000 A 
ATOM      5  C   UNL     1      42.583  -5.143 165.149  0.00  0.00    +0.000 A 
ATOM      6  C   UNL     1      42.433  -7.325 166.827  0.00  0.00    +0.000 A 
ATOM      7  C   UNL     1      43.655  -6.585 166.906  0.00  0.00    +0.000 A 
ATOM      8  C   UNL     1      43.523  -5.523 165.962  0.00  0.00    +0.000 A 
ATOM      9  C   UNL     1      41.897  -4.076 163.192  0.00  0.00    +0.000 A 
ATOM     10  C   UNL     1      42.705  -4.250 164.061  0.00  0.00    +0.000 A 
ATOM     11  C   UNL     1      39.738  -4.244 161.854  0.00  0.00    +0.000 C 
ATOM     12  C   UNL     1      44.955  -7.310 167.051  0.00  0.00    +0.000 C 
ENDROOT
BRANCH   2  13
ATOM     13  C   UNL     1      38.963  -6.166 164.171  0.00  0.00    +0.000 C 
ATOM     14  C   UNL     1      37.505  -6.632 164.279  0.00  0.00    +0.000 C 
BRANCH  14  15
ATOM     15  C   UNL     1      36.149  -7.033 164.322  0.00  0.00    +0.000 C 
ATOM     16  O   UNL     1      35.142  -5.999 164.351  0.00  0.00    +0.000 OA
ATOM     17  C   UNL     1      33.787  -6.332 164.448  0.00  0.00    +0.000 C 
ATOM     18  O   UNL     1      32.882  -5.513 164.478  0.00  0.00    +0.000 OA
ATOM     19  C   UNL     1      33.534  -7.750 164.519  0.00  0.00    +0.000 C 
ATOM     20  C   UNL     1      34.372  -8.886 164.515  0.00  0.00    +0.000 C 
ATOM     21  C   UNL     1      35.683  -8.371 164.410  0.00  0.00    +0.000 C 
BRANCH  20  22
ATOM     22  O   UNL     1      34.067  -9.997 165.245  0.00  0.00    +0.000 OA
ATOM     23  H   UNL     1      34.799 -10.274 165.828  0.00  0.00    +0.000 HD
ENDBRANCH  20  22
ENDBRANCH  14  15
ENDBRANCH   2  13
BRANCH   3  24
ATOM     24  O   UNL     1      40.725  -8.381 165.453  0.00  0.00    +0.000 OA
BRANCH  24  25
ATOM     25  C   UNL     1      41.704  -9.199 164.918  0.00  0.00    +0.000 C 
ATOM     26  O   UNL     1      42.648  -9.647 165.571  0.00  0.00    +0.000 OA
BRANCH  25  27
ATOM     27  C   UNL     1      41.454  -9.446 163.389  0.00  0.00    +0.000 C 
ATOM     28  C   UNL     1      39.916  -9.300 163.081  0.00  0.00    +0.000 C 
ATOM     29  C   UNL     1      41.920 -10.897 162.966  0.00  0.00    +0.000 C 
BRANCH  27  30
ATOM     30  C   UNL     1      42.250  -8.431 162.642  0.00  0.00    +0.000 C 
ATOM     31  C   UNL     1      43.090  -7.348 161.904  0.00  0.00    +0.000 C 
ENDBRANCH  27  30
ENDBRANCH  25  27
ENDBRANCH  24  25
ENDBRANCH   3  24
TORSDOF 7
ENDMDL
MODEL 7
REMARK VINA RESULT:      -6.9      2.581      6.592
REMARK  Name = Simvastatin.pdbqt.pdb
REMARK  7 active torsions:
REMARK  status: ('A' for Active; 'I' for Inactive)
REMARK    1  A    between atoms: C_2  and  C_13
REMARK    2  A    between atoms: C_3  and  O_24
REMARK    3  A    between atoms: C_14  and  C_15
REMARK    4  A    between atoms: C_20  and  O_22
REMARK    5  A    between atoms: O_24  and  C_25
REMARK    6  A    between atoms: C_25  and  C_27
REMARK    7  A    between atoms: C_27  and  C_30
REMARK                            x       y       z     vdW  Elec       q    Type
REMARK                         _______ _______ _______ _____ _____    ______ ____
ROOT
ATOM      1  C   UNL     1      20.374   1.453 192.474  0.00  0.00    +0.000 A 
ATOM      2  C   UNL     1      21.390   1.071 193.529  0.00  0.00    +0.000 A 
ATOM      3  C   UNL     1      20.699   1.951 191.091  0.00  0.00    +0.000 A 
ATOM      4  C   UNL     1      20.954   0.321 194.738  0.00  0.00    +0.000 A 
ATOM      5  C   UNL     1      18.887   1.234 192.829  0.00  0.00    +0.000 A 
ATOM      6  C   UNL     1      19.513   2.124 190.296  0.00  0.00    +0.000 A 
ATOM      7  C   UNL     1      18.121   1.889 190.526  0.00  0.00    +0.000 A 
ATOM      8  C   UNL     1      18.027   1.432 191.875  0.00  0.00    +0.000 A 
ATOM      9  C   UNL     1      19.542   0.138 194.780  0.00  0.00    +0.000 A 
ATOM     10  C   UNL     1      18.689   0.499 194.018  0.00  0.00    +0.000 A 
ATOM     11  C   UNL     1      21.830  -0.157 195.856  0.00  0.00    +0.000 C 
ATOM     12  C   UNL     1      17.285   1.262 189.456  0.00  0.00    +0.000 C 
ENDROOT
BRANCH   2  13
ATOM     13  C   UNL     1      22.703   1.620 193.459  0.00  0.00    +0.000 C 
ATOM     14  C   UNL     1      24.143   2.143 193.383  0.00  0.00    +0.000 C 
BRANCH  14  15
ATOM     15  C   UNL     1      25.491   2.567 193.292  0.00  0.00    +0.000 C 
ATOM     16  O   UNL     1      26.039   2.790 191.977  0.00  0.00    +0.000 OA
ATOM     17  C   UNL     1      27.379   3.159 191.821  0.00  0.00    +0.000 C 
ATOM     18  O   UNL     1      27.911   3.364 190.740  0.00  0.00    +0.000 OA
ATOM     19  C   UNL     1      28.105   3.273 193.061  0.00  0.00    +0.000 C 
ATOM     20  C   UNL     1      27.749   3.086 194.414  0.00  0.00    +0.000 C 
ATOM     21  C   UNL     1      26.383   2.728 194.385  0.00  0.00    +0.000 C 
BRANCH  20  22
ATOM     22  O   UNL     1      28.632   2.573 195.318  0.00  0.00    +0.000 OA
ATOM     23  H   UNL     1      28.447   1.639 195.533  0.00  0.00    +0.000 HD
ENDBRANCH  20  22
ENDBRANCH  14  15
ENDBRANCH   2  13
BRANCH   3  24
ATOM     24  O   UNL     1      21.814   1.356 190.493  0.00  0.00    +0.000 OA
BRANCH  24  25
ATOM     25  C   UNL     1      22.597   2.267 189.809  0.00  0.00    +0.000 C 
ATOM     26  O   UNL     1      22.992   3.328 190.298  0.00  0.00    +0.000 OA
BRANCH  25  27
ATOM     27  C   UNL     1      22.882   1.776 188.347  0.00  0.00    +0.000 C 
ATOM     28  C   UNL     1      23.191   0.232 188.366  0.00  0.00    +0.000 C 
ATOM     29  C   UNL     1      24.124   2.534 187.726  0.00  0.00    +0.000 C 
BRANCH  27  30
ATOM     30  C   UNL     1      21.666   2.070 187.538  0.00  0.00    +0.000 C 
ATOM     31  C   UNL     1      20.399   2.333 186.672  0.00  0.00    +0.000 C 
ENDBRANCH  27  30
ENDBRANCH  25  27
ENDBRANCH  24  25
ENDBRANCH   3  24
TORSDOF 7
ENDMDL
MODEL 8
REMARK VINA RESULT:      -6.7      2.795      6.263
REMARK  Name = Simvastatin.pdbqt.pdb
REMARK  7 active torsions:
REMARK  status: ('A' for Active; 'I' for Inactive)
REMARK    1  A    between atoms: C_2  and  C_13
REMARK    2  A    between atoms: C_3  and  O_24
REMARK    3  A    between atoms: C_14  and  C_15
REMARK    4  A    between atoms: C_20  and  O_22
REMARK    5  A    between atoms: O_24  and  C_25
REMARK    6  A    between atoms: C_25  and  C_27
REMARK    7  A    between atoms: C_27  and  C_30
REMARK                            x       y       z     vdW  Elec       q    Type
REMARK                         _______ _______ _______ _____ _____    ______ ____
ROOT
ATOM      1  C   UNL     1      20.304   1.272 192.898  0.00  0.00    +0.000 A 
ATOM      2  C   UNL     1      21.185   0.871 194.061  0.00  0.00    +0.000 A 
ATOM      3  C   UNL     1      20.794   1.712 191.543  0.00  0.00    +0.000 A 
ATOM      4  C   UNL     1      20.589   0.181 195.237  0.00  0.00    +0.000 A 
ATOM      5  C   UNL     1      18.779   1.139 193.103  0.00  0.00    +0.000 A 
ATOM      6  C   UNL     1      19.706   1.920 190.627  0.00  0.00    +0.000 A 
ATOM      7  C   UNL     1      18.287   1.763 190.718  0.00  0.00    +0.000 A 
ATOM      8  C   UNL     1      18.032   1.352 192.061  0.00  0.00    +0.000 A 
ATOM      9  C   UNL     1      19.172   0.070 195.137  0.00  0.00    +0.000 A 
ATOM     10  C   UNL     1      18.422   0.451 194.283  0.00  0.00    +0.000 A 
ATOM     11  C   UNL     1      21.320  -0.308 196.450  0.00  0.00    +0.000 C 
ATOM     12  C   UNL     1      17.532   1.148 189.583  0.00  0.00    +0.000 C 
ENDROOT
BRANCH   2  13
ATOM     13  C   UNL     1      22.527   1.350 194.113  0.00  0.00    +0.000 C 
ATOM     14  C   UNL     1      23.983   1.818 194.222  0.00  0.00    +0.000 C 
BRANCH  14  15
ATOM     15  C   UNL     1      25.341   2.195 194.352  0.00  0.00    +0.000 C 
ATOM     16  O   UNL     1      25.943   2.101 195.660  0.00  0.00    +0.000 OA
ATOM     17  C   UNL     1      27.266   2.509 195.862  0.00  0.00    +0.000 C 
ATOM     18  O   UNL     1      27.840   2.458 196.939  0.00  0.00    +0.000 OA
ATOM     19  C   UNL     1      27.913   3.012 194.677  0.00  0.00    +0.000 C 
ATOM     20  C   UNL     1      27.491   3.187 193.341  0.00  0.00    +0.000 C 
ATOM     21  C   UNL     1      26.155   2.727 193.318  0.00  0.00    +0.000 C 
BRANCH  20  22
ATOM     22  O   UNL     1      27.928   4.237 192.589  0.00  0.00    +0.000 OA
ATOM     23  H   UNL     1      28.547   3.962 191.886  0.00  0.00    +0.000 HD
ENDBRANCH  20  22
ENDBRANCH  14  15
ENDBRANCH   2  13
BRANCH   3  24
ATOM     24  O   UNL     1      21.930   1.043 191.079  0.00  0.00    +0.000 OA
BRANCH  24  25
ATOM     25  C   UNL     1      22.921   1.913 190.661  0.00  0.00    +0.000 C 
ATOM     26  O   UNL     1      22.835   3.139 190.755  0.00  0.00    +0.000 OA
BRANCH  25  27
ATOM     27  C   UNL     1      24.131   1.129 190.042  0.00  0.00    +0.000 C 
ATOM     28  C   UNL     1      25.322   2.127 189.783  0.00  0.00    +0.000 C 
ATOM     29  C   UNL     1      23.727   0.456 188.669  0.00  0.00    +0.000 C 
BRANCH  27  30
ATOM     30  C   UNL     1      24.518   0.073 191.019  0.00  0.00    +0.000 C 
ATOM     31  C   UNL     1      24.947  -0.998 192.064  0.00  0.00    +0.000 C 
ENDBRANCH  27  30
ENDBRANCH  25  27
ENDBRANCH  24  25
ENDBRANCH   3  24
TORSDOF 7
ENDMDL
MODEL 9
REMARK VINA RESULT:      -6.6     31.526     35.514
REMARK  Name = Simvastatin.pdbqt.pdb
REMARK  7 active torsions:
REMARK  status: ('A' for Active; 'I' for Inactive)
REMARK    1  A    between atoms: C_2  and  C_13
REMARK    2  A    between atoms: C_3  and  O_24
REMARK    3  A    between atoms: C_14  and  C_15
REMARK    4  A    between atoms: C_20  and  O_22
REMARK    5  A    between atoms: O_24  and  C_25
REMARK    6  A    between atoms: C_25  and  C_27
REMARK    7  A    between atoms: C_27  and  C_30
REMARK                            x       y       z     vdW  Elec       q    Type
REMARK                         _______ _______ _______ _____ _____    ______ ____
ROOT
ATOM      1  C   UNL     1      41.090  -6.243 166.704  0.00  0.00    +0.000 A 
ATOM      2  C   UNL     1      42.426  -6.606 166.092  0.00  0.00    +0.000 A 
ATOM      3  C   UNL     1      39.772  -6.231 165.976  0.00  0.00    +0.000 A 
ATOM      4  C   UNL     1      43.597  -6.863 166.973  0.00  0.00    +0.000 A 
ATOM      5  C   UNL     1      41.078  -5.939 168.218  0.00  0.00    +0.000 A 
ATOM      6  C   UNL     1      38.677  -5.947 166.863  0.00  0.00    +0.000 A 
ATOM      7  C   UNL     1      38.575  -5.716 168.272  0.00  0.00    +0.000 A 
ATOM      8  C   UNL     1      39.913  -5.763 168.766  0.00  0.00    +0.000 A 
ATOM      9  C   UNL     1      43.302  -6.628 168.347  0.00  0.00    +0.000 A 
ATOM     10  C   UNL     1      42.290  -6.254 168.871  0.00  0.00    +0.000 A 
ATOM     11  C   UNL     1      44.974  -7.261 166.535  0.00  0.00    +0.000 C 
ATOM     12  C   UNL     1      37.460  -6.339 169.049  0.00  0.00    +0.000 C 
ENDROOT
BRANCH   2  13
ATOM     13  C   UNL     1      42.600  -6.483 164.683  0.00  0.00    +0.000 C 
ATOM     14  C   UNL     1      42.719  -6.375 163.157  0.00  0.00    +0.000 C 
BRANCH  14  15
ATOM     15  C   UNL     1      42.765  -6.276 161.746  0.00  0.00    +0.000 C 
ATOM     16  O   UNL     1      42.607  -4.968 161.158  0.00  0.00    +0.000 OA
ATOM     17  C   UNL     1      42.589  -4.813 159.768  0.00  0.00    +0.000 C 
ATOM     18  O   UNL     1      42.459  -3.739 159.200  0.00  0.00    +0.000 OA
ATOM     19  C   UNL     1      42.731  -6.048 159.038  0.00  0.00    +0.000 C 
ATOM     20  C   UNL     1      42.883  -7.395 159.431  0.00  0.00    +0.000 C 
ATOM     21  C   UNL     1      42.883  -7.365 160.843  0.00  0.00    +0.000 C 
BRANCH  20  22
ATOM     22  O   UNL     1      42.329  -8.413 158.711  0.00  0.00    +0.000 OA
ATOM     23  H   UNL     1      42.995  -8.921 158.209  0.00  0.00    +0.000 HD
ENDBRANCH  20  22
ENDBRANCH  14  15
ENDBRANCH   2  13
BRANCH   3  24
ATOM     24  O   UNL     1      39.609  -7.248 165.030  0.00  0.00    +0.000 OA
BRANCH  24  25
ATOM     25  C   UNL     1      39.100  -6.779 163.833  0.00  0.00    +0.000 C 
ATOM     26  O   UNL     1      38.767  -5.606 163.647  0.00  0.00    +0.000 OA
BRANCH  25  27
ATOM     27  C   UNL     1      38.991  -7.935 162.779  0.00  0.00    +0.000 C 
ATOM     28  C   UNL     1      39.252  -7.355 161.338  0.00  0.00    +0.000 C 
ATOM     29  C   UNL     1      37.552  -8.593 162.806  0.00  0.00    +0.000 C 
BRANCH  27  30
ATOM     30  C   UNL     1      40.012  -8.958 163.138  0.00  0.00    +0.000 C 
ATOM     31  C   UNL     1      41.112 -10.004 163.487  0.00  0.00    +0.000 C 
ENDBRANCH  27  30
ENDBRANCH  25  27
ENDBRANCH  24  25
ENDBRANCH   3  24
TORSDOF 7
ENDMDL
