MODEL 1
REMARK VINA RESULT:     -11.5      0.000      0.000
REMARK  Name = Staurosporine.pdbqt.pdb
REMARK  2 active torsions:
REMARK  status: ('A' for Active; 'I' for Inactive)
REMARK    1  A    between atoms: C_3  and  O_11
REMARK    2  A    between atoms: C_5  and  N_8
REMARK                            x       y       z     vdW  Elec       q    Type
REMARK                         _______ _______ _______ _____ _____    ______ ____
ROOT
ATOM      1  O   UNL     1      24.234   4.143 190.618  0.00  0.00    +0.000 OA
ATOM      2  C   UNL     1      23.904   3.710 189.270  0.00  0.00    +0.000 C 
ATOM      3  C   UNL     1      24.849   2.645 188.679  0.00  0.00    +0.000 C 
ATOM      4  C   UNL     1      24.448   3.091 191.494  0.00  0.00    +0.000 C 
ATOM      5  C   UNL     1      25.623   1.811 189.596  0.00  0.00    +0.000 C 
ATOM      6  C   UNL     1      25.350   2.165 190.930  0.00  0.00    +0.000 C 
ATOM      7  C   UNL     1      24.097   5.011 188.419  0.00  0.00    +0.000 C 
ATOM      8  N   UNL     1      22.491   3.268 189.282  0.00  0.00    +0.000 N 
ATOM      9  C   UNL     1      21.691   2.806 190.296  0.00  0.00    +0.000 A 
ATOM     10  C   UNL     1      22.060   2.508 191.612  0.00  0.00    +0.000 A 
ATOM     11  C   UNL     1      20.348   2.515 190.019  0.00  0.00    +0.000 A 
ATOM     12  N   UNL     1      23.323   2.587 192.114  0.00  0.00    +0.000 N 
ATOM     13  C   UNL     1      21.048   1.944 192.401  0.00  0.00    +0.000 A 
ATOM     14  C   UNL     1      23.147   1.925 193.345  0.00  0.00    +0.000 A 
ATOM     15  C   UNL     1      21.766   1.562 193.556  0.00  0.00    +0.000 A 
ATOM     16  C   UNL     1      24.120   1.642 194.318  0.00  0.00    +0.000 A 
ATOM     17  C   UNL     1      21.432   0.906 194.757  0.00  0.00    +0.000 A 
ATOM     18  C   UNL     1      22.412   0.634 195.711  0.00  0.00    +0.000 A 
ATOM     19  C   UNL     1      23.732   0.996 195.491  0.00  0.00    +0.000 A 
ATOM     20  C   UNL     1      19.694   1.657 192.135  0.00  0.00    +0.000 A 
ATOM     21  C   UNL     1      19.314   1.989 190.805  0.00  0.00    +0.000 A 
ATOM     22  C   UNL     1      18.582   1.071 192.848  0.00  0.00    +0.000 C 
ATOM     23  C   UNL     1      17.887   1.598 190.657  0.00  0.00    +0.000 C 
ATOM     24  N   UNL     1      17.577   1.091 191.871  0.00  0.00    +0.000 N 
ATOM     25  H   UNL     1      16.657   0.737 192.088  0.00  0.00    +0.000 HD
ATOM     26  O   UNL     1      18.432   0.641 193.982  0.00  0.00    +0.000 OA
ATOM     27  C   UNL     1      20.258   2.793 188.645  0.00  0.00    +0.000 A 
ATOM     28  C   UNL     1      21.562   3.231 188.206  0.00  0.00    +0.000 A 
ATOM     29  C   UNL     1      19.221   2.706 187.693  0.00  0.00    +0.000 A 
ATOM     30  C   UNL     1      21.765   3.562 186.855  0.00  0.00    +0.000 A 
ATOM     31  C   UNL     1      20.707   3.463 185.951  0.00  0.00    +0.000 A 
ATOM     32  C   UNL     1      19.453   3.043 186.361  0.00  0.00    +0.000 A 
ENDROOT
BRANCH   5  33
ATOM     33  N   UNL     1      26.366   0.666 189.198  0.00  0.00    +0.000 N 
ATOM     34  C   UNL     1      27.406   0.259 190.117  0.00  0.00    +0.000 C 
ATOM     35  H   UNL     1      26.611   0.634 188.206  0.00  0.00    +0.000 HD
ENDBRANCH   5  33
BRANCH   3  36
ATOM     36  O   UNL     1      24.521   2.185 187.422  0.00  0.00    +0.000 OA
ATOM     37  C   UNL     1      24.087   0.851 187.451  0.00  0.00    +0.000 C 
ENDBRANCH   3  36
TORSDOF 2
ENDMDL
MODEL 2
REMARK VINA RESULT:     -10.9      2.306      5.592
REMARK  Name = Staurosporine.pdbqt.pdb
REMARK  2 active torsions:
REMARK  status: ('A' for Active; 'I' for Inactive)
REMARK    1  A    between atoms: C_3  and  O_11
REMARK    2  A    between atoms: C_5  and  N_8
REMARK                            x       y       z     vdW  Elec       q    Type
REMARK                         _______ _______ _______ _____ _____    ______ ____
ROOT
ATOM      1  O   UNL     1      24.770   0.911 190.597  0.00  0.00    +0.000 OA
ATOM      2  C   UNL     1      24.231   0.566 191.903  0.00  0.00    +0.000 C 
ATOM      3  C   UNL     1      24.645   1.512 193.048  0.00  0.00    +0.000 C 
ATOM      4  C   UNL     1      24.589   2.244 190.265  0.00  0.00    +0.000 C 
ATOM      5  C   UNL     1      25.064   2.871 192.715  0.00  0.00    +0.000 C 
ATOM      6  C   UNL     1      25.018   3.072 191.323  0.00  0.00    +0.000 C 
ATOM      7  C   UNL     1      24.886  -0.825 192.203  0.00  0.00    +0.000 C 
ATOM      8  N   UNL     1      22.761   0.460 191.759  0.00  0.00    +0.000 N 
ATOM      9  C   UNL     1      21.892   1.019 190.857  0.00  0.00    +0.000 A 
ATOM     10  C   UNL     1      22.175   1.971 189.872  0.00  0.00    +0.000 A 
ATOM     11  C   UNL     1      20.534   0.685 190.930  0.00  0.00    +0.000 A 
ATOM     12  N   UNL     1      23.387   2.555 189.663  0.00  0.00    +0.000 N 
ATOM     13  C   UNL     1      21.060   2.445 189.165  0.00  0.00    +0.000 A 
ATOM     14  C   UNL     1      23.020   3.588 188.778  0.00  0.00    +0.000 A 
ATOM     15  C   UNL     1      21.621   3.514 188.432  0.00  0.00    +0.000 A 
ATOM     16  C   UNL     1      23.844   4.581 188.223  0.00  0.00    +0.000 A 
ATOM     17  C   UNL     1      21.111   4.475 187.537  0.00  0.00    +0.000 A 
ATOM     18  C   UNL     1      21.944   5.453 186.998  0.00  0.00    +0.000 A 
ATOM     19  C   UNL     1      23.288   5.504 187.339  0.00  0.00    +0.000 A 
ATOM     20  C   UNL     1      19.693   2.108 189.224  0.00  0.00    +0.000 A 
ATOM     21  C   UNL     1      19.414   1.117 190.206  0.00  0.00    +0.000 A 
ATOM     22  C   UNL     1      18.475   2.532 188.573  0.00  0.00    +0.000 C 
ATOM     23  C   UNL     1      17.944   0.894 190.184  0.00  0.00    +0.000 C 
ATOM     24  N   UNL     1      17.516   1.745 189.225  0.00  0.00    +0.000 N 
ATOM     25  H   UNL     1      16.542   1.823 188.969  0.00  0.00    +0.000 HD
ATOM     26  O   UNL     1      18.220   3.337 187.690  0.00  0.00    +0.000 OA
ATOM     27  C   UNL     1      20.497  -0.182 192.034  0.00  0.00    +0.000 A 
ATOM     28  C   UNL     1      21.844  -0.298 192.539  0.00  0.00    +0.000 A 
ATOM     29  C   UNL     1      19.467  -0.880 192.699  0.00  0.00    +0.000 A 
ATOM     30  C   UNL     1      22.098  -1.099 193.666  0.00  0.00    +0.000 A 
ATOM     31  C   UNL     1      21.047  -1.773 194.288  0.00  0.00    +0.000 A 
ATOM     32  C   UNL     1      19.750  -1.668 193.812  0.00  0.00    +0.000 A 
ENDROOT
BRANCH   5  33
ATOM     33  N   UNL     1      25.269   3.900 193.675  0.00  0.00    +0.000 N 
ATOM     34  C   UNL     1      26.508   3.810 194.416  0.00  0.00    +0.000 C 
ATOM     35  H   UNL     1      24.442   4.152 194.220  0.00  0.00    +0.000 HD
ENDBRANCH   5  33
BRANCH   3  36
ATOM     36  O   UNL     1      24.101   1.230 194.283  0.00  0.00    +0.000 OA
ATOM     37  C   UNL     1      25.048   0.677 195.157  0.00  0.00    +0.000 C 
ENDBRANCH   3  36
TORSDOF 2
ENDMDL
MODEL 3
REMARK VINA RESULT:      -9.8      2.616      6.108
REMARK  Name = Staurosporine.pdbqt.pdb
REMARK  2 active torsions:
REMARK  status: ('A' for Active; 'I' for Inactive)
REMARK    1  A    between atoms: C_3  and  O_11
REMARK    2  A    between atoms: C_5  and  N_8
REMARK                            x       y       z     vdW  Elec       q    Type
REMARK                         _______ _______ _______ _____ _____    ______ ____
ROOT
ATOM      1  O   UNL     1      24.135  -0.807 193.189  0.00  0.00    +0.000 OA
ATOM      2  C   UNL     1      23.595  -0.193 194.391  0.00  0.00    +0.000 C 
ATOM      3  C   UNL     1      24.419   0.987 194.945  0.00  0.00    +0.000 C 
ATOM      4  C   UNL     1      24.462   0.110 192.203  0.00  0.00    +0.000 C 
ATOM      5  C   UNL     1      25.308   1.707 194.037  0.00  0.00    +0.000 C 
ATOM      6  C   UNL     1      25.249   1.147 192.747  0.00  0.00    +0.000 C 
ATOM      7  C   UNL     1      23.679  -1.344 195.449  0.00  0.00    +0.000 C 
ATOM      8  N   UNL     1      22.192   0.183 194.101  0.00  0.00    +0.000 N 
ATOM      9  C   UNL     1      21.548   0.456 192.920  0.00  0.00    +0.000 A 
ATOM     10  C   UNL     1      22.110   0.570 191.644  0.00  0.00    +0.000 A 
ATOM     11  C   UNL     1      20.174   0.729 192.947  0.00  0.00    +0.000 A 
ATOM     12  N   UNL     1      23.436   0.469 191.354  0.00  0.00    +0.000 N 
ATOM     13  C   UNL     1      21.220   0.968 190.636  0.00  0.00    +0.000 A 
ATOM     14  C   UNL     1      23.438   0.934 190.023  0.00  0.00    +0.000 A 
ATOM     15  C   UNL     1      22.100   1.203 189.557  0.00  0.00    +0.000 A 
ATOM     16  C   UNL     1      24.543   1.108 189.174  0.00  0.00    +0.000 A 
ATOM     17  C   UNL     1      21.942   1.659 188.233  0.00  0.00    +0.000 A 
ATOM     18  C   UNL     1      23.050   1.827 187.405  0.00  0.00    +0.000 A 
ATOM     19  C   UNL     1      24.328   1.557 187.871  0.00  0.00    +0.000 A 
ATOM     20  C   UNL     1      19.837   1.235 190.651  0.00  0.00    +0.000 A 
ATOM     21  C   UNL     1      19.263   1.089 191.945  0.00  0.00    +0.000 A 
ATOM     22  C   UNL     1      18.836   1.661 189.700  0.00  0.00    +0.000 C 
ATOM     23  C   UNL     1      17.823   1.438 191.817  0.00  0.00    +0.000 C 
ATOM     24  N   UNL     1      17.694   1.746 190.508  0.00  0.00    +0.000 N 
ATOM     25  H   UNL     1      16.811   2.024 190.104  0.00  0.00    +0.000 HD
ATOM     26  O   UNL     1      18.854   1.911 188.504  0.00  0.00    +0.000 OA
ATOM     27  C   UNL     1      19.880   0.654 194.318  0.00  0.00    +0.000 A 
ATOM     28  C   UNL     1      21.109   0.341 195.008  0.00  0.00    +0.000 A 
ATOM     29  C   UNL     1      18.708   0.839 195.081  0.00  0.00    +0.000 A 
ATOM     30  C   UNL     1      21.108   0.223 196.409  0.00  0.00    +0.000 A 
ATOM     31  C   UNL     1      19.923   0.412 197.120  0.00  0.00    +0.000 A 
ATOM     32  C   UNL     1      18.739   0.714 196.468  0.00  0.00    +0.000 A 
ENDROOT
BRANCH   5  33
ATOM     33  N   UNL     1      25.960   2.928 194.360  0.00  0.00    +0.000 N 
ATOM     34  C   UNL     1      27.115   3.240 193.548  0.00  0.00    +0.000 C 
ATOM     35  H   UNL     1      26.055   3.114 195.361  0.00  0.00    +0.000 HD
ENDBRANCH   5  33
BRANCH   3  36
ATOM     36  O   UNL     1      23.893   1.615 196.053  0.00  0.00    +0.000 OA
ATOM     37  C   UNL     1      24.738   1.502 197.167  0.00  0.00    +0.000 C 
ENDBRANCH   3  36
TORSDOF 2
ENDMDL
MODEL 4
REMARK VINA RESULT:      -8.8     29.712     33.470
REMARK  Name = Staurosporine.pdbqt.pdb
REMARK  2 active torsions:
REMARK  status: ('A' for Active; 'I' for Inactive)
REMARK    1  A    between atoms: C_3  and  O_11
REMARK    2  A    between atoms: C_5  and  N_8
REMARK                            x       y       z     vdW  Elec       q    Type
REMARK                         _______ _______ _______ _____ _____    ______ ____
ROOT
ATOM      1  O   UNL     1      41.769  -6.281 162.085  0.00  0.00    +0.000 OA
ATOM      2  C   UNL     1      40.734  -7.121 161.505  0.00  0.00    +0.000 C 
ATOM      3  C   UNL     1      41.157  -8.578 161.231  0.00  0.00    +0.000 C 
ATOM      4  C   UNL     1      42.394  -6.857 163.179  0.00  0.00    +0.000 C 
ATOM      5  C   UNL     1      42.278  -9.135 161.986  0.00  0.00    +0.000 C 
ATOM      6  C   UNL     1      42.800  -8.172 162.869  0.00  0.00    +0.000 C 
ATOM      7  C   UNL     1      40.472  -6.454 160.112  0.00  0.00    +0.000 C 
ATOM      8  N   UNL     1      39.548  -7.032 162.387  0.00  0.00    +0.000 N 
ATOM      9  C   UNL     1      39.425  -6.725 163.718  0.00  0.00    +0.000 A 
ATOM     10  C   UNL     1      40.449  -6.528 164.651  0.00  0.00    +0.000 A 
ATOM     11  C   UNL     1      38.143  -6.658 164.281  0.00  0.00    +0.000 A 
ATOM     12  N   UNL     1      41.781  -6.652 164.398  0.00  0.00    +0.000 N 
ATOM     13  C   UNL     1      40.021  -6.336 165.973  0.00  0.00    +0.000 A 
ATOM     14  C   UNL     1      42.290  -6.622 165.711  0.00  0.00    +0.000 A 
ATOM     15  C   UNL     1      41.244  -6.391 166.678  0.00  0.00    +0.000 A 
ATOM     16  C   UNL     1      43.628  -6.753 166.120  0.00  0.00    +0.000 A 
ATOM     17  C   UNL     1      41.605  -6.317 168.038  0.00  0.00    +0.000 A 
ATOM     18  C   UNL     1      42.938  -6.450 168.424  0.00  0.00    +0.000 A 
ATOM     19  C   UNL     1      43.930  -6.667 167.478  0.00  0.00    +0.000 A 
ATOM     20  C   UNL     1      38.737  -6.256 166.546  0.00  0.00    +0.000 A 
ATOM     21  C   UNL     1      37.698  -6.428 165.589  0.00  0.00    +0.000 A 
ATOM     22  C   UNL     1      38.183  -6.083 167.869  0.00  0.00    +0.000 C 
ATOM     23  C   UNL     1      36.413  -6.361 166.337  0.00  0.00    +0.000 C 
ATOM     24  N   UNL     1      36.807  -6.164 167.614  0.00  0.00    +0.000 N 
ATOM     25  H   UNL     1      36.148  -6.071 168.373  0.00  0.00    +0.000 HD
ATOM     26  O   UNL     1      38.669  -5.907 168.976  0.00  0.00    +0.000 OA
ATOM     27  C   UNL     1      37.320  -6.987 163.192  0.00  0.00    +0.000 A 
ATOM     28  C   UNL     1      38.179  -7.228 162.057  0.00  0.00    +0.000 A 
ATOM     29  C   UNL     1      35.928  -7.137 163.026  0.00  0.00    +0.000 A 
ATOM     30  C   UNL     1      37.614  -7.598 160.824  0.00  0.00    +0.000 A 
ATOM     31  C   UNL     1      36.230  -7.731 160.709  0.00  0.00    +0.000 A 
ATOM     32  C   UNL     1      35.397  -7.503 161.791  0.00  0.00    +0.000 A 
ENDROOT
BRANCH   5  33
ATOM     33  N   UNL     1      42.636 -10.510 161.984  0.00  0.00    +0.000 N 
ATOM     34  C   UNL     1      41.839 -11.353 162.849  0.00  0.00    +0.000 C 
ATOM     35  H   UNL     1      43.641 -10.695 161.986  0.00  0.00    +0.000 HD
ENDBRANCH   5  33
BRANCH   3  36
ATOM     36  O   UNL     1      40.173  -9.403 160.730  0.00  0.00    +0.000 OA
ATOM     37  C   UNL     1      40.481  -9.860 159.440  0.00  0.00    +0.000 C 
ENDBRANCH   3  36
TORSDOF 2
ENDMDL
MODEL 5
REMARK VINA RESULT:      -8.1     34.214     36.383
REMARK  Name = Staurosporine.pdbqt.pdb
REMARK  2 active torsions:
REMARK  status: ('A' for Active; 'I' for Inactive)
REMARK    1  A    between atoms: C_3  and  O_11
REMARK    2  A    between atoms: C_5  and  N_8
REMARK                            x       y       z     vdW  Elec       q    Type
REMARK                         _______ _______ _______ _____ _____    ______ ____
ROOT
ATOM      1  O   UNL     1      38.422 -22.505 173.625  0.00  0.00    +0.000 OA
ATOM      2  C   UNL     1      39.868 -22.611 173.739  0.00  0.00    +0.000 C 
ATOM      3  C   UNL     1      40.408 -24.051 173.840  0.00  0.00    +0.000 C 
ATOM      4  C   UNL     1      37.887 -23.332 172.651  0.00  0.00    +0.000 C 
ATOM      5  C   UNL     1      39.587 -25.144 173.324  0.00  0.00    +0.000 C 
ATOM      6  C   UNL     1      38.376 -24.646 172.808  0.00  0.00    +0.000 C 
ATOM      7  C   UNL     1      40.170 -21.915 175.109  0.00  0.00    +0.000 C 
ATOM      8  N   UNL     1      40.456 -21.864 172.604  0.00  0.00    +0.000 N 
ATOM      9  C   UNL     1      39.953 -21.540 171.370  0.00  0.00    +0.000 A 
ATOM     10  C   UNL     1      38.745 -21.956 170.800  0.00  0.00    +0.000 A 
ATOM     11  C   UNL     1      40.731 -20.757 170.506  0.00  0.00    +0.000 A 
ATOM     12  N   UNL     1      37.856 -22.814 171.373  0.00  0.00    +0.000 N 
ATOM     13  C   UNL     1      38.543 -21.554 169.471  0.00  0.00    +0.000 A 
ATOM     14  C   UNL     1      37.014 -23.076 170.274  0.00  0.00    +0.000 A 
ATOM     15  C   UNL     1      37.390 -22.291 169.123  0.00  0.00    +0.000 A 
ATOM     16  C   UNL     1      35.910 -23.942 170.222  0.00  0.00    +0.000 A 
ATOM     17  C   UNL     1      36.625 -22.434 167.948  0.00  0.00    +0.000 A 
ATOM     18  C   UNL     1      35.532 -23.298 167.916  0.00  0.00    +0.000 A 
ATOM     19  C   UNL     1      35.185 -24.040 169.036  0.00  0.00    +0.000 A 
ATOM     20  C   UNL     1      39.314 -20.759 168.600  0.00  0.00    +0.000 A 
ATOM     21  C   UNL     1      40.527 -20.313 169.193  0.00  0.00    +0.000 A 
ATOM     22  C   UNL     1      39.220 -20.301 167.233  0.00  0.00    +0.000 C 
ATOM     23  C   UNL     1      41.248 -19.528 168.155  0.00  0.00    +0.000 C 
ATOM     24  N   UNL     1      40.418 -19.588 167.090  0.00  0.00    +0.000 N 
ATOM     25  H   UNL     1      40.634 -19.137 166.213  0.00  0.00    +0.000 HD
ATOM     26  O   UNL     1      38.386 -20.430 166.350  0.00  0.00    +0.000 OA
ATOM     27  C   UNL     1      41.904 -20.562 171.253  0.00  0.00    +0.000 A 
ATOM     28  C   UNL     1      41.735 -21.249 172.511  0.00  0.00    +0.000 A 
ATOM     29  C   UNL     1      43.123 -19.897 171.008  0.00  0.00    +0.000 A 
ATOM     30  C   UNL     1      42.776 -21.235 173.456  0.00  0.00    +0.000 A 
ATOM     31  C   UNL     1      43.963 -20.560 173.169  0.00  0.00    +0.000 A 
ATOM     32  C   UNL     1      44.136 -19.899 171.965  0.00  0.00    +0.000 A 
ENDROOT
BRANCH   5  33
ATOM     33  N   UNL     1      40.046 -26.480 173.166  0.00  0.00    +0.000 N 
ATOM     34  C   UNL     1      39.438 -27.447 174.053  0.00  0.00    +0.000 C 
ATOM     35  H   UNL     1      41.054 -26.576 173.027  0.00  0.00    +0.000 HD
ENDBRANCH   5  33
BRANCH   3  36
ATOM     36  O   UNL     1      41.780 -24.173 173.896  0.00  0.00    +0.000 OA
ATOM     37  C   UNL     1      42.190 -24.978 174.969  0.00  0.00    +0.000 C 
ENDBRANCH   3  36
TORSDOF 2
ENDMDL
MODEL 6
REMARK VINA RESULT:      -8.1     32.905     37.118
REMARK  Name = Staurosporine.pdbqt.pdb
REMARK  2 active torsions:
REMARK  status: ('A' for Active; 'I' for Inactive)
REMARK    1  A    between atoms: C_3  and  O_11
REMARK    2  A    between atoms: C_5  and  N_8
REMARK                            x       y       z     vdW  Elec       q    Type
REMARK                         _______ _______ _______ _____ _____    ______ ____
ROOT
ATOM      1  O   UNL     1      42.274 -25.323 175.362  0.00  0.00    +0.000 OA
ATOM      2  C   UNL     1      42.584 -25.905 174.067  0.00  0.00    +0.000 C 
ATOM      3  C   UNL     1      41.485 -26.814 173.482  0.00  0.00    +0.000 C 
ATOM      4  C   UNL     1      41.024 -24.727 175.410  0.00  0.00    +0.000 C 
ATOM      5  C   UNL     1      40.111 -26.636 173.945  0.00  0.00    +0.000 C 
ATOM      6  C   UNL     1      40.046 -25.610 174.905  0.00  0.00    +0.000 C 
ATOM      7  C   UNL     1      43.817 -26.821 174.373  0.00  0.00    +0.000 C 
ATOM      8  N   UNL     1      42.941 -24.792 173.157  0.00  0.00    +0.000 N 
ATOM      9  C   UNL     1      42.614 -23.460 173.178  0.00  0.00    +0.000 A 
ATOM     10  C   UNL     1      41.720 -22.809 174.035  0.00  0.00    +0.000 A 
ATOM     11  C   UNL     1      43.158 -22.615 172.201  0.00  0.00    +0.000 A 
ATOM     12  N   UNL     1      40.968 -23.413 174.996  0.00  0.00    +0.000 N 
ATOM     13  C   UNL     1      41.499 -21.454 173.748  0.00  0.00    +0.000 A 
ATOM     14  C   UNL     1      40.092 -22.360 175.328  0.00  0.00    +0.000 A 
ATOM     15  C   UNL     1      40.423 -21.152 174.611  0.00  0.00    +0.000 A 
ATOM     16  C   UNL     1      39.031 -22.380 176.249  0.00  0.00    +0.000 A 
ATOM     17  C   UNL     1      39.642 -20.005 174.855  0.00  0.00    +0.000 A 
ATOM     18  C   UNL     1      38.593 -20.045 175.772  0.00  0.00    +0.000 A 
ATOM     19  C   UNL     1      38.294 -21.215 176.454  0.00  0.00    +0.000 A 
ATOM     20  C   UNL     1      42.049 -20.595 172.776  0.00  0.00    +0.000 A 
ATOM     21  C   UNL     1      42.980 -21.253 171.925  0.00  0.00    +0.000 A 
ATOM     22  C   UNL     1      41.889 -19.215 172.381  0.00  0.00    +0.000 C 
ATOM     23  C   UNL     1      43.441 -20.243 170.934  0.00  0.00    +0.000 C 
ATOM     24  N   UNL     1      42.760 -19.131 171.286  0.00  0.00    +0.000 N 
ATOM     25  H   UNL     1      42.866 -18.256 170.792  0.00  0.00    +0.000 HD
ATOM     26  O   UNL     1      41.218 -18.283 172.800  0.00  0.00    +0.000 OA
ATOM     27  C   UNL     1      43.917 -23.505 171.423  0.00  0.00    +0.000 A 
ATOM     28  C   UNL     1      43.766 -24.820 171.999  0.00  0.00    +0.000 A 
ATOM     29  C   UNL     1      44.711 -23.364 170.267  0.00  0.00    +0.000 A 
ATOM     30  C   UNL     1      44.411 -25.918 171.403  0.00  0.00    +0.000 A 
ATOM     31  C   UNL     1      45.189 -25.728 170.261  0.00  0.00    +0.000 A 
ATOM     32  C   UNL     1      45.339 -24.470 169.700  0.00  0.00    +0.000 A 
ENDROOT
BRANCH   5  33
ATOM     33  N   UNL     1      38.981 -27.257 173.345  0.00  0.00    +0.000 N 
ATOM     34  C   UNL     1      38.013 -26.346 172.773  0.00  0.00    +0.000 C 
ATOM     35  H   UNL     1      38.594 -28.046 173.867  0.00  0.00    +0.000 HD
ENDBRANCH   5  33
BRANCH   3  36
ATOM     36  O   UNL     1      41.740 -27.332 172.231  0.00  0.00    +0.000 OA
ATOM     37  C   UNL     1      41.877 -28.728 172.261  0.00  0.00    +0.000 C 
ENDBRANCH   3  36
TORSDOF 2
ENDMDL
MODEL 7
REMARK VINA RESULT:      -8.1     32.083     34.306
REMARK  Name = Staurosporine.pdbqt.pdb
REMARK  2 active torsions:
REMARK  status: ('A' for Active; 'I' for Inactive)
REMARK    1  A    between atoms: C_3  and  O_11
REMARK    2  A    between atoms: C_5  and  N_8
REMARK                            x       y       z     vdW  Elec       q    Type
REMARK                         _______ _______ _______ _____ _____    ______ ____
ROOT
ATOM      1  O   UNL     1      40.567  -6.541 166.358  0.00  0.00    +0.000 OA
ATOM      2  C   UNL     1      41.977  -6.277 166.125  0.00  0.00    +0.000 C 
ATOM      3  C   UNL     1      42.843  -7.531 165.888  0.00  0.00    +0.000 C 
ATOM      4  C   UNL     1      40.006  -7.393 165.421  0.00  0.00    +0.000 C 
ATOM      5  C   UNL     1      42.192  -8.752 165.418  0.00  0.00    +0.000 C 
ATOM      6  C   UNL     1      40.808  -8.543 165.268  0.00  0.00    +0.000 C 
ATOM      7  C   UNL     1      42.451  -5.646 167.477  0.00  0.00    +0.000 C 
ATOM      8  N   UNL     1      42.066  -5.310 165.008  0.00  0.00    +0.000 N 
ATOM      9  C   UNL     1      41.202  -5.024 163.980  0.00  0.00    +0.000 A 
ATOM     10  C   UNL     1      40.019  -5.689 163.645  0.00  0.00    +0.000 A 
ATOM     11  C   UNL     1      41.531  -3.995 163.088  0.00  0.00    +0.000 A 
ATOM     12  N   UNL     1      39.530  -6.794 164.273  0.00  0.00    +0.000 N 
ATOM     13  C   UNL     1      39.396  -5.242 162.470  0.00  0.00    +0.000 A 
ATOM     14  C   UNL     1      38.518  -7.171 163.367  0.00  0.00    +0.000 A 
ATOM     15  C   UNL     1      38.395  -6.221 162.288  0.00  0.00    +0.000 A 
ATOM     16  C   UNL     1      37.668  -8.287 163.441  0.00  0.00    +0.000 A 
ATOM     17  C   UNL     1      37.408  -6.457 161.311  0.00  0.00    +0.000 A 
ATOM     18  C   UNL     1      36.574  -7.570 161.401  0.00  0.00    +0.000 A 
ATOM     19  C   UNL     1      36.706  -8.469 162.449  0.00  0.00    +0.000 A 
ATOM     20  C   UNL     1      39.712  -4.203 161.573  0.00  0.00    +0.000 A 
ATOM     21  C   UNL     1      40.901  -3.509 161.934  0.00  0.00    +0.000 A 
ATOM     22  C   UNL     1      39.169  -3.670 160.345  0.00  0.00    +0.000 C 
ATOM     23  C   UNL     1      41.130  -2.479 160.885  0.00  0.00    +0.000 C 
ATOM     24  N   UNL     1      40.092  -2.661 160.040  0.00  0.00    +0.000 N 
ATOM     25  H   UNL     1      39.965  -2.096 159.212  0.00  0.00    +0.000 HD
ATOM     26  O   UNL     1      38.189  -3.936 159.665  0.00  0.00    +0.000 OA
ATOM     27  C   UNL     1      42.779  -3.567 163.569  0.00  0.00    +0.000 A 
ATOM     28  C   UNL     1      43.101  -4.378 164.718  0.00  0.00    +0.000 A 
ATOM     29  C   UNL     1      43.706  -2.589 163.154  0.00  0.00    +0.000 A 
ATOM     30  C   UNL     1      44.317  -4.175 165.393  0.00  0.00    +0.000 A 
ATOM     31  C   UNL     1      45.201  -3.193 164.947  0.00  0.00    +0.000 A 
ATOM     32  C   UNL     1      44.902  -2.409 163.845  0.00  0.00    +0.000 A 
ENDROOT
BRANCH   5  33
ATOM     33  N   UNL     1      42.890  -9.905 164.965  0.00  0.00    +0.000 N 
ATOM     34  C   UNL     1      42.409 -10.465 163.722  0.00  0.00    +0.000 C 
ATOM     35  H   UNL     1      43.127 -10.580 165.696  0.00  0.00    +0.000 HD
ENDBRANCH   5  33
BRANCH   3  36
ATOM     36  O   UNL     1      44.173  -7.297 165.613  0.00  0.00    +0.000 OA
ATOM     37  C   UNL     1      44.977  -7.451 166.752  0.00  0.00    +0.000 C 
ENDBRANCH   3  36
TORSDOF 2
ENDMDL
MODEL 8
REMARK VINA RESULT:      -8.0     34.126     36.213
REMARK  Name = Staurosporine.pdbqt.pdb
REMARK  2 active torsions:
REMARK  status: ('A' for Active; 'I' for Inactive)
REMARK    1  A    between atoms: C_3  and  O_11
REMARK    2  A    between atoms: C_5  and  N_8
REMARK                            x       y       z     vdW  Elec       q    Type
REMARK                         _______ _______ _______ _____ _____    ______ ____
ROOT
ATOM      1  O   UNL     1      36.800 -22.680 170.053  0.00  0.00    +0.000 OA
ATOM      2  C   UNL     1      36.925 -23.978 170.696  0.00  0.00    +0.000 C 
ATOM      3  C   UNL     1      37.522 -25.089 169.809  0.00  0.00    +0.000 C 
ATOM      4  C   UNL     1      37.959 -22.271 169.414  0.00  0.00    +0.000 C 
ATOM      5  C   UNL     1      38.350 -24.704 168.669  0.00  0.00    +0.000 C 
ATOM      6  C   UNL     1      38.445 -23.303 168.583  0.00  0.00    +0.000 C 
ATOM      7  C   UNL     1      35.439 -24.378 170.987  0.00  0.00    +0.000 C 
ATOM      8  N   UNL     1      37.693 -23.778 171.947  0.00  0.00    +0.000 N 
ATOM      9  C   UNL     1      38.594 -22.812 172.317  0.00  0.00    +0.000 A 
ATOM     10  C   UNL     1      39.130 -21.792 171.525  0.00  0.00    +0.000 A 
ATOM     11  C   UNL     1      39.126 -22.845 173.613  0.00  0.00    +0.000 A 
ATOM     12  N   UNL     1      38.875 -21.604 170.200  0.00  0.00    +0.000 N 
ATOM     13  C   UNL     1      40.120 -21.014 172.144  0.00  0.00    +0.000 A 
ATOM     14  C   UNL     1      39.864 -20.651 169.886  0.00  0.00    +0.000 A 
ATOM     15  C   UNL     1      40.604 -20.251 171.059  0.00  0.00    +0.000 A 
ATOM     16  C   UNL     1      40.144 -20.081 168.633  0.00  0.00    +0.000 A 
ATOM     17  C   UNL     1      41.618 -19.286 170.903  0.00  0.00    +0.000 A 
ATOM     18  C   UNL     1      41.882 -18.733 169.651  0.00  0.00    +0.000 A 
ATOM     19  C   UNL     1      41.156 -19.127 168.537  0.00  0.00    +0.000 A 
ATOM     20  C   UNL     1      40.654 -21.033 173.448  0.00  0.00    +0.000 A 
ATOM     21  C   UNL     1      40.084 -22.053 174.260  0.00  0.00    +0.000 A 
ATOM     22  C   UNL     1      41.667 -20.310 174.181  0.00  0.00    +0.000 C 
ATOM     23  C   UNL     1      40.766 -21.979 175.580  0.00  0.00    +0.000 C 
ATOM     24  N   UNL     1      41.639 -20.961 175.422  0.00  0.00    +0.000 N 
ATOM     25  H   UNL     1      42.256 -20.660 176.162  0.00  0.00    +0.000 HD
ATOM     26  O   UNL     1      42.408 -19.376 173.909  0.00  0.00    +0.000 OA
ATOM     27  C   UNL     1      38.523 -23.990 174.156  0.00  0.00    +0.000 A 
ATOM     28  C   UNL     1      37.672 -24.556 173.137  0.00  0.00    +0.000 A 
ATOM     29  C   UNL     1      38.609 -24.646 175.402  0.00  0.00    +0.000 A 
ATOM     30  C   UNL     1      36.952 -25.733 173.407  0.00  0.00    +0.000 A 
ATOM     31  C   UNL     1      37.068 -26.344 174.656  0.00  0.00    +0.000 A 
ATOM     32  C   UNL     1      37.882 -25.810 175.641  0.00  0.00    +0.000 A 
ENDROOT
BRANCH   5  33
ATOM     33  N   UNL     1      39.124 -25.616 167.901  0.00  0.00    +0.000 N 
ATOM     34  C   UNL     1      38.498 -26.077 166.681  0.00  0.00    +0.000 C 
ATOM     35  H   UNL     1      39.616 -26.329 168.445  0.00  0.00    +0.000 HD
ENDBRANCH   5  33
BRANCH   3  36
ATOM     36  O   UNL     1      37.697 -26.312 170.420  0.00  0.00    +0.000 OA
ATOM     37  C   UNL     1      36.867 -27.297 169.863  0.00  0.00    +0.000 C 
ENDBRANCH   3  36
TORSDOF 2
ENDMDL
MODEL 9
REMARK VINA RESULT:      -8.0     33.309     35.887
REMARK  Name = Staurosporine.pdbqt.pdb
REMARK  2 active torsions:
REMARK  status: ('A' for Active; 'I' for Inactive)
REMARK    1  A    between atoms: C_3  and  O_11
REMARK    2  A    between atoms: C_5  and  N_8
REMARK                            x       y       z     vdW  Elec       q    Type
REMARK                         _______ _______ _______ _____ _____    ______ ____
ROOT
ATOM      1  O   UNL     1      38.883 -21.807 174.290  0.00  0.00    +0.000 OA
ATOM      2  C   UNL     1      40.180 -21.332 173.837  0.00  0.00    +0.000 C 
ATOM      3  C   UNL     1      41.369 -22.246 174.195  0.00  0.00    +0.000 C 
ATOM      4  C   UNL     1      38.640 -23.132 173.962  0.00  0.00    +0.000 C 
ATOM      5  C   UNL     1      41.109 -23.659 174.462  0.00  0.00    +0.000 C 
ATOM      6  C   UNL     1      39.734 -23.935 174.345  0.00  0.00    +0.000 C 
ATOM      7  C   UNL     1      40.372 -20.000 174.640  0.00  0.00    +0.000 C 
ATOM      8  N   UNL     1      40.076 -21.083 172.381  0.00  0.00    +0.000 N 
ATOM      9  C   UNL     1      39.237 -21.602 171.427  0.00  0.00    +0.000 A 
ATOM     10  C   UNL     1      38.306 -22.635 171.575  0.00  0.00    +0.000 A 
ATOM     11  C   UNL     1      39.331 -21.125 170.113  0.00  0.00    +0.000 A 
ATOM     12  N   UNL     1      38.096 -23.352 172.713  0.00  0.00    +0.000 N 
ATOM     13  C   UNL     1      37.665 -23.032 170.392  0.00  0.00    +0.000 A 
ATOM     14  C   UNL     1      37.289 -24.392 172.211  0.00  0.00    +0.000 A 
ATOM     15  C   UNL     1      36.983 -24.195 170.814  0.00  0.00    +0.000 A 
ATOM     16  C   UNL     1      36.773 -25.496 172.910  0.00  0.00    +0.000 A 
ATOM     17  C   UNL     1      36.167 -25.149 170.177  0.00  0.00    +0.000 A 
ATOM     18  C   UNL     1      35.664 -26.238 170.887  0.00  0.00    +0.000 A 
ATOM     19  C   UNL     1      35.966 -26.407 172.230  0.00  0.00    +0.000 A 
ATOM     20  C   UNL     1      37.745 -22.552 169.070  0.00  0.00    +0.000 A 
ATOM     21  C   UNL     1      38.671 -21.482 168.929  0.00  0.00    +0.000 A 
ATOM     22  C   UNL     1      37.160 -22.886 167.792  0.00  0.00    +0.000 C 
ATOM     23  C   UNL     1      38.680 -21.110 167.489  0.00  0.00    +0.000 C 
ATOM     24  N   UNL     1      37.791 -21.967 166.942  0.00  0.00    +0.000 N 
ATOM     25  H   UNL     1      37.570 -21.959 165.957  0.00  0.00    +0.000 HD
ATOM     26  O   UNL     1      36.337 -23.712 167.424  0.00  0.00    +0.000 OA
ATOM     27  C   UNL     1      40.380 -20.195 170.205  0.00  0.00    +0.000 A 
ATOM     28  C   UNL     1      40.834 -20.190 171.575  0.00  0.00    +0.000 A 
ATOM     29  C   UNL     1      41.031 -19.357 169.277  0.00  0.00    +0.000 A 
ATOM     30  C   UNL     1      41.900 -19.354 171.951  0.00  0.00    +0.000 A 
ATOM     31  C   UNL     1      42.511 -18.540 170.997  0.00  0.00    +0.000 A 
ATOM     32  C   UNL     1      42.084 -18.538 169.680  0.00  0.00    +0.000 A 
ENDROOT
BRANCH   5  33
ATOM     33  N   UNL     1      42.125 -24.644 174.598  0.00  0.00    +0.000 N 
ATOM     34  C   UNL     1      41.707 -25.871 175.241  0.00  0.00    +0.000 C 
ATOM     35  H   UNL     1      43.040 -24.285 174.877  0.00  0.00    +0.000 HD
ENDBRANCH   5  33
BRANCH   3  36
ATOM     36  O   UNL     1      42.600 -21.837 173.729  0.00  0.00    +0.000 OA
ATOM     37  C   UNL     1      43.068 -22.662 172.695  0.00  0.00    +0.000 C 
ENDBRANCH   3  36
TORSDOF 2
ENDMDL
