MODEL 1
REMARK VINA RESULT:      -8.1      0.000      0.000
REMARK  Name = Testosterone.pdbqt.pdb
REMARK  1 active torsions:
REMARK  status: ('A' for Active; 'I' for Inactive)
REMARK    1  A    between atoms: C_9  and  O_21
REMARK                            x       y       z     vdW  Elec       q    Type
REMARK                         _______ _______ _______ _____ _____    ______ ____
ROOT
ATOM      1  O   UNL     1      18.433   0.928 196.040  0.00  0.00    +0.000 OA
ATOM      2  C   UNL     1      20.629   3.147 189.050  0.00  0.00    +0.000 C 
ATOM      3  C   UNL     1      22.113   3.674 188.754  0.00  0.00    +0.000 C 
ATOM      4  C   UNL     1      20.350   2.202 190.150  0.00  0.00    +0.000 C 
ATOM      5  C   UNL     1      21.278   1.866 191.285  0.00  0.00    +0.000 C 
ATOM      6  C   UNL     1      20.972   0.802 192.362  0.00  0.00    +0.000 C 
ATOM      7  C   UNL     1      22.874   3.434 189.981  0.00  0.00    +0.000 C 
ATOM      8  C   UNL     1      22.509   2.569 191.163  0.00  0.00    +0.000 C 
ATOM      9  C   UNL     1      21.914   5.183 188.474  0.00  0.00    +0.000 C 
ATOM     10  C   UNL     1      19.749   4.256 188.829  0.00  0.00    +0.000 C 
ATOM     11  C   UNL     1      19.069   1.625 190.308  0.00  0.00    +0.000 C 
ATOM     12  C   UNL     1      20.532   5.511 188.533  0.00  0.00    +0.000 C 
ATOM     13  C   UNL     1      19.373   0.407 192.530  0.00  0.00    +0.000 C 
ATOM     14  C   UNL     1      18.562   0.764 191.424  0.00  0.00    +0.000 C 
ATOM     15  C   UNL     1      22.701   2.958 187.512  0.00  0.00    +0.000 C 
ATOM     16  C   UNL     1      21.332   1.321 193.724  0.00  0.00    +0.000 C 
ATOM     17  C   UNL     1      21.731  -0.512 192.030  0.00  0.00    +0.000 C 
ATOM     18  C   UNL     1      20.552   1.393 195.057  0.00  0.00    +0.000 C 
ATOM     19  C   UNL     1      18.846   0.488 193.734  0.00  0.00    +0.000 C 
ATOM     20  C   UNL     1      19.182   0.921 195.082  0.00  0.00    +0.000 C 
ENDROOT
BRANCH   9  21
ATOM     21  O   UNL     1      22.765   5.899 187.652  0.00  0.00    +0.000 OA
ATOM     22  H   UNL     1      23.291   6.546 188.161  0.00  0.00    +0.000 HD
ENDBRANCH   9  21
TORSDOF 1
ENDMDL
MODEL 2
REMARK VINA RESULT:      -6.6     33.138     34.905
REMARK  Name = Testosterone.pdbqt.pdb
REMARK  1 active torsions:
REMARK  status: ('A' for Active; 'I' for Inactive)
REMARK    1  A    between atoms: C_9  and  O_21
REMARK                            x       y       z     vdW  Elec       q    Type
REMARK                         _______ _______ _______ _____ _____    ______ ____
ROOT
ATOM      1  O   UNL     1      46.643  -5.211 165.647  0.00  0.00    +0.000 OA
ATOM      2  C   UNL     1      39.282  -6.467 163.957  0.00  0.00    +0.000 C 
ATOM      3  C   UNL     1      38.645  -7.937 163.981  0.00  0.00    +0.000 C 
ATOM      4  C   UNL     1      40.441  -6.113 164.801  0.00  0.00    +0.000 C 
ATOM      5  C   UNL     1      41.345  -7.081 165.514  0.00  0.00    +0.000 C 
ATOM      6  C   UNL     1      42.490  -6.655 166.459  0.00  0.00    +0.000 C 
ATOM      7  C   UNL     1      39.674  -8.809 164.551  0.00  0.00    +0.000 C 
ATOM      8  C   UNL     1      40.929  -8.423 165.295  0.00  0.00    +0.000 C 
ATOM      9  C   UNL     1      38.379  -8.244 162.487  0.00  0.00    +0.000 C 
ATOM     10  C   UNL     1      39.239  -6.025 162.594  0.00  0.00    +0.000 C 
ATOM     11  C   UNL     1      40.899  -4.778 164.888  0.00  0.00    +0.000 C 
ATOM     12  C   UNL     1      38.741  -7.125 161.689  0.00  0.00    +0.000 C 
ATOM     13  C   UNL     1      43.025  -5.100 166.262  0.00  0.00    +0.000 C 
ATOM     14  C   UNL     1      42.124  -4.252 165.573  0.00  0.00    +0.000 C 
ATOM     15  C   UNL     1      37.321  -7.936 164.786  0.00  0.00    +0.000 C 
ATOM     16  C   UNL     1      43.721  -7.468 166.186  0.00  0.00    +0.000 C 
ATOM     17  C   UNL     1      42.028  -6.791 167.937  0.00  0.00    +0.000 C 
ATOM     18  C   UNL     1      45.194  -7.081 165.918  0.00  0.00    +0.000 C 
ATOM     19  C   UNL     1      44.315  -4.917 166.069  0.00  0.00    +0.000 C 
ATOM     20  C   UNL     1      45.540  -5.675 165.866  0.00  0.00    +0.000 C 
ENDROOT
BRANCH   9  21
ATOM     21  O   UNL     1      37.368  -9.093 162.078  0.00  0.00    +0.000 OA
ATOM     22  H   UNL     1      37.711  -9.802 161.500  0.00  0.00    +0.000 HD
ENDBRANCH   9  21
TORSDOF 1
ENDMDL
MODEL 3
REMARK VINA RESULT:      -6.5     20.949     24.759
REMARK  Name = Testosterone.pdbqt.pdb
REMARK  1 active torsions:
REMARK  status: ('A' for Active; 'I' for Inactive)
REMARK    1  A    between atoms: C_9  and  O_21
REMARK                            x       y       z     vdW  Elec       q    Type
REMARK                         _______ _______ _______ _____ _____    ______ ____
ROOT
ATOM      1  O   UNL     1      20.123   7.599 164.932  0.00  0.00    +0.000 OA
ATOM      2  C   UNL     1      24.682  10.506 170.352  0.00  0.00    +0.000 C 
ATOM      3  C   UNL     1      26.270  10.291 170.331  0.00  0.00    +0.000 C 
ATOM      4  C   UNL     1      23.884  10.496 169.110  0.00  0.00    +0.000 C 
ATOM      5  C   UNL     1      24.342   9.996 167.767  0.00  0.00    +0.000 C 
ATOM      6  C   UNL     1      23.498  10.092 166.477  0.00  0.00    +0.000 C 
ATOM      7  C   UNL     1      26.569   9.659 169.044  0.00  0.00    +0.000 C 
ATOM      8  C   UNL     1      25.687   9.537 167.826  0.00  0.00    +0.000 C 
ATOM      9  C   UNL     1      26.524   9.339 171.524  0.00  0.00    +0.000 C 
ATOM     10  C   UNL     1      24.192   9.821 171.512  0.00  0.00    +0.000 C 
ATOM     11  C   UNL     1      22.512  10.838 169.122  0.00  0.00    +0.000 C 
ATOM     12  C   UNL     1      25.303   9.065 172.198  0.00  0.00    +0.000 C 
ATOM     13  C   UNL     1      21.871  10.292 166.712  0.00  0.00    +0.000 C 
ATOM     14  C   UNL     1      21.517  10.756 168.004  0.00  0.00    +0.000 C 
ATOM     15  C   UNL     1      26.998  11.641 170.540  0.00  0.00    +0.000 C 
ATOM     16  C   UNL     1      23.567   8.803 165.712  0.00  0.00    +0.000 C 
ATOM     17  C   UNL     1      23.983  11.294 165.622  0.00  0.00    +0.000 C 
ATOM     18  C   UNL     1      22.481   7.879 165.116  0.00  0.00    +0.000 C 
ATOM     19  C   UNL     1      21.058   9.444 166.118  0.00  0.00    +0.000 C 
ATOM     20  C   UNL     1      21.089   8.228 165.318  0.00  0.00    +0.000 C 
ENDROOT
BRANCH   9  21
ATOM     21  O   UNL     1      27.719   9.334 172.220  0.00  0.00    +0.000 OA
ATOM     22  H   UNL     1      28.069  10.239 172.333  0.00  0.00    +0.000 HD
ENDBRANCH   9  21
TORSDOF 1
ENDMDL
MODEL 4
REMARK VINA RESULT:      -6.5     23.468     25.117
REMARK  Name = Testosterone.pdbqt.pdb
REMARK  1 active torsions:
REMARK  status: ('A' for Active; 'I' for Inactive)
REMARK    1  A    between atoms: C_9  and  O_21
REMARK                            x       y       z     vdW  Elec       q    Type
REMARK                         _______ _______ _______ _____ _____    ______ ____
ROOT
ATOM      1  O   UNL     1      10.512 -14.401 181.715  0.00  0.00    +0.000 OA
ATOM      2  C   UNL     1      15.640 -18.896 178.236  0.00  0.00    +0.000 C 
ATOM      3  C   UNL     1      15.210 -19.984 177.141  0.00  0.00    +0.000 C 
ATOM      4  C   UNL     1      14.839 -17.678 178.470  0.00  0.00    +0.000 C 
ATOM      5  C   UNL     1      13.432 -17.439 177.997  0.00  0.00    +0.000 C 
ATOM      6  C   UNL     1      12.671 -16.109 178.192  0.00  0.00    +0.000 C 
ATOM      7  C   UNL     1      13.789 -19.747 176.879  0.00  0.00    +0.000 C 
ATOM      8  C   UNL     1      12.949 -18.549 177.250  0.00  0.00    +0.000 C 
ATOM      9  C   UNL     1      15.457 -21.336 177.853  0.00  0.00    +0.000 C 
ATOM     10  C   UNL     1      16.162 -19.626 179.353  0.00  0.00    +0.000 C 
ATOM     11  C   UNL     1      15.305 -16.653 179.326  0.00  0.00    +0.000 C 
ATOM     12  C   UNL     1      16.002 -21.111 179.147  0.00  0.00    +0.000 C 
ATOM     13  C   UNL     1      13.259 -15.129 179.391  0.00  0.00    +0.000 C 
ATOM     14  C   UNL     1      14.586 -15.423 179.790  0.00  0.00    +0.000 C 
ATOM     15  C   UNL     1      16.099 -19.857 175.879  0.00  0.00    +0.000 C 
ATOM     16  C   UNL     1      11.263 -16.375 178.640  0.00  0.00    +0.000 C 
ATOM     17  C   UNL     1      12.708 -15.285 176.875  0.00  0.00    +0.000 C 
ATOM     18  C   UNL     1      10.417 -15.831 179.813  0.00  0.00    +0.000 C 
ATOM     19  C   UNL     1      12.414 -14.716 180.313  0.00  0.00    +0.000 C 
ATOM     20  C   UNL     1      11.034 -14.901 180.738  0.00  0.00    +0.000 C 
ENDROOT
BRANCH   9  21
ATOM     21  O   UNL     1      15.768 -22.489 177.157  0.00  0.00    +0.000 OA
ATOM     22  H   UNL     1      16.595 -22.892 177.487  0.00  0.00    +0.000 HD
ENDBRANCH   9  21
TORSDOF 1
ENDMDL
MODEL 5
REMARK VINA RESULT:      -6.5     32.284     35.978
REMARK  Name = Testosterone.pdbqt.pdb
REMARK  1 active torsions:
REMARK  status: ('A' for Active; 'I' for Inactive)
REMARK    1  A    between atoms: C_9  and  O_21
REMARK                            x       y       z     vdW  Elec       q    Type
REMARK                         _______ _______ _______ _____ _____    ______ ____
ROOT
ATOM      1  O   UNL     1      40.122 -12.413 160.713  0.00  0.00    +0.000 OA
ATOM      2  C   UNL     1      41.018  -6.226 165.132  0.00  0.00    +0.000 C 
ATOM      3  C   UNL     1      41.926  -6.251 166.453  0.00  0.00    +0.000 C 
ATOM      4  C   UNL     1      41.280  -7.135 163.998  0.00  0.00    +0.000 C 
ATOM      5  C   UNL     1      42.158  -8.355 164.026  0.00  0.00    +0.000 C 
ATOM      6  C   UNL     1      42.470  -9.222 162.785  0.00  0.00    +0.000 C 
ATOM      7  C   UNL     1      42.608  -7.546 166.444  0.00  0.00    +0.000 C 
ATOM      8  C   UNL     1      42.748  -8.530 165.308  0.00  0.00    +0.000 C 
ATOM      9  C   UNL     1      40.898  -6.138 167.604  0.00  0.00    +0.000 C 
ATOM     10  C   UNL     1      39.670  -6.007 165.567  0.00  0.00    +0.000 C 
ATOM     11  C   UNL     1      40.574  -7.003 162.780  0.00  0.00    +0.000 C 
ATOM     12  C   UNL     1      39.585  -6.007 167.073  0.00  0.00    +0.000 C 
ATOM     13  C   UNL     1      41.399  -9.070 161.532  0.00  0.00    +0.000 C 
ATOM     14  C   UNL     1      40.601  -7.900 161.581  0.00  0.00    +0.000 C 
ATOM     15  C   UNL     1      42.895  -5.042 166.461  0.00  0.00    +0.000 C 
ATOM     16  C   UNL     1      42.374 -10.679 163.130  0.00  0.00    +0.000 C 
ATOM     17  C   UNL     1      43.873  -8.854 162.229  0.00  0.00    +0.000 C 
ATOM     18  C   UNL     1      41.622 -11.862 162.480  0.00  0.00    +0.000 C 
ATOM     19  C   UNL     1      40.853 -10.170 161.057  0.00  0.00    +0.000 C 
ATOM     20  C   UNL     1      40.789 -11.599 161.323  0.00  0.00    +0.000 C 
ENDROOT
BRANCH   9  21
ATOM     21  O   UNL     1      41.216  -5.566 168.822  0.00  0.00    +0.000 OA
ATOM     22  H   UNL     1      41.991  -6.002 169.228  0.00  0.00    +0.000 HD
ENDBRANCH   9  21
TORSDOF 1
ENDMDL
MODEL 6
REMARK VINA RESULT:      -6.3     21.900     26.381
REMARK  Name = Testosterone.pdbqt.pdb
REMARK  1 active torsions:
REMARK  status: ('A' for Active; 'I' for Inactive)
REMARK    1  A    between atoms: C_9  and  O_21
REMARK                            x       y       z     vdW  Elec       q    Type
REMARK                         _______ _______ _______ _____ _____    ______ ____
ROOT
ATOM      1  O   UNL     1      25.455  12.647 162.328  0.00  0.00    +0.000 OA
ATOM      2  C   UNL     1      26.392  11.124 169.772  0.00  0.00    +0.000 C 
ATOM      3  C   UNL     1      25.918   9.738 170.421  0.00  0.00    +0.000 C 
ATOM      4  C   UNL     1      26.769  11.222 168.348  0.00  0.00    +0.000 C 
ATOM      5  C   UNL     1      26.478  10.201 167.283  0.00  0.00    +0.000 C 
ATOM      6  C   UNL     1      26.974  10.310 165.825  0.00  0.00    +0.000 C 
ATOM      7  C   UNL     1      25.516   8.889 169.298  0.00  0.00    +0.000 C 
ATOM      8  C   UNL     1      25.793   9.078 167.827  0.00  0.00    +0.000 C 
ATOM      9  C   UNL     1      24.717  10.143 171.309  0.00  0.00    +0.000 C 
ATOM     10  C   UNL     1      25.582  12.149 170.362  0.00  0.00    +0.000 C 
ATOM     11  C   UNL     1      27.330  12.409 167.822  0.00  0.00    +0.000 C 
ATOM     12  C   UNL     1      24.525  11.551 171.256  0.00  0.00    +0.000 C 
ATOM     13  C   UNL     1      27.397  11.834 165.336  0.00  0.00    +0.000 C 
ATOM     14  C   UNL     1      27.646  12.742 166.395  0.00  0.00    +0.000 C 
ATOM     15  C   UNL     1      27.055   9.130 171.279  0.00  0.00    +0.000 C 
ATOM     16  C   UNL     1      25.872   9.949 164.871  0.00  0.00    +0.000 C 
ATOM     17  C   UNL     1      28.223   9.408 165.627  0.00  0.00    +0.000 C 
ATOM     18  C   UNL     1      25.286  10.660 163.630  0.00  0.00    +0.000 C 
ATOM     19  C   UNL     1      26.837  12.304 164.240  0.00  0.00    +0.000 C 
ATOM     20  C   UNL     1      25.820  11.956 163.260  0.00  0.00    +0.000 C 
ENDROOT
BRANCH   9  21
ATOM     21  O   UNL     1      24.368   9.435 172.444  0.00  0.00    +0.000 OA
ATOM     22  H   UNL     1      25.155   9.059 172.885  0.00  0.00    +0.000 HD
ENDBRANCH   9  21
TORSDOF 1
ENDMDL
MODEL 7
REMARK VINA RESULT:      -6.0     33.564     35.868
REMARK  Name = Testosterone.pdbqt.pdb
REMARK  1 active torsions:
REMARK  status: ('A' for Active; 'I' for Inactive)
REMARK    1  A    between atoms: C_9  and  O_21
REMARK                            x       y       z     vdW  Elec       q    Type
REMARK                         _______ _______ _______ _____ _____    ______ ____
ROOT
ATOM      1  O   UNL     1      41.273 -10.633 163.200  0.00  0.00    +0.000 OA
ATOM      2  C   UNL     1      45.131  -4.468 165.592  0.00  0.00    +0.000 C 
ATOM      3  C   UNL     1      44.744  -2.988 165.117  0.00  0.00    +0.000 C 
ATOM      4  C   UNL     1      44.126  -5.549 165.650  0.00  0.00    +0.000 C 
ATOM      5  C   UNL     1      42.765  -5.526 165.012  0.00  0.00    +0.000 C 
ATOM      6  C   UNL     1      41.716  -6.648 165.179  0.00  0.00    +0.000 C 
ATOM      7  C   UNL     1      43.487  -3.122 164.379  0.00  0.00    +0.000 C 
ATOM      8  C   UNL     1      42.536  -4.293 164.341  0.00  0.00    +0.000 C 
ATOM      9  C   UNL     1      45.922  -2.580 164.200  0.00  0.00    +0.000 C 
ATOM     10  C   UNL     1      46.433  -4.741 165.060  0.00  0.00    +0.000 C 
ATOM     11  C   UNL     1      44.440  -6.807 166.214  0.00  0.00    +0.000 C 
ATOM     12  C   UNL     1      46.895  -3.616 164.167  0.00  0.00    +0.000 C 
ATOM     13  C   UNL     1      42.320  -8.113 165.657  0.00  0.00    +0.000 C 
ATOM     14  C   UNL     1      43.610  -8.054 166.239  0.00  0.00    +0.000 C 
ATOM     15  C   UNL     1      44.645  -2.040 166.339  0.00  0.00    +0.000 C 
ATOM     16  C   UNL     1      41.078  -6.965 163.858  0.00  0.00    +0.000 C 
ATOM     17  C   UNL     1      40.661  -6.225 166.238  0.00  0.00    +0.000 C 
ATOM     18  C   UNL     1      40.851  -8.291 163.096  0.00  0.00    +0.000 C 
ATOM     19  C   UNL     1      42.021  -9.166 164.924  0.00  0.00    +0.000 C 
ATOM     20  C   UNL     1      41.353  -9.519 163.680  0.00  0.00    +0.000 C 
ENDROOT
BRANCH   9  21
ATOM     21  O   UNL     1      46.304  -1.261 164.034  0.00  0.00    +0.000 OA
ATOM     22  H   UNL     1      46.773  -1.131 163.187  0.00  0.00    +0.000 HD
ENDBRANCH   9  21
TORSDOF 1
ENDMDL
MODEL 8
REMARK VINA RESULT:      -6.0     31.692     34.444
REMARK  Name = Testosterone.pdbqt.pdb
REMARK  1 active torsions:
REMARK  status: ('A' for Active; 'I' for Inactive)
REMARK    1  A    between atoms: C_9  and  O_21
REMARK                            x       y       z     vdW  Elec       q    Type
REMARK                         _______ _______ _______ _____ _____    ______ ____
ROOT
ATOM      1  O   UNL     1      58.428  -2.309 181.910  0.00  0.00    +0.000 OA
ATOM      2  C   UNL     1      50.802  -2.964 182.048  0.00  0.00    +0.000 C 
ATOM      3  C   UNL     1      49.954  -3.291 180.728  0.00  0.00    +0.000 C 
ATOM      4  C   UNL     1      52.205  -3.399 182.192  0.00  0.00    +0.000 C 
ATOM      5  C   UNL     1      53.098  -3.890 181.086  0.00  0.00    +0.000 C 
ATOM      6  C   UNL     1      54.532  -4.419 181.306  0.00  0.00    +0.000 C 
ATOM      7  C   UNL     1      50.938  -3.601 179.689  0.00  0.00    +0.000 C 
ATOM      8  C   UNL     1      52.407  -3.909 179.843  0.00  0.00    +0.000 C 
ATOM      9  C   UNL     1      49.198  -1.971 180.444  0.00  0.00    +0.000 C 
ATOM     10  C   UNL     1      50.425  -1.644 182.459  0.00  0.00    +0.000 C 
ATOM     11  C   UNL     1      52.895  -3.241 183.416  0.00  0.00    +0.000 C 
ATOM     12  C   UNL     1      49.490  -1.015 181.455  0.00  0.00    +0.000 C 
ATOM     13  C   UNL     1      55.247  -3.951 182.725  0.00  0.00    +0.000 C 
ATOM     14  C   UNL     1      54.342  -3.492 183.714  0.00  0.00    +0.000 C 
ATOM     15  C   UNL     1      48.959  -4.446 181.001  0.00  0.00    +0.000 C 
ATOM     16  C   UNL     1      55.460  -3.861 180.266  0.00  0.00    +0.000 C 
ATOM     17  C   UNL     1      54.525  -5.973 181.295  0.00  0.00    +0.000 C 
ATOM     18  C   UNL     1      56.825  -3.142 180.358  0.00  0.00    +0.000 C 
ATOM     19  C   UNL     1      56.428  -3.373 182.653  0.00  0.00    +0.000 C 
ATOM     20  C   UNL     1      57.381  -2.879 181.670  0.00  0.00    +0.000 C 
ENDROOT
BRANCH   9  21
ATOM     21  O   UNL     1      47.977  -1.946 179.795  0.00  0.00    +0.000 OA
ATOM     22  H   UNL     1      47.236  -2.012 180.429  0.00  0.00    +0.000 HD
ENDBRANCH   9  21
TORSDOF 1
ENDMDL
MODEL 9
REMARK VINA RESULT:      -5.9     11.789     13.573
REMARK  Name = Testosterone.pdbqt.pdb
REMARK  1 active torsions:
REMARK  status: ('A' for Active; 'I' for Inactive)
REMARK    1  A    between atoms: C_9  and  O_21
REMARK                            x       y       z     vdW  Elec       q    Type
REMARK                         _______ _______ _______ _____ _____    ______ ____
ROOT
ATOM      1  O   UNL     1       4.536  -0.300 193.351  0.00  0.00    +0.000 OA
ATOM      2  C   UNL     1       9.306  -3.508 188.295  0.00  0.00    +0.000 C 
ATOM      3  C   UNL     1      10.045  -2.649 187.162  0.00  0.00    +0.000 C 
ATOM      4  C   UNL     1       8.891  -2.903 189.576  0.00  0.00    +0.000 C 
ATOM      5  C   UNL     1       8.802  -1.431 189.872  0.00  0.00    +0.000 C 
ATOM      6  C   UNL     1       8.449  -0.850 191.259  0.00  0.00    +0.000 C 
ATOM      7  C   UNL     1       9.755  -1.248 187.471  0.00  0.00    +0.000 C 
ATOM      8  C   UNL     1       9.198  -0.659 188.745  0.00  0.00    +0.000 C 
ATOM      9  C   UNL     1       9.364  -3.113 185.851  0.00  0.00    +0.000 C 
ATOM     10  C   UNL     1       8.417  -4.403 187.615  0.00  0.00    +0.000 C 
ATOM     11  C   UNL     1       8.380  -3.699 190.627  0.00  0.00    +0.000 C 
ATOM     12  C   UNL     1       8.409  -4.128 186.131  0.00  0.00    +0.000 C 
ATOM     13  C   UNL     1       7.666  -1.891 192.281  0.00  0.00    +0.000 C 
ATOM     14  C   UNL     1       7.788  -3.259 191.932  0.00  0.00    +0.000 C 
ATOM     15  C   UNL     1      11.558  -2.976 187.140  0.00  0.00    +0.000 C 
ATOM     16  C   UNL     1       7.468   0.277 191.117  0.00  0.00    +0.000 C 
ATOM     17  C   UNL     1       9.746  -0.395 191.982  0.00  0.00    +0.000 C 
ATOM     18  C   UNL     1       6.113   0.578 191.798  0.00  0.00    +0.000 C 
ATOM     19  C   UNL     1       6.531  -1.489 192.813  0.00  0.00    +0.000 C 
ATOM     20  C   UNL     1       5.589  -0.381 192.749  0.00  0.00    +0.000 C 
ENDROOT
BRANCH   9  21
ATOM     21  O   UNL     1      10.018  -3.089 184.633  0.00  0.00    +0.000 OA
ATOM     22  H   UNL     1      10.939  -2.778 184.730  0.00  0.00    +0.000 HD
ENDBRANCH   9  21
TORSDOF 1
ENDMDL
