MODEL 1
REMARK VINA RESULT:      -3.7      0.000      0.000
REMARK  Name = Tetrachloroethylene.pdbqt.pdb
REMARK  0 active torsions:
REMARK  status: ('A' for Active; 'I' for Inactive)
REMARK                            x       y       z     vdW  Elec       q    Type
REMARK                         _______ _______ _______ _____ _____    ______ ____
ROOT
ATOM      1 CL   UNL     1      19.636   5.105 188.772  0.00  0.00    +0.000 Cl
ATOM      2 CL   UNL     1      22.385   5.876 188.124  0.00  0.00    +0.000 Cl
ATOM      3 CL   UNL     1      22.285   4.023 185.495  0.00  0.00    +0.000 Cl
ATOM      4 CL   UNL     1      19.536   3.252 186.143  0.00  0.00    +0.000 Cl
ATOM      5  C   UNL     1      20.981   4.951 187.683  0.00  0.00    +0.000 C 
ATOM      6  C   UNL     1      20.940   4.177 186.584  0.00  0.00    +0.000 C 
ENDROOT
TORSDOF 0
ENDMDL
MODEL 2
REMARK VINA RESULT:      -3.7      0.095      2.392
REMARK  Name = Tetrachloroethylene.pdbqt.pdb
REMARK  0 active torsions:
REMARK  status: ('A' for Active; 'I' for Inactive)
REMARK                            x       y       z     vdW  Elec       q    Type
REMARK                         _______ _______ _______ _____ _____    ______ ____
ROOT
ATOM      1 CL   UNL     1      22.308   5.874 188.059  0.00  0.00    +0.000 Cl
ATOM      2 CL   UNL     1      19.593   5.027 188.754  0.00  0.00    +0.000 Cl
ATOM      3 CL   UNL     1      19.485   3.198 186.108  0.00  0.00    +0.000 Cl
ATOM      4 CL   UNL     1      22.201   4.045 185.413  0.00  0.00    +0.000 Cl
ATOM      5  C   UNL     1      20.919   4.918 187.636  0.00  0.00    +0.000 C 
ATOM      6  C   UNL     1      20.874   4.154 186.531  0.00  0.00    +0.000 C 
ENDROOT
TORSDOF 0
ENDMDL
MODEL 3
REMARK VINA RESULT:      -3.7      0.146      2.738
REMARK  Name = Tetrachloroethylene.pdbqt.pdb
REMARK  0 active torsions:
REMARK  status: ('A' for Active; 'I' for Inactive)
REMARK                            x       y       z     vdW  Elec       q    Type
REMARK                         _______ _______ _______ _____ _____    ______ ____
ROOT
ATOM      1 CL   UNL     1      19.544   3.171 186.253  0.00  0.00    +0.000 Cl
ATOM      2 CL   UNL     1      22.336   3.819 185.656  0.00  0.00    +0.000 Cl
ATOM      3 CL   UNL     1      22.382   5.889 188.119  0.00  0.00    +0.000 Cl
ATOM      4 CL   UNL     1      19.590   5.241 188.716  0.00  0.00    +0.000 Cl
ATOM      5  C   UNL     1      20.953   4.098 186.672  0.00  0.00    +0.000 C 
ATOM      6  C   UNL     1      20.972   4.962 187.701  0.00  0.00    +0.000 C 
ENDROOT
TORSDOF 0
ENDMDL
MODEL 4
REMARK VINA RESULT:      -3.7      0.261      3.630
REMARK  Name = Tetrachloroethylene.pdbqt.pdb
REMARK  0 active torsions:
REMARK  status: ('A' for Active; 'I' for Inactive)
REMARK                            x       y       z     vdW  Elec       q    Type
REMARK                         _______ _______ _______ _____ _____    ______ ____
ROOT
ATOM      1 CL   UNL     1      22.342   3.695 185.808  0.00  0.00    +0.000 Cl
ATOM      2 CL   UNL     1      19.489   3.271 186.314  0.00  0.00    +0.000 Cl
ATOM      3 CL   UNL     1      19.589   5.438 188.691  0.00  0.00    +0.000 Cl
ATOM      4 CL   UNL     1      22.442   5.862 188.185  0.00  0.00    +0.000 Cl
ATOM      5  C   UNL     1      20.945   4.114 186.753  0.00  0.00    +0.000 C 
ATOM      6  C   UNL     1      20.986   5.019 187.746  0.00  0.00    +0.000 C 
ENDROOT
TORSDOF 0
ENDMDL
MODEL 5
REMARK VINA RESULT:      -3.7      1.116      3.119
REMARK  Name = Tetrachloroethylene.pdbqt.pdb
REMARK  0 active torsions:
REMARK  status: ('A' for Active; 'I' for Inactive)
REMARK                            x       y       z     vdW  Elec       q    Type
REMARK                         _______ _______ _______ _____ _____    ______ ____
ROOT
ATOM      1 CL   UNL     1      22.279   5.488 186.716  0.00  0.00    +0.000 Cl
ATOM      2 CL   UNL     1      21.146   3.466 184.927  0.00  0.00    +0.000 Cl
ATOM      3 CL   UNL     1      18.778   2.925 187.038  0.00  0.00    +0.000 Cl
ATOM      4 CL   UNL     1      19.911   4.947 188.827  0.00  0.00    +0.000 Cl
ATOM      5  C   UNL     1      21.023   4.320 186.436  0.00  0.00    +0.000 C 
ATOM      6  C   UNL     1      20.034   4.094 187.318  0.00  0.00    +0.000 C 
ENDROOT
TORSDOF 0
ENDMDL
MODEL 6
REMARK VINA RESULT:      -3.6      0.608      2.717
REMARK  Name = Tetrachloroethylene.pdbqt.pdb
REMARK  0 active torsions:
REMARK  status: ('A' for Active; 'I' for Inactive)
REMARK                            x       y       z     vdW  Elec       q    Type
REMARK                         _______ _______ _______ _____ _____    ______ ____
ROOT
ATOM      1 CL   UNL     1      19.645   3.237 186.018  0.00  0.00    +0.000 Cl
ATOM      2 CL   UNL     1      19.523   4.602 188.605  0.00  0.00    +0.000 Cl
ATOM      3 CL   UNL     1      22.476   5.786 188.119  0.00  0.00    +0.000 Cl
ATOM      4 CL   UNL     1      22.597   4.420 185.532  0.00  0.00    +0.000 Cl
ATOM      5  C   UNL     1      20.444   4.264 187.170  0.00  0.00    +0.000 C 
ATOM      6  C   UNL     1      21.677   4.758 186.967  0.00  0.00    +0.000 C 
ENDROOT
TORSDOF 0
ENDMDL
MODEL 7
REMARK VINA RESULT:      -3.6      0.639      2.541
REMARK  Name = Tetrachloroethylene.pdbqt.pdb
REMARK  0 active torsions:
REMARK  status: ('A' for Active; 'I' for Inactive)
REMARK                            x       y       z     vdW  Elec       q    Type
REMARK                         _______ _______ _______ _____ _____    ______ ____
ROOT
ATOM      1 CL   UNL     1      22.333   4.596 185.409  0.00  0.00    +0.000 Cl
ATOM      2 CL   UNL     1      22.386   5.844 188.057  0.00  0.00    +0.000 Cl
ATOM      3 CL   UNL     1      19.589   4.428 188.780  0.00  0.00    +0.000 Cl
ATOM      4 CL   UNL     1      19.536   3.180 186.132  0.00  0.00    +0.000 Cl
ATOM      5  C   UNL     1      21.545   4.808 186.944  0.00  0.00    +0.000 C 
ATOM      6  C   UNL     1      20.377   4.217 187.246  0.00  0.00    +0.000 C 
ENDROOT
TORSDOF 0
ENDMDL
MODEL 8
REMARK VINA RESULT:      -3.4      2.455      2.738
REMARK  Name = Tetrachloroethylene.pdbqt.pdb
REMARK  0 active torsions:
REMARK  status: ('A' for Active; 'I' for Inactive)
REMARK                            x       y       z     vdW  Elec       q    Type
REMARK                         _______ _______ _______ _____ _____    ______ ____
ROOT
ATOM      1 CL   UNL     1      20.876   1.476 189.065  0.00  0.00    +0.000 Cl
ATOM      2 CL   UNL     1      22.901   2.131 187.054  0.00  0.00    +0.000 Cl
ATOM      3 CL   UNL     1      20.659   3.605 185.277  0.00  0.00    +0.000 Cl
ATOM      4 CL   UNL     1      18.634   2.950 187.288  0.00  0.00    +0.000 Cl
ATOM      5  C   UNL     1      21.235   2.233 187.542  0.00  0.00    +0.000 C 
ATOM      6  C   UNL     1      20.299   2.849 186.800  0.00  0.00    +0.000 C 
ENDROOT
TORSDOF 0
ENDMDL
MODEL 9
REMARK VINA RESULT:      -3.4      2.495      3.571
REMARK  Name = Tetrachloroethylene.pdbqt.pdb
REMARK  0 active torsions:
REMARK  status: ('A' for Active; 'I' for Inactive)
REMARK                            x       y       z     vdW  Elec       q    Type
REMARK                         _______ _______ _______ _____ _____    ______ ____
ROOT
ATOM      1 CL   UNL     1      22.738   2.122 187.135  0.00  0.00    +0.000 Cl
ATOM      2 CL   UNL     1      20.797   1.436 189.217  0.00  0.00    +0.000 Cl
ATOM      3 CL   UNL     1      18.462   2.833 187.499  0.00  0.00    +0.000 Cl
ATOM      4 CL   UNL     1      20.403   3.519 185.417  0.00  0.00    +0.000 Cl
ATOM      5  C   UNL     1      21.088   2.186 187.676  0.00  0.00    +0.000 C 
ATOM      6  C   UNL     1      20.112   2.769 186.958  0.00  0.00    +0.000 C 
ENDROOT
TORSDOF 0
ENDMDL
