MODEL 1
REMARK VINA RESULT:      -7.9      0.000      0.000
REMARK  Name = Thalidomide.pdbqt.pdb
REMARK  1 active torsions:
REMARK  status: ('A' for Active; 'I' for Inactive)
REMARK    1  A    between atoms: N_3  and  C_12
REMARK                            x       y       z     vdW  Elec       q    Type
REMARK                         _______ _______ _______ _____ _____    ______ ____
ROOT
ATOM      1  O   UNL     1      17.029   1.294 190.848  0.00  0.00    +0.000 OA
ATOM      2  O   UNL     1      21.621   1.143 191.094  0.00  0.00    +0.000 OA
ATOM      3  N   UNL     1      19.293   0.858 191.332  0.00  0.00    +0.000 N 
ATOM      4  C   UNL     1      18.218   1.290 190.589  0.00  0.00    +0.000 C 
ATOM      5  C   UNL     1      20.476   1.140 190.682  0.00  0.00    +0.000 C 
ATOM      6  C   UNL     1      18.747   1.770 189.318  0.00  0.00    +0.000 A 
ATOM      7  C   UNL     1      20.121   1.660 189.367  0.00  0.00    +0.000 A 
ATOM      8  C   UNL     1      18.090   2.280 188.218  0.00  0.00    +0.000 A 
ATOM      9  C   UNL     1      20.929   2.066 188.326  0.00  0.00    +0.000 A 
ATOM     10  C   UNL     1      18.885   2.683 187.144  0.00  0.00    +0.000 A 
ATOM     11  C   UNL     1      20.286   2.578 187.197  0.00  0.00    +0.000 A 
ENDROOT
BRANCH   3  12
ATOM     12  C   UNL     1      19.210   0.339 192.600  0.00  0.00    +0.000 C 
ATOM     13  C   UNL     1      18.850   1.109 193.729  0.00  0.00    +0.000 C 
ATOM     14  C   UNL     1      18.927   0.564 195.122  0.00  0.00    +0.000 C 
ATOM     15  C   UNL     1      19.319  -0.787 195.394  0.00  0.00    +0.000 C 
ATOM     16  O   UNL     1      19.308  -1.251 196.522  0.00  0.00    +0.000 OA
ATOM     17  N   UNL     1      19.646  -1.500 194.243  0.00  0.00    +0.000 N 
ATOM     18  C   UNL     1      19.465  -1.135 192.901  0.00  0.00    +0.000 C 
ATOM     19  H   UNL     1      19.793  -2.487 194.392  0.00  0.00    +0.000 HD
ATOM     20  O   UNL     1      19.386  -2.002 192.036  0.00  0.00    +0.000 OA
ENDBRANCH   3  12
TORSDOF 1
ENDMDL
MODEL 2
REMARK VINA RESULT:      -7.9      0.138      2.011
REMARK  Name = Thalidomide.pdbqt.pdb
REMARK  1 active torsions:
REMARK  status: ('A' for Active; 'I' for Inactive)
REMARK    1  A    between atoms: N_3  and  C_12
REMARK                            x       y       z     vdW  Elec       q    Type
REMARK                         _______ _______ _______ _____ _____    ______ ____
ROOT
ATOM      1  O   UNL     1      21.687   0.745 190.955  0.00  0.00    +0.000 OA
ATOM      2  O   UNL     1      17.104   1.100 190.783  0.00  0.00    +0.000 OA
ATOM      3  N   UNL     1      19.376   0.916 191.379  0.00  0.00    +0.000 N 
ATOM      4  C   UNL     1      20.544   1.040 190.661  0.00  0.00    +0.000 C 
ATOM      5  C   UNL     1      18.293   1.288 190.612  0.00  0.00    +0.000 C 
ATOM      6  C   UNL     1      20.193   1.652 189.385  0.00  0.00    +0.000 A 
ATOM      7  C   UNL     1      18.824   1.821 189.363  0.00  0.00    +0.000 A 
ATOM      8  C   UNL     1      20.995   2.012 188.322  0.00  0.00    +0.000 A 
ATOM      9  C   UNL     1      18.165   2.348 188.272  0.00  0.00    +0.000 A 
ATOM     10  C   UNL     1      20.353   2.563 187.211  0.00  0.00    +0.000 A 
ATOM     11  C   UNL     1      18.957   2.728 187.186  0.00  0.00    +0.000 A 
ENDROOT
BRANCH   3  12
ATOM     12  C   UNL     1      19.286   0.375 192.638  0.00  0.00    +0.000 C 
ATOM     13  C   UNL     1      18.959   1.134 193.784  0.00  0.00    +0.000 C 
ATOM     14  C   UNL     1      19.028   0.560 195.166  0.00  0.00    +0.000 C 
ATOM     15  C   UNL     1      19.379  -0.808 195.409  0.00  0.00    +0.000 C 
ATOM     16  O   UNL     1      19.361  -1.293 196.528  0.00  0.00    +0.000 OA
ATOM     17  N   UNL     1      19.674  -1.508 194.242  0.00  0.00    +0.000 N 
ATOM     18  C   UNL     1      19.496  -1.111 192.908  0.00  0.00    +0.000 C 
ATOM     19  H   UNL     1      19.791  -2.502 194.370  0.00  0.00    +0.000 HD
ATOM     20  O   UNL     1      19.382  -1.959 192.027  0.00  0.00    +0.000 OA
ENDBRANCH   3  12
TORSDOF 1
ENDMDL
MODEL 3
REMARK VINA RESULT:      -7.8      3.490      7.407
REMARK  Name = Thalidomide.pdbqt.pdb
REMARK  1 active torsions:
REMARK  status: ('A' for Active; 'I' for Inactive)
REMARK    1  A    between atoms: N_3  and  C_12
REMARK                            x       y       z     vdW  Elec       q    Type
REMARK                         _______ _______ _______ _____ _____    ______ ____
ROOT
ATOM      1  O   UNL     1      21.980   3.238 190.036  0.00  0.00    +0.000 OA
ATOM      2  O   UNL     1      17.917   2.848 187.913  0.00  0.00    +0.000 OA
ATOM      3  N   UNL     1      20.182   3.076 188.522  0.00  0.00    +0.000 N 
ATOM      4  C   UNL     1      20.850   2.921 189.715  0.00  0.00    +0.000 C 
ATOM      5  C   UNL     1      18.874   2.658 188.639  0.00  0.00    +0.000 C 
ATOM      6  C   UNL     1      19.936   2.239 190.625  0.00  0.00    +0.000 A 
ATOM      7  C   UNL     1      18.740   2.062 189.963  0.00  0.00    +0.000 A 
ATOM      8  C   UNL     1      20.123   1.827 191.928  0.00  0.00    +0.000 A 
ATOM      9  C   UNL     1      17.646   1.474 190.564  0.00  0.00    +0.000 A 
ATOM     10  C   UNL     1      19.036   1.214 192.553  0.00  0.00    +0.000 A 
ATOM     11  C   UNL     1      17.813   1.040 191.881  0.00  0.00    +0.000 A 
ENDROOT
BRANCH   3  12
ATOM     12  C   UNL     1      20.705   3.683 187.406  0.00  0.00    +0.000 C 
ATOM     13  C   UNL     1      20.786   3.049 186.147  0.00  0.00    +0.000 C 
ATOM     14  C   UNL     1      21.509   3.666 184.989  0.00  0.00    +0.000 C 
ATOM     15  C   UNL     1      22.118   4.960 185.070  0.00  0.00    +0.000 C 
ATOM     16  O   UNL     1      22.639   5.494 184.105  0.00  0.00    +0.000 OA
ATOM     17  N   UNL     1      21.991   5.542 186.329  0.00  0.00    +0.000 N 
ATOM     18  C   UNL     1      21.216   5.121 187.419  0.00  0.00    +0.000 C 
ATOM     19  H   UNL     1      22.289   6.505 186.375  0.00  0.00    +0.000 HD
ATOM     20  O   UNL     1      20.863   5.932 188.270  0.00  0.00    +0.000 OA
ENDBRANCH   3  12
TORSDOF 1
ENDMDL
MODEL 4
REMARK VINA RESULT:      -7.8      3.477      7.189
REMARK  Name = Thalidomide.pdbqt.pdb
REMARK  1 active torsions:
REMARK  status: ('A' for Active; 'I' for Inactive)
REMARK    1  A    between atoms: N_3  and  C_12
REMARK                            x       y       z     vdW  Elec       q    Type
REMARK                         _______ _______ _______ _____ _____    ______ ____
ROOT
ATOM      1  O   UNL     1      17.936   2.709 187.961  0.00  0.00    +0.000 OA
ATOM      2  O   UNL     1      22.200   2.742 189.687  0.00  0.00    +0.000 OA
ATOM      3  N   UNL     1      20.199   3.092 188.493  0.00  0.00    +0.000 N 
ATOM      4  C   UNL     1      18.903   2.678 188.699  0.00  0.00    +0.000 C 
ATOM      5  C   UNL     1      20.989   2.769 189.575  0.00  0.00    +0.000 C 
ATOM      6  C   UNL     1      18.835   2.165 190.063  0.00  0.00    +0.000 A 
ATOM      7  C   UNL     1      20.101   2.240 190.603  0.00  0.00    +0.000 A 
ATOM      8  C   UNL     1      17.764   1.657 190.768  0.00  0.00    +0.000 A 
ATOM      9  C   UNL     1      20.385   1.797 191.878  0.00  0.00    +0.000 A 
ATOM     10  C   UNL     1      18.022   1.217 192.068  0.00  0.00    +0.000 A 
ATOM     11  C   UNL     1      19.315   1.286 192.616  0.00  0.00    +0.000 A 
ENDROOT
BRANCH   3  12
ATOM     12  C   UNL     1      20.670   3.632 187.322  0.00  0.00    +0.000 C 
ATOM     13  C   UNL     1      20.602   2.963 186.079  0.00  0.00    +0.000 C 
ATOM     14  C   UNL     1      21.269   3.497 184.849  0.00  0.00    +0.000 C 
ATOM     15  C   UNL     1      21.974   4.745 184.842  0.00  0.00    +0.000 C 
ATOM     16  O   UNL     1      22.451   5.215 183.823  0.00  0.00    +0.000 OA
ATOM     17  N   UNL     1      21.993   5.364 186.089  0.00  0.00    +0.000 N 
ATOM     18  C   UNL     1      21.282   5.027 187.250  0.00  0.00    +0.000 C 
ATOM     19  H   UNL     1      22.362   6.303 186.083  0.00  0.00    +0.000 HD
ATOM     20  O   UNL     1      21.060   5.883 188.102  0.00  0.00    +0.000 OA
ENDBRANCH   3  12
TORSDOF 1
ENDMDL
MODEL 5
REMARK VINA RESULT:      -7.8      3.687      6.776
REMARK  Name = Thalidomide.pdbqt.pdb
REMARK  1 active torsions:
REMARK  status: ('A' for Active; 'I' for Inactive)
REMARK    1  A    between atoms: N_3  and  C_12
REMARK                            x       y       z     vdW  Elec       q    Type
REMARK                         _______ _______ _______ _____ _____    ______ ____
ROOT
ATOM      1  O   UNL     1      21.474   3.509 191.432  0.00  0.00    +0.000 OA
ATOM      2  O   UNL     1      19.812   3.210 187.153  0.00  0.00    +0.000 OA
ATOM      3  N   UNL     1      21.117   3.403 189.106  0.00  0.00    +0.000 N 
ATOM      4  C   UNL     1      20.837   3.210 190.440  0.00  0.00    +0.000 C 
ATOM      5  C   UNL     1      20.058   2.993 188.324  0.00  0.00    +0.000 C 
ATOM      6  C   UNL     1      19.558   2.512 190.507  0.00  0.00    +0.000 A 
ATOM      7  C   UNL     1      19.094   2.362 189.217  0.00  0.00    +0.000 A 
ATOM      8  C   UNL     1      18.848   2.064 191.601  0.00  0.00    +0.000 A 
ATOM      9  C   UNL     1      17.882   1.768 188.936  0.00  0.00    +0.000 A 
ATOM     10  C   UNL     1      17.624   1.443 191.342  0.00  0.00    +0.000 A 
ATOM     11  C   UNL     1      17.147   1.297 190.028  0.00  0.00    +0.000 A 
ENDROOT
BRANCH   3  12
ATOM     12  C   UNL     1      22.237   4.035 188.625  0.00  0.00    +0.000 C 
ATOM     13  C   UNL     1      22.424   5.434 188.692  0.00  0.00    +0.000 C 
ATOM     14  C   UNL     1      23.572   6.118 188.016  0.00  0.00    +0.000 C 
ATOM     15  C   UNL     1      24.581   5.392 187.302  0.00  0.00    +0.000 C 
ATOM     16  O   UNL     1      25.555   5.942 186.816  0.00  0.00    +0.000 OA
ATOM     17  N   UNL     1      24.351   4.019 187.284  0.00  0.00    +0.000 N 
ATOM     18  C   UNL     1      23.404   3.275 188.003  0.00  0.00    +0.000 C 
ATOM     19  H   UNL     1      25.113   3.473 186.908  0.00  0.00    +0.000 HD
ATOM     20  O   UNL     1      23.600   2.083 188.223  0.00  0.00    +0.000 OA
ENDBRANCH   3  12
TORSDOF 1
ENDMDL
MODEL 6
REMARK VINA RESULT:      -7.5      4.324      6.464
REMARK  Name = Thalidomide.pdbqt.pdb
REMARK  1 active torsions:
REMARK  status: ('A' for Active; 'I' for Inactive)
REMARK    1  A    between atoms: N_3  and  C_12
REMARK                            x       y       z     vdW  Elec       q    Type
REMARK                         _______ _______ _______ _____ _____    ______ ____
ROOT
ATOM      1  O   UNL     1      21.963   1.959 190.543  0.00  0.00    +0.000 OA
ATOM      2  O   UNL     1      23.006   3.237 186.249  0.00  0.00    +0.000 OA
ATOM      3  N   UNL     1      22.947   2.385 188.445  0.00  0.00    +0.000 N 
ATOM      4  C   UNL     1      21.927   2.214 189.354  0.00  0.00    +0.000 C 
ATOM      5  C   UNL     1      22.445   2.765 187.219  0.00  0.00    +0.000 C 
ATOM      6  C   UNL     1      20.676   2.376 188.622  0.00  0.00    +0.000 A 
ATOM      7  C   UNL     1      20.992   2.692 187.317  0.00  0.00    +0.000 A 
ATOM      8  C   UNL     1      19.372   2.277 189.060  0.00  0.00    +0.000 A 
ATOM      9  C   UNL     1      20.025   2.945 186.367  0.00  0.00    +0.000 A 
ATOM     10  C   UNL     1      18.374   2.513 188.112  0.00  0.00    +0.000 A 
ATOM     11  C   UNL     1      18.695   2.843 186.784  0.00  0.00    +0.000 A 
ENDROOT
BRANCH   3  12
ATOM     12  C   UNL     1      24.284   2.317 188.748  0.00  0.00    +0.000 C 
ATOM     13  C   UNL     1      24.919   3.198 189.652  0.00  0.00    +0.000 C 
ATOM     14  C   UNL     1      26.404   3.211 189.840  0.00  0.00    +0.000 C 
ATOM     15  C   UNL     1      27.270   2.297 189.156  0.00  0.00    +0.000 C 
ATOM     16  O   UNL     1      28.471   2.259 189.368  0.00  0.00    +0.000 OA
ATOM     17  N   UNL     1      26.587   1.444 188.293  0.00  0.00    +0.000 N 
ATOM     18  C   UNL     1      25.204   1.252 188.159  0.00  0.00    +0.000 C 
ATOM     19  H   UNL     1      27.152   0.704 187.904  0.00  0.00    +0.000 HD
ATOM     20  O   UNL     1      24.775   0.196 187.702  0.00  0.00    +0.000 OA
ENDBRANCH   3  12
TORSDOF 1
ENDMDL
MODEL 7
REMARK VINA RESULT:      -7.5      3.307      7.039
REMARK  Name = Thalidomide.pdbqt.pdb
REMARK  1 active torsions:
REMARK  status: ('A' for Active; 'I' for Inactive)
REMARK    1  A    between atoms: N_3  and  C_12
REMARK                            x       y       z     vdW  Elec       q    Type
REMARK                         _______ _______ _______ _____ _____    ______ ____
ROOT
ATOM      1  O   UNL     1      22.571   3.504 191.075  0.00  0.00    +0.000 OA
ATOM      2  O   UNL     1      18.661   2.639 188.810  0.00  0.00    +0.000 OA
ATOM      3  N   UNL     1      20.865   3.112 189.498  0.00  0.00    +0.000 N 
ATOM      4  C   UNL     1      21.492   3.065 190.722  0.00  0.00    +0.000 C 
ATOM      5  C   UNL     1      19.600   2.571 189.580  0.00  0.00    +0.000 C 
ATOM      6  C   UNL     1      20.610   2.330 191.622  0.00  0.00    +0.000 A 
ATOM      7  C   UNL     1      19.466   2.012 190.920  0.00  0.00    +0.000 A 
ATOM      8  C   UNL     1      20.780   1.985 192.947  0.00  0.00    +0.000 A 
ATOM      9  C   UNL     1      18.410   1.340 191.500  0.00  0.00    +0.000 A 
ATOM     10  C   UNL     1      19.731   1.291 193.552  0.00  0.00    +0.000 A 
ATOM     11  C   UNL     1      18.562   0.973 192.839  0.00  0.00    +0.000 A 
ENDROOT
BRANCH   3  12
ATOM     12  C   UNL     1      21.374   3.727 188.381  0.00  0.00    +0.000 C 
ATOM     13  C   UNL     1      21.254   5.114 188.141  0.00  0.00    +0.000 C 
ATOM     14  C   UNL     1      21.669   5.736 186.843  0.00  0.00    +0.000 C 
ATOM     15  C   UNL     1      22.261   4.973 185.784  0.00  0.00    +0.000 C 
ATOM     16  O   UNL     1      22.667   5.493 184.758  0.00  0.00    +0.000 OA
ATOM     17  N   UNL     1      22.367   3.617 186.085  0.00  0.00    +0.000 N 
ATOM     18  C   UNL     1      22.151   2.969 187.310  0.00  0.00    +0.000 C 
ATOM     19  H   UNL     1      22.901   3.082 185.417  0.00  0.00    +0.000 HD
ATOM     20  O   UNL     1      22.691   1.889 187.535  0.00  0.00    +0.000 OA
ENDBRANCH   3  12
TORSDOF 1
ENDMDL
MODEL 8
REMARK VINA RESULT:      -7.4      2.403      6.429
REMARK  Name = Thalidomide.pdbqt.pdb
REMARK  1 active torsions:
REMARK  status: ('A' for Active; 'I' for Inactive)
REMARK    1  A    between atoms: N_3  and  C_12
REMARK                            x       y       z     vdW  Elec       q    Type
REMARK                         _______ _______ _______ _____ _____    ______ ____
ROOT
ATOM      1  O   UNL     1      22.005   3.134 191.938  0.00  0.00    +0.000 OA
ATOM      2  O   UNL     1      17.956   1.199 190.923  0.00  0.00    +0.000 OA
ATOM      3  N   UNL     1      20.110   2.155 190.936  0.00  0.00    +0.000 N 
ATOM      4  C   UNL     1      20.990   2.463 191.949  0.00  0.00    +0.000 C 
ATOM      5  C   UNL     1      19.036   1.444 191.427  0.00  0.00    +0.000 C 
ATOM      6  C   UNL     1      20.503   1.794 193.150  0.00  0.00    +0.000 A 
ATOM      7  C   UNL     1      19.324   1.156 192.827  0.00  0.00    +0.000 A 
ATOM      8  C   UNL     1      21.032   1.759 194.424  0.00  0.00    +0.000 A 
ATOM      9  C   UNL     1      18.587   0.455 193.758  0.00  0.00    +0.000 A 
ATOM     10  C   UNL     1      20.313   1.042 195.381  0.00  0.00    +0.000 A 
ATOM     11  C   UNL     1      19.107   0.399 195.054  0.00  0.00    +0.000 A 
ENDROOT
BRANCH   3  12
ATOM     12  C   UNL     1      20.218   2.603 189.643  0.00  0.00    +0.000 C 
ATOM     13  C   UNL     1      19.657   3.821 189.198  0.00  0.00    +0.000 C 
ATOM     14  C   UNL     1      19.644   4.210 187.752  0.00  0.00    +0.000 C 
ATOM     15  C   UNL     1      20.244   3.397 186.736  0.00  0.00    +0.000 C 
ATOM     16  O   UNL     1      20.298   3.751 185.569  0.00  0.00    +0.000 OA
ATOM     17  N   UNL     1      20.793   2.219 187.237  0.00  0.00    +0.000 N 
ATOM     18  C   UNL     1      20.989   1.839 188.572  0.00  0.00    +0.000 C 
ATOM     19  H   UNL     1      21.338   1.696 186.568  0.00  0.00    +0.000 HD
ATOM     20  O   UNL     1      21.852   1.012 188.852  0.00  0.00    +0.000 OA
ENDBRANCH   3  12
TORSDOF 1
ENDMDL
MODEL 9
REMARK VINA RESULT:      -7.1      3.371      5.334
REMARK  Name = Thalidomide.pdbqt.pdb
REMARK  1 active torsions:
REMARK  status: ('A' for Active; 'I' for Inactive)
REMARK    1  A    between atoms: N_3  and  C_12
REMARK                            x       y       z     vdW  Elec       q    Type
REMARK                         _______ _______ _______ _____ _____    ______ ____
ROOT
ATOM      1  O   UNL     1      23.041   1.808 190.079  0.00  0.00    +0.000 OA
ATOM      2  O   UNL     1      20.803   5.227 187.964  0.00  0.00    +0.000 OA
ATOM      3  N   UNL     1      21.526   3.453 189.337  0.00  0.00    +0.000 N 
ATOM      4  C   UNL     1      22.748   2.845 189.513  0.00  0.00    +0.000 C 
ATOM      5  C   UNL     1      21.650   4.570 188.540  0.00  0.00    +0.000 C 
ATOM      6  C   UNL     1      23.743   3.706 188.885  0.00  0.00    +0.000 A 
ATOM      7  C   UNL     1      23.076   4.767 188.310  0.00  0.00    +0.000 A 
ATOM      8  C   UNL     1      25.113   3.567 188.802  0.00  0.00    +0.000 A 
ATOM      9  C   UNL     1      23.732   5.752 187.601  0.00  0.00    +0.000 A 
ATOM     10  C   UNL     1      25.802   4.560 188.104  0.00  0.00    +0.000 A 
ATOM     11  C   UNL     1      25.121   5.638 187.510  0.00  0.00    +0.000 A 
ENDROOT
BRANCH   3  12
ATOM     12  C   UNL     1      20.329   2.947 189.783  0.00  0.00    +0.000 C 
ATOM     13  C   UNL     1      19.874   3.095 191.112  0.00  0.00    +0.000 C 
ATOM     14  C   UNL     1      18.650   2.396 191.617  0.00  0.00    +0.000 C 
ATOM     15  C   UNL     1      17.834   1.576 190.772  0.00  0.00    +0.000 C 
ATOM     16  O   UNL     1      16.796   1.069 191.165  0.00  0.00    +0.000 OA
ATOM     17  N   UNL     1      18.323   1.481 189.472  0.00  0.00    +0.000 N 
ATOM     18  C   UNL     1      19.361   2.206 188.867  0.00  0.00    +0.000 C 
ATOM     19  H   UNL     1      17.699   1.024 188.823  0.00  0.00    +0.000 HD
ATOM     20  O   UNL     1      19.387   2.335 187.646  0.00  0.00    +0.000 OA
ENDBRANCH   3  12
TORSDOF 1
ENDMDL
