MODEL 1
REMARK VINA RESULT:      -8.1      0.000      0.000
REMARK  Name = Thapsigargin.pdbqt.pdb
REMARK  10 active torsions:
REMARK  status: ('A' for Active; 'I' for Inactive)
REMARK    1  A    between atoms: O_2  and  C_24
REMARK    2  A    between atoms: C_17  and  O_43
REMARK    3  A    between atoms: C_19  and  C_24
REMARK    4  A    between atoms: C_19  and  O_47
REMARK    5  A    between atoms: C_27  and  C_35
REMARK    6  A    between atoms: C_35  and  C_36
REMARK    7  A    between atoms: C_37  and  C_38
REMARK    8  A    between atoms: C_39  and  C_40
REMARK    9  A    between atoms: C_42  and  O_43
REMARK   10  A    between atoms: C_42  and  C_44
REMARK                            x       y       z     vdW  Elec       q    Type
REMARK                         _______ _______ _______ _____ _____    ______ ____
ROOT
ATOM      1  O   UNL     1      24.535   0.549 197.023  0.00  0.00    +0.000 OA
ATOM      2  O   UNL     1      22.273  -0.236 191.458  0.00  0.00    +0.000 OA
ATOM      3  O   UNL     1      20.841   1.660 192.404  0.00  0.00    +0.000 OA
ATOM      4  O   UNL     1      20.198  -1.570 194.970  0.00  0.00    +0.000 OA
ATOM      5  O   UNL     1      26.065   1.457 198.458  0.00  0.00    +0.000 OA
ATOM      6  O   UNL     1      22.077   2.180 191.795  0.00  0.00    +0.000 OA
ATOM      7  O   UNL     1      18.562   1.102 191.704  0.00  0.00    +0.000 OA
ATOM      8  O   UNL     1      20.334  -0.350 197.137  0.00  0.00    +0.000 OA
ATOM      9  C   UNL     1      23.407  -0.994 193.600  0.00  0.00    +0.000 C 
ATOM     10  C   UNL     1      25.792   0.648 195.073  0.00  0.00    +0.000 C 
ATOM     11  C   UNL     1      24.570   0.209 195.677  0.00  0.00    +0.000 C 
ATOM     12  C   UNL     1      24.432  -0.824 192.530  0.00  0.00    +0.000 C 
ATOM     13  C   UNL     1      23.589  -0.484 195.059  0.00  0.00    +0.000 C 
ATOM     14  C   UNL     1      26.025   0.291 193.852  0.00  0.00    +0.000 C 
ATOM     15  C   UNL     1      25.687  -0.351 192.642  0.00  0.00    +0.000 C 
ATOM     16  C   UNL     1      22.278  -1.893 193.677  0.00  0.00    +0.000 C 
ATOM     17  C   UNL     1      26.615   1.344 196.078  0.00  0.00    +0.000 C 
ATOM     18  C   UNL     1      21.591  -1.663 194.886  0.00  0.00    +0.000 C 
ATOM     19  C   UNL     1      22.386  -0.978 195.737  0.00  0.00    +0.000 C 
ATOM     20  C   UNL     1      23.217   0.013 192.518  0.00  0.00    +0.000 C 
ATOM     21  C   UNL     1      25.737   1.150 197.316  0.00  0.00    +0.000 C 
ATOM     22  C   UNL     1      21.609  -0.464 196.783  0.00  0.00    +0.000 C 
ATOM     23  C   UNL     1      22.920   1.044 191.461  0.00  0.00    +0.000 C 
ATOM     24  C   UNL     1      19.802   1.683 191.468  0.00  0.00    +0.000 C 
ATOM     25  C   UNL     1      19.655  -0.618 195.911  0.00  0.00    +0.000 C 
ATOM     26  C   UNL     1      23.810   1.271 190.231  0.00  0.00    +0.000 C 
ATOM     27  C   UNL     1      18.659   0.200 195.513  0.00  0.00    +0.000 C 
ATOM     28  C   UNL     1      18.076   1.249 196.434  0.00  0.00    +0.000 C 
ATOM     29  C   UNL     1      18.396   0.383 194.126  0.00  0.00    +0.000 C 
ATOM     30  C   UNL     1      18.425   0.695 192.965  0.00  0.00    +0.000 C 
ENDROOT
BRANCH  17  31
ATOM     31  O   UNL     1      27.888   0.732 196.199  0.00  0.00    +0.000 OA
ATOM     32  H   UNL     1      27.912   0.041 195.511  0.00  0.00    +0.000 HD
ENDBRANCH  17  31
BRANCH  17  33
ATOM     33  C   UNL     1      26.779   2.766 195.724  0.00  0.00    +0.000 C 
BRANCH  33  34
ATOM     34  O   UNL     1      26.949   4.046 195.398  0.00  0.00    +0.000 OA
ATOM     35  H   UNL     1      27.044   4.153 194.432  0.00  0.00    +0.000 HD
ENDBRANCH  33  34
ENDBRANCH  17  33
BRANCH  24  36
ATOM     36  C   UNL     1      19.997   2.085 190.248  0.00  0.00    +0.000 C 
BRANCH  36  37
ATOM     37  C   UNL     1      20.275   2.540 188.811  0.00  0.00    +0.000 C 
ATOM     38  C   UNL     1      20.523   2.877 187.686  0.00  0.00    +0.000 C 
BRANCH  38  39
ATOM     39  C   UNL     1      20.862   3.290 186.250  0.00  0.00    +0.000 C 
ATOM     40  C   UNL     1      21.141   3.615 185.129  0.00  0.00    +0.000 C 
BRANCH  40  41
ATOM     41  C   UNL     1      21.506   4.028 183.700  0.00  0.00    +0.000 C 
ATOM     42  C   UNL     1      21.821   4.388 182.457  0.00  0.00    +0.000 C 
ENDBRANCH  40  41
ENDBRANCH  38  39
ENDBRANCH  36  37
ENDBRANCH  24  36
BRANCH  15  43
ATOM     43  O   UNL     1      26.679  -0.734 191.731  0.00  0.00    +0.000 OA
BRANCH  43  45
ATOM     44  O   UNL     1      28.827   0.000 192.252  0.00  0.00    +0.000 OA
ATOM     45  C   UNL     1      27.751   0.115 191.683  0.00  0.00    +0.000 C 
BRANCH  45  46
ATOM     46  C   UNL     1      27.491   1.248 190.848  0.00  0.00    +0.000 C 
ATOM     47  C   UNL     1      27.275   2.192 190.144  0.00  0.00    +0.000 C 
ATOM     48  C   UNL     1      27.000   3.408 189.257  0.00  0.00    +0.000 C 
ENDBRANCH  45  46
ENDBRANCH  43  45
ENDBRANCH  15  43
TORSDOF 10
ENDMDL
MODEL 2
REMARK VINA RESULT:      -7.4      4.565      8.509
REMARK  Name = Thapsigargin.pdbqt.pdb
REMARK  10 active torsions:
REMARK  status: ('A' for Active; 'I' for Inactive)
REMARK    1  A    between atoms: O_2  and  C_24
REMARK    2  A    between atoms: C_17  and  O_43
REMARK    3  A    between atoms: C_19  and  C_24
REMARK    4  A    between atoms: C_19  and  O_47
REMARK    5  A    between atoms: C_27  and  C_35
REMARK    6  A    between atoms: C_35  and  C_36
REMARK    7  A    between atoms: C_37  and  C_38
REMARK    8  A    between atoms: C_39  and  C_40
REMARK    9  A    between atoms: C_42  and  O_43
REMARK   10  A    between atoms: C_42  and  C_44
REMARK                            x       y       z     vdW  Elec       q    Type
REMARK                         _______ _______ _______ _____ _____    ______ ____
ROOT
ATOM      1  O   UNL     1      33.853   2.690 192.208  0.00  0.00    +0.000 OA
ATOM      2  O   UNL     1      28.348   0.935 190.385  0.00  0.00    +0.000 OA
ATOM      3  O   UNL     1      27.967   1.600 192.826  0.00  0.00    +0.000 OA
ATOM      4  O   UNL     1      30.774  -1.488 192.968  0.00  0.00    +0.000 OA
ATOM      5  O   UNL     1      35.495   4.268 192.399  0.00  0.00    +0.000 OA
ATOM      6  O   UNL     1      27.856   2.766 191.933  0.00  0.00    +0.000 OA
ATOM      7  O   UNL     1      26.512  -0.160 193.710  0.00  0.00    +0.000 OA
ATOM      8  O   UNL     1      32.323  -0.499 194.649  0.00  0.00    +0.000 OA
ATOM      9  C   UNL     1      30.888   0.905 190.366  0.00  0.00    +0.000 C 
ATOM     10  C   UNL     1      32.736   3.577 190.374  0.00  0.00    +0.000 C 
ATOM     11  C   UNL     1      32.825   2.485 191.296  0.00  0.00    +0.000 C 
ATOM     12  C   UNL     1      30.392   1.682 189.193  0.00  0.00    +0.000 C 
ATOM     13  C   UNL     1      32.060   1.372 191.277  0.00  0.00    +0.000 C 
ATOM     14  C   UNL     1      31.908   3.468 189.387  0.00  0.00    +0.000 C 
ATOM     15  C   UNL     1      30.914   2.795 188.645  0.00  0.00    +0.000 C 
ATOM     16  C   UNL     1      30.703  -0.486 190.711  0.00  0.00    +0.000 C 
ATOM     17  C   UNL     1      33.758   4.586 190.707  0.00  0.00    +0.000 C 
ATOM     18  C   UNL     1      31.354  -0.745 191.934  0.00  0.00    +0.000 C 
ATOM     19  C   UNL     1      32.235   0.243 192.198  0.00  0.00    +0.000 C 
ATOM     20  C   UNL     1      29.599   1.649 190.436  0.00  0.00    +0.000 C 
ATOM     21  C   UNL     1      34.468   3.870 191.857  0.00  0.00    +0.000 C 
ATOM     22  C   UNL     1      32.627   0.167 193.541  0.00  0.00    +0.000 C 
ATOM     23  C   UNL     1      28.276   2.350 190.605  0.00  0.00    +0.000 C 
ATOM     24  C   UNL     1      26.702   1.044 193.044  0.00  0.00    +0.000 C 
ATOM     25  C   UNL     1      31.057  -1.068 194.320  0.00  0.00    +0.000 C 
ATOM     26  C   UNL     1      27.568   3.099 189.467  0.00  0.00    +0.000 C 
ATOM     27  C   UNL     1      30.040  -0.973 195.202  0.00  0.00    +0.000 C 
ATOM     28  C   UNL     1      30.259  -0.498 196.621  0.00  0.00    +0.000 C 
ATOM     29  C   UNL     1      28.694  -0.928 194.738  0.00  0.00    +0.000 C 
ATOM     30  C   UNL     1      27.635  -0.615 194.262  0.00  0.00    +0.000 C 
ENDROOT
BRANCH  17  31
ATOM     31  O   UNL     1      34.605   4.829 189.597  0.00  0.00    +0.000 OA
ATOM     32  H   UNL     1      35.403   4.291 189.754  0.00  0.00    +0.000 HD
ENDBRANCH  17  31
BRANCH  17  33
ATOM     33  C   UNL     1      33.126   5.847 191.136  0.00  0.00    +0.000 C 
BRANCH  33  34
ATOM     34  O   UNL     1      32.539   6.973 191.539  0.00  0.00    +0.000 OA
ATOM     35  H   UNL     1      32.651   7.104 192.499  0.00  0.00    +0.000 HD
ENDBRANCH  33  34
ENDBRANCH  17  33
BRANCH  24  36
ATOM     36  C   UNL     1      25.641   1.529 192.470  0.00  0.00    +0.000 C 
BRANCH  36  37
ATOM     37  C   UNL     1      24.419   2.116 191.756  0.00  0.00    +0.000 C 
ATOM     38  C   UNL     1      23.483   2.602 191.183  0.00  0.00    +0.000 C 
BRANCH  38  39
ATOM     39  C   UNL     1      22.305   3.241 190.440  0.00  0.00    +0.000 C 
ATOM     40  C   UNL     1      21.392   3.750 189.851  0.00  0.00    +0.000 C 
BRANCH  40  41
ATOM     41  C   UNL     1      20.232   4.402 189.092  0.00  0.00    +0.000 C 
ATOM     42  C   UNL     1      19.222   4.970 188.435  0.00  0.00    +0.000 C 
ENDBRANCH  40  41
ENDBRANCH  38  39
ENDBRANCH  36  37
ENDBRANCH  24  36
BRANCH  15  43
ATOM     43  O   UNL     1      30.696   3.098 187.297  0.00  0.00    +0.000 OA
BRANCH  43  45
ATOM     44  O   UNL     1      32.830   3.756 186.635  0.00  0.00    +0.000 OA
ATOM     45  C   UNL     1      31.627   3.941 186.755  0.00  0.00    +0.000 C 
BRANCH  45  46
ATOM     46  C   UNL     1      31.035   5.165 186.310  0.00  0.00    +0.000 C 
ATOM     47  C   UNL     1      30.534   6.188 185.939  0.00  0.00    +0.000 C 
ATOM     48  C   UNL     1      29.906   7.497 185.456  0.00  0.00    +0.000 C 
ENDBRANCH  45  46
ENDBRANCH  43  45
ENDBRANCH  15  43
TORSDOF 10
ENDMDL
MODEL 3
REMARK VINA RESULT:      -7.4      2.616      5.404
REMARK  Name = Thapsigargin.pdbqt.pdb
REMARK  10 active torsions:
REMARK  status: ('A' for Active; 'I' for Inactive)
REMARK    1  A    between atoms: O_2  and  C_24
REMARK    2  A    between atoms: C_17  and  O_43
REMARK    3  A    between atoms: C_19  and  C_24
REMARK    4  A    between atoms: C_19  and  O_47
REMARK    5  A    between atoms: C_27  and  C_35
REMARK    6  A    between atoms: C_35  and  C_36
REMARK    7  A    between atoms: C_37  and  C_38
REMARK    8  A    between atoms: C_39  and  C_40
REMARK    9  A    between atoms: C_42  and  O_43
REMARK   10  A    between atoms: C_42  and  C_44
REMARK                            x       y       z     vdW  Elec       q    Type
REMARK                         _______ _______ _______ _____ _____    ______ ____
ROOT
ATOM      1  O   UNL     1      20.879   0.513 197.078  0.00  0.00    +0.000 OA
ATOM      2  O   UNL     1      24.507   0.063 192.247  0.00  0.00    +0.000 OA
ATOM      3  O   UNL     1      23.332   2.305 191.883  0.00  0.00    +0.000 OA
ATOM      4  O   UNL     1      20.264  -0.526 191.973  0.00  0.00    +0.000 OA
ATOM      5  O   UNL     1      20.507   1.068 199.263  0.00  0.00    +0.000 OA
ATOM      6  O   UNL     1      24.528   2.463 192.728  0.00  0.00    +0.000 OA
ATOM      7  O   UNL     1      22.774   2.314 189.499  0.00  0.00    +0.000 OA
ATOM      8  O   UNL     1      18.655   0.723 193.407  0.00  0.00    +0.000 OA
ATOM      9  C   UNL     1      23.057  -0.855 194.119  0.00  0.00    +0.000 C 
ATOM     10  C   UNL     1      23.177   0.193 197.191  0.00  0.00    +0.000 C 
ATOM     11  C   UNL     1      22.005   0.110 196.372  0.00  0.00    +0.000 C 
ATOM     12  C   UNL     1      24.494  -1.004 194.486  0.00  0.00    +0.000 C 
ATOM     13  C   UNL     1      21.964  -0.339 195.098  0.00  0.00    +0.000 C 
ATOM     14  C   UNL     1      24.284  -0.271 196.711  0.00  0.00    +0.000 C 
ATOM     15  C   UNL     1      25.067  -0.863 195.697  0.00  0.00    +0.000 C 
ATOM     16  C   UNL     1      22.309  -1.431 193.024  0.00  0.00    +0.000 C 
ATOM     17  C   UNL     1      22.810   0.704 198.524  0.00  0.00    +0.000 C 
ATOM     18  C   UNL     1      20.977  -0.975 193.090  0.00  0.00    +0.000 C 
ATOM     19  C   UNL     1      20.728  -0.475 194.320  0.00  0.00    +0.000 C 
ATOM     20  C   UNL     1      24.074   0.113 193.620  0.00  0.00    +0.000 C 
ATOM     21  C   UNL     1      21.291   0.800 198.358  0.00  0.00    +0.000 C 
ATOM     22  C   UNL     1      19.542   0.270 194.285  0.00  0.00    +0.000 C 
ATOM     23  C   UNL     1      25.023   1.134 193.049  0.00  0.00    +0.000 C 
ATOM     24  C   UNL     1      23.659   2.547 190.544  0.00  0.00    +0.000 C 
ATOM     25  C   UNL     1      19.354   0.578 192.171  0.00  0.00    +0.000 C 
ATOM     26  C   UNL     1      26.545   1.066 193.235  0.00  0.00    +0.000 C 
ATOM     27  C   UNL     1      19.367   1.603 191.294  0.00  0.00    +0.000 C 
ATOM     28  C   UNL     1      18.471   2.809 191.467  0.00  0.00    +0.000 C 
ATOM     29  C   UNL     1      20.476   1.779 190.419  0.00  0.00    +0.000 C 
ATOM     30  C   UNL     1      21.549   2.017 189.929  0.00  0.00    +0.000 C 
ENDROOT
BRANCH  17  31
ATOM     31  O   UNL     1      23.200  -0.206 199.538  0.00  0.00    +0.000 OA
ATOM     32  H   UNL     1      24.159  -0.341 199.414  0.00  0.00    +0.000 HD
ENDBRANCH  17  31
BRANCH  17  33
ATOM     33  C   UNL     1      23.431   2.018 198.769  0.00  0.00    +0.000 C 
BRANCH  33  34
ATOM     34  O   UNL     1      23.978   3.208 199.010  0.00  0.00    +0.000 OA
ATOM     35  H   UNL     1      23.311   3.918 198.958  0.00  0.00    +0.000 HD
ENDBRANCH  33  34
ENDBRANCH  17  33
BRANCH  24  36
ATOM     36  C   UNL     1      24.875   2.826 190.183  0.00  0.00    +0.000 C 
BRANCH  36  37
ATOM     37  C   UNL     1      26.326   3.116 189.784  0.00  0.00    +0.000 C 
ATOM     38  C   UNL     1      27.451   3.355 189.439  0.00  0.00    +0.000 C 
BRANCH  38  39
ATOM     39  C   UNL     1      28.876   3.672 188.976  0.00  0.00    +0.000 C 
ATOM     40  C   UNL     1      29.988   3.931 188.604  0.00  0.00    +0.000 C 
BRANCH  40  41
ATOM     41  C   UNL     1      31.403   4.268 188.126  0.00  0.00    +0.000 C 
ATOM     42  C   UNL     1      32.633   4.564 187.709  0.00  0.00    +0.000 C 
ENDBRANCH  40  41
ENDBRANCH  38  39
ENDBRANCH  36  37
ENDBRANCH  24  36
BRANCH  15  43
ATOM     43  O   UNL     1      26.258  -1.529 196.006  0.00  0.00    +0.000 OA
BRANCH  43  45
ATOM     44  O   UNL     1      26.673  -2.618 193.989  0.00  0.00    +0.000 OA
ATOM     45  C   UNL     1      26.522  -2.605 195.202  0.00  0.00    +0.000 C 
BRANCH  45  46
ATOM     46  C   UNL     1      26.607  -3.818 195.956  0.00  0.00    +0.000 C 
ATOM     47  C   UNL     1      26.676  -4.831 196.591  0.00  0.00    +0.000 C 
ATOM     48  C   UNL     1      26.775  -6.130 197.392  0.00  0.00    +0.000 C 
ENDBRANCH  45  46
ENDBRANCH  43  45
ENDBRANCH  15  43
TORSDOF 10
ENDMDL
MODEL 4
REMARK VINA RESULT:      -7.2      3.089      7.040
REMARK  Name = Thapsigargin.pdbqt.pdb
REMARK  10 active torsions:
REMARK  status: ('A' for Active; 'I' for Inactive)
REMARK    1  A    between atoms: O_2  and  C_24
REMARK    2  A    between atoms: C_17  and  O_43
REMARK    3  A    between atoms: C_19  and  C_24
REMARK    4  A    between atoms: C_19  and  O_47
REMARK    5  A    between atoms: C_27  and  C_35
REMARK    6  A    between atoms: C_35  and  C_36
REMARK    7  A    between atoms: C_37  and  C_38
REMARK    8  A    between atoms: C_39  and  C_40
REMARK    9  A    between atoms: C_42  and  O_43
REMARK   10  A    between atoms: C_42  and  C_44
REMARK                            x       y       z     vdW  Elec       q    Type
REMARK                         _______ _______ _______ _____ _____    ______ ____
ROOT
ATOM      1  O   UNL     1      20.884   0.741 193.977  0.00  0.00    +0.000 OA
ATOM      2  O   UNL     1      25.830   0.661 190.479  0.00  0.00    +0.000 OA
ATOM      3  O   UNL     1      25.206   3.140 190.544  0.00  0.00    +0.000 OA
ATOM      4  O   UNL     1      21.899   1.232 188.854  0.00  0.00    +0.000 OA
ATOM      5  O   UNL     1      19.877   0.792 196.028  0.00  0.00    +0.000 OA
ATOM      6  O   UNL     1      26.051   2.774 191.694  0.00  0.00    +0.000 OA
ATOM      7  O   UNL     1      25.503   3.899 188.236  0.00  0.00    +0.000 OA
ATOM      8  O   UNL     1      20.107   2.430 190.102  0.00  0.00    +0.000 OA
ATOM      9  C   UNL     1      23.706  -0.318 191.470  0.00  0.00    +0.000 C 
ATOM     10  C   UNL     1      22.928  -0.157 194.619  0.00  0.00    +0.000 C 
ATOM     11  C   UNL     1      22.109   0.267 193.524  0.00  0.00    +0.000 C 
ATOM     12  C   UNL     1      24.891  -0.907 192.157  0.00  0.00    +0.000 C 
ATOM     13  C   UNL     1      22.436   0.184 192.216  0.00  0.00    +0.000 C 
ATOM     14  C   UNL     1      24.048  -0.740 194.345  0.00  0.00    +0.000 C 
ATOM     15  C   UNL     1      25.031  -1.228 193.457  0.00  0.00    +0.000 C 
ATOM     16  C   UNL     1      23.298  -0.389 190.085  0.00  0.00    +0.000 C 
ATOM     17  C   UNL     1      22.210   0.070 195.887  0.00  0.00    +0.000 C 
ATOM     18  C   UNL     1      22.109   0.350 189.919  0.00  0.00    +0.000 C 
ATOM     19  C   UNL     1      21.535   0.563 191.122  0.00  0.00    +0.000 C 
ATOM     20  C   UNL     1      24.967   0.463 191.616  0.00  0.00    +0.000 C 
ATOM     21  C   UNL     1      20.873   0.579 195.343  0.00  0.00    +0.000 C 
ATOM     22  C   UNL     1      20.561   1.562 190.999  0.00  0.00    +0.000 C 
ATOM     23  C   UNL     1      26.198   1.327 191.695  0.00  0.00    +0.000 C 
ATOM     24  C   UNL     1      26.003   3.628 189.504  0.00  0.00    +0.000 C 
ATOM     25  C   UNL     1      21.155   2.438 189.134  0.00  0.00    +0.000 C 
ATOM     26  C   UNL     1      27.536   0.839 192.267  0.00  0.00    +0.000 C 
ATOM     27  C   UNL     1      21.623   3.618 188.675  0.00  0.00    +0.000 C 
ATOM     28  C   UNL     1      20.916   4.922 188.970  0.00  0.00    +0.000 C 
ATOM     29  C   UNL     1      22.977   3.732 188.251  0.00  0.00    +0.000 C 
ATOM     30  C   UNL     1      24.175   3.814 188.186  0.00  0.00    +0.000 C 
ENDROOT
BRANCH  17  31
ATOM     31  O   UNL     1      22.088  -1.137 196.619  0.00  0.00    +0.000 OA
ATOM     32  H   UNL     1      21.491  -1.702 196.094  0.00  0.00    +0.000 HD
ENDBRANCH  17  31
BRANCH  17  33
ATOM     33  C   UNL     1      22.903   1.081 196.706  0.00  0.00    +0.000 C 
BRANCH  33  34
ATOM     34  O   UNL     1      23.507   2.003 197.453  0.00  0.00    +0.000 OA
ATOM     35  H   UNL     1      22.863   2.641 197.813  0.00  0.00    +0.000 HD
ENDBRANCH  33  34
ENDBRANCH  17  33
BRANCH  24  36
ATOM     36  C   UNL     1      27.297   3.680 189.608  0.00  0.00    +0.000 C 
BRANCH  36  37
ATOM     37  C   UNL     1      28.819   3.788 189.751  0.00  0.00    +0.000 C 
ATOM     38  C   UNL     1      30.006   3.885 189.897  0.00  0.00    +0.000 C 
BRANCH  38  39
ATOM     39  C   UNL     1      31.518   4.015 190.110  0.00  0.00    +0.000 C 
ATOM     40  C   UNL     1      32.700   4.128 190.286  0.00  0.00    +0.000 C 
BRANCH  40  41
ATOM     41  C   UNL     1      34.206   4.276 190.518  0.00  0.00    +0.000 C 
ATOM     42  C   UNL     1      35.517   4.408 190.721  0.00  0.00    +0.000 C 
ENDBRANCH  40  41
ENDBRANCH  38  39
ENDBRANCH  36  37
ENDBRANCH  24  36
BRANCH  15  43
ATOM     43  O   UNL     1      25.928  -2.225 193.855  0.00  0.00    +0.000 OA
BRANCH  43  45
ATOM     44  O   UNL     1      26.827  -0.981 195.607  0.00  0.00    +0.000 OA
ATOM     45  C   UNL     1      26.462  -2.032 195.100  0.00  0.00    +0.000 C 
BRANCH  45  46
ATOM     46  C   UNL     1      26.577  -3.262 195.821  0.00  0.00    +0.000 C 
ATOM     47  C   UNL     1      26.669  -4.294 196.421  0.00  0.00    +0.000 C 
ATOM     48  C   UNL     1      26.792  -5.606 197.200  0.00  0.00    +0.000 C 
ENDBRANCH  45  46
ENDBRANCH  43  45
ENDBRANCH  15  43
TORSDOF 10
ENDMDL
MODEL 5
REMARK VINA RESULT:      -7.0      5.803     10.899
REMARK  Name = Thapsigargin.pdbqt.pdb
REMARK  10 active torsions:
REMARK  status: ('A' for Active; 'I' for Inactive)
REMARK    1  A    between atoms: O_2  and  C_24
REMARK    2  A    between atoms: C_17  and  O_43
REMARK    3  A    between atoms: C_19  and  C_24
REMARK    4  A    between atoms: C_19  and  O_47
REMARK    5  A    between atoms: C_27  and  C_35
REMARK    6  A    between atoms: C_35  and  C_36
REMARK    7  A    between atoms: C_37  and  C_38
REMARK    8  A    between atoms: C_39  and  C_40
REMARK    9  A    between atoms: C_42  and  O_43
REMARK   10  A    between atoms: C_42  and  C_44
REMARK                            x       y       z     vdW  Elec       q    Type
REMARK                         _______ _______ _______ _____ _____    ______ ____
ROOT
ATOM      1  O   UNL     1      35.333   3.777 191.941  0.00  0.00    +0.000 OA
ATOM      2  O   UNL     1      30.809  -0.070 190.743  0.00  0.00    +0.000 OA
ATOM      3  O   UNL     1      30.884  -0.041 193.300  0.00  0.00    +0.000 OA
ATOM      4  O   UNL     1      34.644  -1.420 192.119  0.00  0.00    +0.000 OA
ATOM      5  O   UNL     1      36.141   5.894 192.240  0.00  0.00    +0.000 OA
ATOM      6  O   UNL     1      30.048   1.055 192.779  0.00  0.00    +0.000 OA
ATOM      7  O   UNL     1      30.614  -2.389 193.938  0.00  0.00    +0.000 OA
ATOM      8  O   UNL     1      36.036  -0.083 193.694  0.00  0.00    +0.000 OA
ATOM      9  C   UNL     1      33.008   1.105 190.260  0.00  0.00    +0.000 C 
ATOM     10  C   UNL     1      33.483   4.296 190.636  0.00  0.00    +0.000 C 
ATOM     11  C   UNL     1      34.277   3.251 191.208  0.00  0.00    +0.000 C 
ATOM     12  C   UNL     1      31.925   1.722 189.441  0.00  0.00    +0.000 C 
ATOM     13  C   UNL     1      34.078   1.926 191.035  0.00  0.00    +0.000 C 
ATOM     14  C   UNL     1      32.538   3.960 189.821  0.00  0.00    +0.000 C 
ATOM     15  C   UNL     1      31.755   3.018 189.119  0.00  0.00    +0.000 C 
ATOM     16  C   UNL     1      33.529  -0.243 190.255  0.00  0.00    +0.000 C 
ATOM     17  C   UNL     1      34.034   5.605 191.032  0.00  0.00    +0.000 C 
ATOM     18  C   UNL     1      34.543  -0.345 191.230  0.00  0.00    +0.000 C 
ATOM     19  C   UNL     1      34.962   0.889 191.581  0.00  0.00    +0.000 C 
ATOM     20  C   UNL     1      31.602   1.133 190.754  0.00  0.00    +0.000 C 
ATOM     21  C   UNL     1      35.270   5.145 191.807  0.00  0.00    +0.000 C 
ATOM     22  C   UNL     1      35.708   0.806 192.763  0.00  0.00    +0.000 C 
ATOM     23  C   UNL     1      30.213   1.092 191.335  0.00  0.00    +0.000 C 
ATOM     24  C   UNL     1      30.085  -1.153 193.588  0.00  0.00    +0.000 C 
ATOM     25  C   UNL     1      35.090  -1.126 193.461  0.00  0.00    +0.000 C 
ATOM     26  C   UNL     1      28.969   1.580 190.580  0.00  0.00    +0.000 C 
ATOM     27  C   UNL     1      34.419  -1.656 194.505  0.00  0.00    +0.000 C 
ATOM     28  C   UNL     1      34.806  -1.354 195.935  0.00  0.00    +0.000 C 
ATOM     29  C   UNL     1      33.109  -2.182 194.319  0.00  0.00    +0.000 C 
ATOM     30  C   UNL     1      31.930  -2.338 194.140  0.00  0.00    +0.000 C 
ENDROOT
BRANCH  17  31
ATOM     31  O   UNL     1      34.352   6.384 189.892  0.00  0.00    +0.000 OA
ATOM     32  H   UNL     1      35.201   6.032 189.563  0.00  0.00    +0.000 HD
ENDBRANCH  17  31
BRANCH  17  33
ATOM     33  C   UNL     1      33.079   6.337 191.884  0.00  0.00    +0.000 C 
BRANCH  33  34
ATOM     34  O   UNL     1      32.219   6.982 192.670  0.00  0.00    +0.000 OA
ATOM     35  H   UNL     1      32.280   7.947 192.541  0.00  0.00    +0.000 HD
ENDBRANCH  33  34
ENDBRANCH  17  33
BRANCH  24  36
ATOM     36  C   UNL     1      28.806  -1.146 193.362  0.00  0.00    +0.000 C 
BRANCH  36  37
ATOM     37  C   UNL     1      27.289  -1.136 193.147  0.00  0.00    +0.000 C 
ATOM     38  C   UNL     1      26.096  -1.121 193.013  0.00  0.00    +0.000 C 
BRANCH  38  39
ATOM     39  C   UNL     1      24.571  -1.093 192.869  0.00  0.00    +0.000 C 
ATOM     40  C   UNL     1      23.376  -1.087 192.757  0.00  0.00    +0.000 C 
BRANCH  40  41
ATOM     41  C   UNL     1      21.851  -1.086 192.618  0.00  0.00    +0.000 C 
ATOM     42  C   UNL     1      20.524  -1.085 192.495  0.00  0.00    +0.000 C 
ENDBRANCH  40  41
ENDBRANCH  38  39
ENDBRANCH  36  37
ENDBRANCH  24  36
BRANCH  15  43
ATOM     43  O   UNL     1      31.062   3.382 187.959  0.00  0.00    +0.000 OA
BRANCH  43  45
ATOM     44  O   UNL     1      32.940   3.305 186.583  0.00  0.00    +0.000 OA
ATOM     45  C   UNL     1      31.868   3.782 186.929  0.00  0.00    +0.000 C 
BRANCH  45  46
ATOM     46  C   UNL     1      31.315   4.902 186.231  0.00  0.00    +0.000 C 
ATOM     47  C   UNL     1      30.859   5.841 185.644  0.00  0.00    +0.000 C 
ATOM     48  C   UNL     1      30.263   7.040 184.903  0.00  0.00    +0.000 C 
ENDBRANCH  45  46
ENDBRANCH  43  45
ENDBRANCH  15  43
TORSDOF 10
ENDMDL
MODEL 6
REMARK VINA RESULT:      -6.8      6.075     11.447
REMARK  Name = Thapsigargin.pdbqt.pdb
REMARK  10 active torsions:
REMARK  status: ('A' for Active; 'I' for Inactive)
REMARK    1  A    between atoms: O_2  and  C_24
REMARK    2  A    between atoms: C_17  and  O_43
REMARK    3  A    between atoms: C_19  and  C_24
REMARK    4  A    between atoms: C_19  and  O_47
REMARK    5  A    between atoms: C_27  and  C_35
REMARK    6  A    between atoms: C_35  and  C_36
REMARK    7  A    between atoms: C_37  and  C_38
REMARK    8  A    between atoms: C_39  and  C_40
REMARK    9  A    between atoms: C_42  and  O_43
REMARK   10  A    between atoms: C_42  and  C_44
REMARK                            x       y       z     vdW  Elec       q    Type
REMARK                         _______ _______ _______ _____ _____    ______ ____
ROOT
ATOM      1  O   UNL     1      32.441   2.659 188.471  0.00  0.00    +0.000 OA
ATOM      2  O   UNL     1      29.588   1.026 193.560  0.00  0.00    +0.000 OA
ATOM      3  O   UNL     1      31.866   1.826 194.403  0.00  0.00    +0.000 OA
ATOM      4  O   UNL     1      32.715  -1.355 191.836  0.00  0.00    +0.000 OA
ATOM      5  O   UNL     1      32.904   4.181 186.830  0.00  0.00    +0.000 OA
ATOM      6  O   UNL     1      30.923   2.950 194.272  0.00  0.00    +0.000 OA
ATOM      7  O   UNL     1      32.500   0.170 196.091  0.00  0.00    +0.000 OA
ATOM      8  O   UNL     1      34.639  -0.343 190.621  0.00  0.00    +0.000 OA
ATOM      9  C   UNL     1      30.098   0.899 191.075  0.00  0.00    +0.000 C 
ATOM     10  C   UNL     1      30.380   3.495 189.143  0.00  0.00    +0.000 C 
ATOM     11  C   UNL     1      31.345   2.448 189.297  0.00  0.00    +0.000 C 
ATOM     12  C   UNL     1      28.817   1.634 191.281  0.00  0.00    +0.000 C 
ATOM     13  C   UNL     1      31.213   1.365 190.095  0.00  0.00    +0.000 C 
ATOM     14  C   UNL     1      29.248   3.369 189.754  0.00  0.00    +0.000 C 
ATOM     15  C   UNL     1      28.344   2.698 190.605  0.00  0.00    +0.000 C 
ATOM     16  C   UNL     1      30.453  -0.465 191.393  0.00  0.00    +0.000 C 
ATOM     17  C   UNL     1      30.876   4.480 188.165  0.00  0.00    +0.000 C 
ATOM     18  C   UNL     1      31.795  -0.688 191.021  0.00  0.00    +0.000 C 
ATOM     19  C   UNL     1      32.195   0.279 190.167  0.00  0.00    +0.000 C 
ATOM     20  C   UNL     1      29.868   1.694 192.314  0.00  0.00    +0.000 C 
ATOM     21  C   UNL     1      32.178   3.795 187.741  0.00  0.00    +0.000 C 
ATOM     22  C   UNL     1      33.592   0.255 190.064  0.00  0.00    +0.000 C 
ATOM     23  C   UNL     1      29.729   2.453 193.608  0.00  0.00    +0.000 C 
ATOM     24  C   UNL     1      31.839   1.331 195.711  0.00  0.00    +0.000 C 
ATOM     25  C   UNL     1      34.078  -0.879 191.818  0.00  0.00    +0.000 C 
ATOM     26  C   UNL     1      28.440   3.170 194.030  0.00  0.00    +0.000 C 
ATOM     27  C   UNL     1      34.725  -0.702 192.989  0.00  0.00    +0.000 C 
ATOM     28  C   UNL     1      36.138  -0.165 193.044  0.00  0.00    +0.000 C 
ATOM     29  C   UNL     1      33.990  -0.629 194.207  0.00  0.00    +0.000 C 
ATOM     30  C   UNL     1      33.292  -0.300 195.129  0.00  0.00    +0.000 C 
ENDROOT
BRANCH  17  31
ATOM     31  O   UNL     1      29.959   4.635 187.096  0.00  0.00    +0.000 OA
ATOM     32  H   UNL     1      30.323   4.109 186.360  0.00  0.00    +0.000 HD
ENDBRANCH  17  31
BRANCH  17  33
ATOM     33  C   UNL     1      31.114   5.784 188.810  0.00  0.00    +0.000 C 
BRANCH  33  34
ATOM     34  O   UNL     1      31.327   6.951 189.416  0.00  0.00    +0.000 OA
ATOM     35  H   UNL     1      31.109   7.697 188.827  0.00  0.00    +0.000 HD
ENDBRANCH  33  34
ENDBRANCH  17  33
BRANCH  24  36
ATOM     36  C   UNL     1      31.038   1.827 196.607  0.00  0.00    +0.000 C 
BRANCH  36  37
ATOM     37  C   UNL     1      30.055   2.403 197.631  0.00  0.00    +0.000 C 
ATOM     38  C   UNL     1      29.268   2.871 198.407  0.00  0.00    +0.000 C 
BRANCH  38  39
ATOM     39  C   UNL     1      28.248   3.480 199.375  0.00  0.00    +0.000 C 
ATOM     40  C   UNL     1      27.439   3.951 200.126  0.00  0.00    +0.000 C 
BRANCH  40  41
ATOM     41  C   UNL     1      26.400   4.548 201.080  0.00  0.00    +0.000 C 
ATOM     42  C   UNL     1      25.496   5.064 201.912  0.00  0.00    +0.000 C 
ENDBRANCH  40  41
ENDBRANCH  38  39
ENDBRANCH  36  37
ENDBRANCH  24  36
BRANCH  15  43
ATOM     43  O   UNL     1      26.968   2.941 190.526  0.00  0.00    +0.000 OA
BRANCH  43  45
ATOM     44  O   UNL     1      26.529   1.596 188.676  0.00  0.00    +0.000 OA
ATOM     45  C   UNL     1      26.415   2.634 189.313  0.00  0.00    +0.000 C 
BRANCH  45  46
ATOM     46  C   UNL     1      25.632   3.716 188.800  0.00  0.00    +0.000 C 
ATOM     47  C   UNL     1      24.972   4.620 188.377  0.00  0.00    +0.000 C 
ATOM     48  C   UNL     1      24.136   5.775 187.821  0.00  0.00    +0.000 C 
ENDBRANCH  45  46
ENDBRANCH  43  45
ENDBRANCH  15  43
TORSDOF 10
ENDMDL
MODEL 7
REMARK VINA RESULT:      -6.7     34.808     38.622
REMARK  Name = Thapsigargin.pdbqt.pdb
REMARK  10 active torsions:
REMARK  status: ('A' for Active; 'I' for Inactive)
REMARK    1  A    between atoms: O_2  and  C_24
REMARK    2  A    between atoms: C_17  and  O_43
REMARK    3  A    between atoms: C_19  and  C_24
REMARK    4  A    between atoms: C_19  and  O_47
REMARK    5  A    between atoms: C_27  and  C_35
REMARK    6  A    between atoms: C_35  and  C_36
REMARK    7  A    between atoms: C_37  and  C_38
REMARK    8  A    between atoms: C_39  and  C_40
REMARK    9  A    between atoms: C_42  and  O_43
REMARK   10  A    between atoms: C_42  and  C_44
REMARK                            x       y       z     vdW  Elec       q    Type
REMARK                         _______ _______ _______ _____ _____    ______ ____
ROOT
ATOM      1  O   UNL     1      41.573 -18.959 168.956  0.00  0.00    +0.000 OA
ATOM      2  O   UNL     1      43.953 -23.641 171.976  0.00  0.00    +0.000 OA
ATOM      3  O   UNL     1      41.515 -23.629 172.751  0.00  0.00    +0.000 OA
ATOM      4  O   UNL     1      43.038 -19.915 173.901  0.00  0.00    +0.000 OA
ATOM      5  O   UNL     1      40.619 -18.052 167.087  0.00  0.00    +0.000 OA
ATOM      6  O   UNL     1      41.673 -24.395 171.502  0.00  0.00    +0.000 OA
ATOM      7  O   UNL     1      41.647 -24.033 175.162  0.00  0.00    +0.000 OA
ATOM      8  O   UNL     1      41.112 -18.497 173.203  0.00  0.00    +0.000 OA
ATOM      9  C   UNL     1      44.026 -21.373 170.834  0.00  0.00    +0.000 C 
ATOM     10  C   UNL     1      42.665 -20.747 167.952  0.00  0.00    +0.000 C 
ATOM     11  C   UNL     1      42.443 -20.021 169.166  0.00  0.00    +0.000 C 
ATOM     12  C   UNL     1      44.619 -22.402 169.932  0.00  0.00    +0.000 C 
ATOM     13  C   UNL     1      43.023 -20.282 170.358  0.00  0.00    +0.000 C 
ATOM     14  C   UNL     1      43.552 -21.687 167.963  0.00  0.00    +0.000 C 
ATOM     15  C   UNL     1      44.520 -22.498 168.593  0.00  0.00    +0.000 C 
ATOM     16  C   UNL     1      44.448 -20.921 172.140  0.00  0.00    +0.000 C 
ATOM     17  C   UNL     1      41.874 -20.140 166.865  0.00  0.00    +0.000 C 
ATOM     18  C   UNL     1      43.547 -19.939 172.598  0.00  0.00    +0.000 C 
ATOM     19  C   UNL     1      42.823 -19.467 171.561  0.00  0.00    +0.000 C 
ATOM     20  C   UNL     1      43.560 -22.788 170.883  0.00  0.00    +0.000 C 
ATOM     21  C   UNL     1      41.272 -18.948 167.613  0.00  0.00    +0.000 C 
ATOM     22  C   UNL     1      41.720 -18.756 172.051  0.00  0.00    +0.000 C 
ATOM     23  C   UNL     1      43.032 -24.192 171.025  0.00  0.00    +0.000 C 
ATOM     24  C   UNL     1      41.596 -24.490 173.851  0.00  0.00    +0.000 C 
ATOM     25  C   UNL     1      41.668 -19.489 174.066  0.00  0.00    +0.000 C 
ATOM     26  C   UNL     1      43.605 -25.390 170.257  0.00  0.00    +0.000 C 
ATOM     27  C   UNL     1      40.848 -20.212 174.858  0.00  0.00    +0.000 C 
ATOM     28  C   UNL     1      39.392 -19.846 175.039  0.00  0.00    +0.000 C 
ATOM     29  C   UNL     1      41.200 -21.542 175.225  0.00  0.00    +0.000 C 
ATOM     30  C   UNL     1      41.428 -22.722 175.251  0.00  0.00    +0.000 C 
ENDROOT
BRANCH  17  31
ATOM     31  O   UNL     1      42.711 -19.754 165.788  0.00  0.00    +0.000 OA
ATOM     32  H   UNL     1      43.556 -20.220 165.933  0.00  0.00    +0.000 HD
ENDBRANCH  17  31
BRANCH  17  33
ATOM     33  C   UNL     1      40.844 -21.078 166.383  0.00  0.00    +0.000 C 
BRANCH  33  34
ATOM     34  O   UNL     1      39.912 -21.912 165.927  0.00  0.00    +0.000 OA
ATOM     35  H   UNL     1      39.640 -22.547 166.616  0.00  0.00    +0.000 HD
ENDBRANCH  33  34
ENDBRANCH  17  33
BRANCH  24  36
ATOM     36  C   UNL     1      41.819 -25.761 173.702  0.00  0.00    +0.000 C 
BRANCH  36  37
ATOM     37  C   UNL     1      42.128 -27.253 173.543  0.00  0.00    +0.000 C 
ATOM     38  C   UNL     1      42.383 -28.423 173.453  0.00  0.00    +0.000 C 
BRANCH  38  39
ATOM     39  C   UNL     1      42.716 -29.916 173.365  0.00  0.00    +0.000 C 
ATOM     40  C   UNL     1      42.986 -31.084 173.307  0.00  0.00    +0.000 C 
BRANCH  40  41
ATOM     41  C   UNL     1      43.334 -32.574 173.240  0.00  0.00    +0.000 C 
ATOM     42  C   UNL     1      43.637 -33.870 173.185  0.00  0.00    +0.000 C 
ENDBRANCH  40  41
ENDBRANCH  38  39
ENDBRANCH  36  37
ENDBRANCH  24  36
BRANCH  15  43
ATOM     43  O   UNL     1      45.513 -23.143 167.847  0.00  0.00    +0.000 OA
BRANCH  43  45
ATOM     44  O   UNL     1      45.960 -21.548 166.209  0.00  0.00    +0.000 OA
ATOM     45  C   UNL     1      46.300 -22.296 167.115  0.00  0.00    +0.000 C 
BRANCH  45  46
ATOM     46  C   UNL     1      47.670 -22.365 167.522  0.00  0.00    +0.000 C 
ATOM     47  C   UNL     1      48.818 -22.420 167.856  0.00  0.00    +0.000 C 
ATOM     48  C   UNL     1      50.282 -22.499 168.295  0.00  0.00    +0.000 C 
ENDBRANCH  45  46
ENDBRANCH  43  45
ENDBRANCH  15  43
TORSDOF 10
ENDMDL
MODEL 8
REMARK VINA RESULT:      -6.5     33.698     36.697
REMARK  Name = Thapsigargin.pdbqt.pdb
REMARK  10 active torsions:
REMARK  status: ('A' for Active; 'I' for Inactive)
REMARK    1  A    between atoms: O_2  and  C_24
REMARK    2  A    between atoms: C_17  and  O_43
REMARK    3  A    between atoms: C_19  and  C_24
REMARK    4  A    between atoms: C_19  and  O_47
REMARK    5  A    between atoms: C_27  and  C_35
REMARK    6  A    between atoms: C_35  and  C_36
REMARK    7  A    between atoms: C_37  and  C_38
REMARK    8  A    between atoms: C_39  and  C_40
REMARK    9  A    between atoms: C_42  and  O_43
REMARK   10  A    between atoms: C_42  and  C_44
REMARK                            x       y       z     vdW  Elec       q    Type
REMARK                         _______ _______ _______ _____ _____    ______ ____
ROOT
ATOM      1  O   UNL     1      40.617 -24.434 175.342  0.00  0.00    +0.000 OA
ATOM      2  O   UNL     1      38.624 -21.773 170.278  0.00  0.00    +0.000 OA
ATOM      3  O   UNL     1      41.130 -22.045 169.843  0.00  0.00    +0.000 OA
ATOM      4  O   UNL     1      40.874 -19.635 173.243  0.00  0.00    +0.000 OA
ATOM      5  O   UNL     1      40.991 -26.293 176.620  0.00  0.00    +0.000 OA
ATOM      6  O   UNL     1      40.389 -23.259 169.460  0.00  0.00    +0.000 OA
ATOM      7  O   UNL     1      41.800 -19.923 168.822  0.00  0.00    +0.000 OA
ATOM      8  O   UNL     1      42.655 -20.725 174.600  0.00  0.00    +0.000 OA
ATOM      9  C   UNL     1      38.586 -22.290 172.764  0.00  0.00    +0.000 C 
ATOM     10  C   UNL     1      38.913 -25.274 174.005  0.00  0.00    +0.000 C 
ATOM     11  C   UNL     1      39.693 -24.124 174.353  0.00  0.00    +0.000 C 
ATOM     12  C   UNL     1      37.521 -23.076 172.078  0.00  0.00    +0.000 C 
ATOM     13  C   UNL     1      39.541 -22.884 173.840  0.00  0.00    +0.000 C 
ATOM     14  C   UNL     1      37.925 -25.109 173.188  0.00  0.00    +0.000 C 
ATOM     15  C   UNL     1      37.112 -24.332 172.335  0.00  0.00    +0.000 C 
ATOM     16  C   UNL     1      38.758 -20.860 172.889  0.00  0.00    +0.000 C 
ATOM     17  C   UNL     1      39.361 -26.431 174.801  0.00  0.00    +0.000 C 
ATOM     18  C   UNL     1      39.936 -20.602 173.619  0.00  0.00    +0.000 C 
ATOM     19  C   UNL     1      40.315 -21.717 174.279  0.00  0.00    +0.000 C 
ATOM     20  C   UNL     1      38.756 -22.727 171.350  0.00  0.00    +0.000 C 
ATOM     21  C   UNL     1      40.410 -25.751 175.683  0.00  0.00    +0.000 C 
ATOM     22  C   UNL     1      41.635 -21.567 174.721  0.00  0.00    +0.000 C 
ATOM     23  C   UNL     1      39.017 -23.104 169.915  0.00  0.00    +0.000 C 
ATOM     24  C   UNL     1      41.285 -21.211 168.731  0.00  0.00    +0.000 C 
ATOM     25  C   UNL     1      42.266 -19.941 173.473  0.00  0.00    +0.000 C 
ATOM     26  C   UNL     1      37.985 -23.814 169.029  0.00  0.00    +0.000 C 
ATOM     27  C   UNL     1      43.159 -19.710 172.488  0.00  0.00    +0.000 C 
ATOM     28  C   UNL     1      44.624 -20.049 172.647  0.00  0.00    +0.000 C 
ATOM     29  C   UNL     1      42.712 -19.522 171.149  0.00  0.00    +0.000 C 
ATOM     30  C   UNL     1      42.285 -19.656 170.033  0.00  0.00    +0.000 C 
ENDROOT
BRANCH  17  31
ATOM     31  O   UNL     1      38.285 -26.980 175.542  0.00  0.00    +0.000 OA
ATOM     32  H   UNL     1      38.227 -26.445 176.355  0.00  0.00    +0.000 HD
ENDBRANCH  17  31
BRANCH  17  33
ATOM     33  C   UNL     1      39.947 -27.467 173.931  0.00  0.00    +0.000 C 
BRANCH  33  34
ATOM     34  O   UNL     1      40.486 -28.414 173.165  0.00  0.00    +0.000 OA
ATOM     35  H   UNL     1      39.832 -29.104 172.947  0.00  0.00    +0.000 HD
ENDBRANCH  33  34
ENDBRANCH  17  33
BRANCH  24  36
ATOM     36  C   UNL     1      40.783 -21.522 167.574  0.00  0.00    +0.000 C 
BRANCH  36  37
ATOM     37  C   UNL     1      40.229 -21.921 166.202  0.00  0.00    +0.000 C 
ATOM     38  C   UNL     1      39.786 -22.198 165.122  0.00  0.00    +0.000 C 
BRANCH  38  39
ATOM     39  C   UNL     1      39.217 -22.525 163.738  0.00  0.00    +0.000 C 
ATOM     40  C   UNL     1      38.763 -22.793 162.659  0.00  0.00    +0.000 C 
BRANCH  40  41
ATOM     41  C   UNL     1      38.179 -23.140 161.286  0.00  0.00    +0.000 C 
ATOM     42  C   UNL     1      37.669 -23.440 160.093  0.00  0.00    +0.000 C 
ENDBRANCH  40  41
ENDBRANCH  38  39
ENDBRANCH  36  37
ENDBRANCH  24  36
BRANCH  15  43
ATOM     43  O   UNL     1      35.812 -24.740 172.015  0.00  0.00    +0.000 OA
BRANCH  43  45
ATOM     44  O   UNL     1      35.823 -26.943 171.257  0.00  0.00    +0.000 OA
ATOM     45  C   UNL     1      35.611 -26.090 172.108  0.00  0.00    +0.000 C 
BRANCH  45  46
ATOM     46  C   UNL     1      35.080 -26.458 173.385  0.00  0.00    +0.000 C 
ATOM     47  C   UNL     1      34.631 -26.767 174.451  0.00  0.00    +0.000 C 
ATOM     48  C   UNL     1      34.070 -27.156 175.820  0.00  0.00    +0.000 C 
ENDBRANCH  45  46
ENDBRANCH  43  45
ENDBRANCH  15  43
TORSDOF 10
ENDMDL
MODEL 9
REMARK VINA RESULT:      -6.4     22.193     25.545
REMARK  Name = Thapsigargin.pdbqt.pdb
REMARK  10 active torsions:
REMARK  status: ('A' for Active; 'I' for Inactive)
REMARK    1  A    between atoms: O_2  and  C_24
REMARK    2  A    between atoms: C_17  and  O_43
REMARK    3  A    between atoms: C_19  and  C_24
REMARK    4  A    between atoms: C_19  and  O_47
REMARK    5  A    between atoms: C_27  and  C_35
REMARK    6  A    between atoms: C_35  and  C_36
REMARK    7  A    between atoms: C_37  and  C_38
REMARK    8  A    between atoms: C_39  and  C_40
REMARK    9  A    between atoms: C_42  and  O_43
REMARK   10  A    between atoms: C_42  and  C_44
REMARK                            x       y       z     vdW  Elec       q    Type
REMARK                         _______ _______ _______ _____ _____    ______ ____
ROOT
ATOM      1  O   UNL     1      10.725 -15.430 175.571  0.00  0.00    +0.000 OA
ATOM      2  O   UNL     1      13.599 -15.717 180.896  0.00  0.00    +0.000 OA
ATOM      3  O   UNL     1      11.439 -14.471 181.468  0.00  0.00    +0.000 OA
ATOM      4  O   UNL     1      13.352 -12.078 178.632  0.00  0.00    +0.000 OA
ATOM      5  O   UNL     1       9.366 -16.337 173.971  0.00  0.00    +0.000 OA
ATOM      6  O   UNL     1      11.245 -15.931 181.530  0.00  0.00    +0.000 OA
ATOM      7  O   UNL     1      12.160 -12.667 182.958  0.00  0.00    +0.000 OA
ATOM      8  O   UNL     1      11.372 -11.518 177.229  0.00  0.00    +0.000 OA
ATOM      9  C   UNL     1      13.472 -15.602 178.362  0.00  0.00    +0.000 C 
ATOM     10  C   UNL     1      11.453 -17.400 176.561  0.00  0.00    +0.000 C 
ATOM     11  C   UNL     1      11.576 -15.974 176.524  0.00  0.00    +0.000 C 
ATOM     12  C   UNL     1      13.776 -17.001 178.781  0.00  0.00    +0.000 C 
ATOM     13  C   UNL     1      12.427 -15.236 177.269  0.00  0.00    +0.000 C 
ATOM     14  C   UNL     1      12.276 -18.058 177.311  0.00  0.00    +0.000 C 
ATOM     15  C   UNL     1      13.337 -18.151 178.236  0.00  0.00    +0.000 C 
ATOM     16  C   UNL     1      14.230 -14.386 178.550  0.00  0.00    +0.000 C 
ATOM     17  C   UNL     1      10.439 -17.833 175.583  0.00  0.00    +0.000 C 
ATOM     18  C   UNL     1      13.514 -13.309 177.988  0.00  0.00    +0.000 C 
ATOM     19  C   UNL     1      12.571 -13.781 177.145  0.00  0.00    +0.000 C 
ATOM     20  C   UNL     1      12.977 -16.131 179.664  0.00  0.00    +0.000 C 
ATOM     21  C   UNL     1      10.095 -16.483 174.949  0.00  0.00    +0.000 C 
ATOM     22  C   UNL     1      11.658 -12.760 176.854  0.00  0.00    +0.000 C 
ATOM     23  C   UNL     1      12.445 -16.561 181.006  0.00  0.00    +0.000 C 
ATOM     24  C   UNL     1      11.761 -13.980 182.738  0.00  0.00    +0.000 C 
ATOM     25  C   UNL     1      12.087 -11.404 178.458  0.00  0.00    +0.000 C 
ATOM     26  C   UNL     1      12.757 -17.924 181.639  0.00  0.00    +0.000 C 
ATOM     27  C   UNL     1      11.466 -10.888 179.540  0.00  0.00    +0.000 C 
ATOM     28  C   UNL     1      10.119 -10.209 179.434  0.00  0.00    +0.000 C 
ATOM     29  C   UNL     1      11.845 -11.305 180.847  0.00  0.00    +0.000 C 
ATOM     30  C   UNL     1      12.024 -11.907 181.873  0.00  0.00    +0.000 C 
ENDROOT
BRANCH  17  31
ATOM     31  O   UNL     1      10.991 -18.754 174.658  0.00  0.00    +0.000 OA
ATOM     32  H   UNL     1      11.642 -18.247 174.139  0.00  0.00    +0.000 HD
ENDBRANCH  17  31
BRANCH  17  33
ATOM     33  C   UNL     1       9.283 -18.443 176.264  0.00  0.00    +0.000 C 
BRANCH  33  34
ATOM     34  O   UNL     1       8.243 -18.980 176.900  0.00  0.00    +0.000 OA
ATOM     35  H   UNL     1       8.530 -19.462 177.698  0.00  0.00    +0.000 HD
ENDBRANCH  33  34
ENDBRANCH  17  33
BRANCH  24  36
ATOM     36  C   UNL     1      11.887 -14.772 183.760  0.00  0.00    +0.000 C 
BRANCH  36  37
ATOM     37  C   UNL     1      12.078 -15.723 184.946  0.00  0.00    +0.000 C 
ATOM     38  C   UNL     1      12.249 -16.490 185.853  0.00  0.00    +0.000 C 
BRANCH  38  39
ATOM     39  C   UNL     1      12.485 -17.483 186.996  0.00  0.00    +0.000 C 
ATOM     40  C   UNL     1      12.677 -18.270 187.882  0.00  0.00    +0.000 C 
BRANCH  40  41
ATOM     41  C   UNL     1      12.928 -19.277 189.008  0.00  0.00    +0.000 C 
ATOM     42  C   UNL     1      13.148 -20.155 189.986  0.00  0.00    +0.000 C 
ENDBRANCH  40  41
ENDBRANCH  38  39
ENDBRANCH  36  37
ENDBRANCH  24  36
BRANCH  15  43
ATOM     43  O   UNL     1      14.083 -19.330 178.358  0.00  0.00    +0.000 OA
BRANCH  43  45
ATOM     44  O   UNL     1      16.390 -19.012 178.402  0.00  0.00    +0.000 OA
ATOM     45  C   UNL     1      15.339 -19.253 177.823  0.00  0.00    +0.000 C 
BRANCH  45  46
ATOM     46  C   UNL     1      15.329 -19.491 176.412  0.00  0.00    +0.000 C 
ATOM     47  C   UNL     1      15.315 -19.685 175.231  0.00  0.00    +0.000 C 
ATOM     48  C   UNL     1      15.306 -19.947 173.723  0.00  0.00    +0.000 C 
ENDBRANCH  45  46
ENDBRANCH  43  45
ENDBRANCH  15  43
TORSDOF 10
ENDMDL
