MODEL 1
REMARK VINA RESULT:      -5.9      0.000      0.000
REMARK  Name = Thioguanosine.pdbqt.pdb
REMARK  5 active torsions:
REMARK  status: ('A' for Active; 'I' for Inactive)
REMARK    1  A    between atoms: N_2  and  C1*_12
REMARK    2  A    between atoms: C4*_14  and  C5*_17
REMARK    3  A    between atoms: C3*_15  and  O3*_20
REMARK    4  A    between atoms: C2*_16  and  O2*_22
REMARK    5  A    between atoms: C5*_17  and  O5*_18
REMARK                            x       y       z     vdW  Elec       q    Type
REMARK                         _______ _______ _______ _____ _____    ______ ____
ROOT
ATOM      1  S   UNL     1      27.678   3.034 191.864  0.00  0.00    +0.000 S 
ATOM      2  N   UNL     1      22.871   3.049 190.922  0.00  0.00    +0.000 N 
ATOM      3  N   UNL     1      24.225   1.680 189.388  0.00  0.00    +0.000 N 
ATOM      4  N   UNL     1      24.588   3.732 192.230  0.00  0.00    +0.000 NA
ATOM      5  N   UNL     1      26.571   1.673 189.775  0.00  0.00    +0.000 NA
ATOM      6  C   UNL     1      24.031   2.497 190.439  0.00  0.00    +0.000 A 
ATOM      7  C   UNL     1      23.286   3.774 192.028  0.00  0.00    +0.000 A 
ATOM      8  C   UNL     1      25.069   2.932 191.223  0.00  0.00    +0.000 A 
ATOM      9  C   UNL     1      26.429   2.503 190.889  0.00  0.00    +0.000 A 
ATOM     10  C   UNL     1      25.513   1.311 189.110  0.00  0.00    +0.000 A 
ATOM     11  H   UNL     1      23.470   1.380 188.775  0.00  0.00    +0.000 HD
ATOM     12  N   UNL     1      25.623   0.502 188.029  0.00  0.00    +0.000 N 
ATOM     13  H   UNL     1      24.969  -0.269 188.016  0.00  0.00    +0.000 HD
ATOM     14  H   UNL     1      26.578   0.161 187.936  0.00  0.00    +0.000 HD
ENDROOT
BRANCH   2  15
ATOM     15  C1* UNL     1      21.571   2.967 190.462  0.00  0.00    +0.000 A 
ATOM     16  O4* UNL     1      20.719   1.893 190.814  0.00  0.00    +0.000 OA
ATOM     17  C4* UNL     1      19.472   2.067 190.192  0.00  0.00    +0.000 A 
ATOM     18  C3* UNL     1      19.518   3.282 189.430  0.00  0.00    +0.000 A 
ATOM     19  C2* UNL     1      20.819   3.850 189.604  0.00  0.00    +0.000 A 
BRANCH  18  20
ATOM     20  O3* UNL     1      18.836   3.466 188.257  0.00  0.00    +0.000 OA
ATOM     21  H3* UNL     1      18.432   4.352 188.212  0.00  0.00    +0.000 HD
ENDBRANCH  18  20
BRANCH  19  22
ATOM     22  O2* UNL     1      21.395   4.596 188.613  0.00  0.00    +0.000 OA
ATOM     23  H2* UNL     1      22.285   4.886 188.902  0.00  0.00    +0.000 HD
ENDBRANCH  19  22
BRANCH  17  24
ATOM     24  C5* UNL     1      18.497   1.054 190.140  0.00  0.00    +0.000 C 
BRANCH  24  25
ATOM     25  O5* UNL     1      17.593   0.081 190.098  0.00  0.00    +0.000 OA
ATOM     26  H5* UNL     1      18.027  -0.789 190.054  0.00  0.00    +0.000 HD
ENDBRANCH  24  25
ENDBRANCH  17  24
ENDBRANCH   2  15
TORSDOF 5
ENDMDL
MODEL 2
REMARK VINA RESULT:      -5.7     25.306     27.388
REMARK  Name = Thioguanosine.pdbqt.pdb
REMARK  5 active torsions:
REMARK  status: ('A' for Active; 'I' for Inactive)
REMARK    1  A    between atoms: N_2  and  C1*_12
REMARK    2  A    between atoms: C4*_14  and  C5*_17
REMARK    3  A    between atoms: C3*_15  and  O3*_20
REMARK    4  A    between atoms: C2*_16  and  O2*_22
REMARK    5  A    between atoms: C5*_17  and  O5*_18
REMARK                            x       y       z     vdW  Elec       q    Type
REMARK                         _______ _______ _______ _____ _____    ______ ____
ROOT
ATOM      1  S   UNL     1      30.164  -5.926 161.429  0.00  0.00    +0.000 S 
ATOM      2  N   UNL     1      31.278  -2.091 164.265  0.00  0.00    +0.000 N 
ATOM      3  N   UNL     1      29.200  -3.261 164.872  0.00  0.00    +0.000 N 
ATOM      4  N   UNL     1      31.829  -3.439 162.532  0.00  0.00    +0.000 NA
ATOM      5  N   UNL     1      28.589  -5.104 163.499  0.00  0.00    +0.000 NA
ATOM      6  C   UNL     1      30.312  -3.057 164.143  0.00  0.00    +0.000 A 
ATOM      7  C   UNL     1      32.183  -2.400 163.261  0.00  0.00    +0.000 A 
ATOM      8  C   UNL     1      30.641  -3.858 163.079  0.00  0.00    +0.000 A 
ATOM      9  C   UNL     1      29.739  -4.954 162.721  0.00  0.00    +0.000 A 
ATOM     10  C   UNL     1      28.384  -4.293 164.496  0.00  0.00    +0.000 A 
ATOM     11  H   UNL     1      28.923  -2.652 165.639  0.00  0.00    +0.000 HD
ATOM     12  N   UNL     1      27.279  -4.421 165.270  0.00  0.00    +0.000 N 
ATOM     13  H   UNL     1      27.461  -4.388 166.265  0.00  0.00    +0.000 HD
ATOM     14  H   UNL     1      26.771  -5.268 165.027  0.00  0.00    +0.000 HD
ENDROOT
BRANCH   2  15
ATOM     15  C1* UNL     1      31.385  -1.023 165.136  0.00  0.00    +0.000 A 
ATOM     16  O4* UNL     1      30.758  -1.027 166.404  0.00  0.00    +0.000 OA
ATOM     17  C4* UNL     1      31.027   0.187 167.058  0.00  0.00    +0.000 A 
ATOM     18  C3* UNL     1      31.850   0.986 166.197  0.00  0.00    +0.000 A 
ATOM     19  C2* UNL     1      32.084   0.232 165.005  0.00  0.00    +0.000 A 
BRANCH  18  20
ATOM     20  O3* UNL     1      31.791   2.353 166.149  0.00  0.00    +0.000 OA
ATOM     21  H3* UNL     1      30.871   2.670 166.088  0.00  0.00    +0.000 HD
ENDBRANCH  18  20
BRANCH  19  22
ATOM     22  O2* UNL     1      32.268   0.861 163.804  0.00  0.00    +0.000 OA
ATOM     23  H2* UNL     1      33.207   1.122 163.716  0.00  0.00    +0.000 HD
ENDBRANCH  19  22
BRANCH  17  24
ATOM     24  C5* UNL     1      30.348   0.592 168.222  0.00  0.00    +0.000 C 
BRANCH  24  25
ATOM     25  O5* UNL     1      29.687   0.979 169.308  0.00  0.00    +0.000 OA
ATOM     26  H5* UNL     1      29.400   0.207 169.827  0.00  0.00    +0.000 HD
ENDBRANCH  24  25
ENDBRANCH  17  24
ENDBRANCH   2  15
TORSDOF 5
ENDMDL
MODEL 3
REMARK VINA RESULT:      -5.6      2.278      3.202
REMARK  Name = Thioguanosine.pdbqt.pdb
REMARK  5 active torsions:
REMARK  status: ('A' for Active; 'I' for Inactive)
REMARK    1  A    between atoms: N_2  and  C1*_12
REMARK    2  A    between atoms: C4*_14  and  C5*_17
REMARK    3  A    between atoms: C3*_15  and  O3*_20
REMARK    4  A    between atoms: C2*_16  and  O2*_22
REMARK    5  A    between atoms: C5*_17  and  O5*_18
REMARK                            x       y       z     vdW  Elec       q    Type
REMARK                         _______ _______ _______ _____ _____    ______ ____
ROOT
ATOM      1  S   UNL     1      27.555   3.121 191.675  0.00  0.00    +0.000 S 
ATOM      2  N   UNL     1      23.124   1.087 192.149  0.00  0.00    +0.000 N 
ATOM      3  N   UNL     1      24.251   0.630 190.009  0.00  0.00    +0.000 N 
ATOM      4  N   UNL     1      24.790   2.327 193.051  0.00  0.00    +0.000 NA
ATOM      5  N   UNL     1      26.388   1.631 189.710  0.00  0.00    +0.000 NA
ATOM      6  C   UNL     1      24.149   1.163 191.240  0.00  0.00    +0.000 A 
ATOM      7  C   UNL     1      23.594   1.804 193.239  0.00  0.00    +0.000 A 
ATOM      8  C   UNL     1      25.146   1.932 191.785  0.00  0.00    +0.000 A 
ATOM      9  C   UNL     1      26.347   2.192 190.988  0.00  0.00    +0.000 A 
ATOM     10  C   UNL     1      25.388   0.906 189.300  0.00  0.00    +0.000 A 
ATOM     11  H   UNL     1      23.505   0.091 189.578  0.00  0.00    +0.000 HD
ATOM     12  N   UNL     1      25.406   0.346 188.066  0.00  0.00    +0.000 N 
ATOM     13  H   UNL     1      25.142  -0.630 188.047  0.00  0.00    +0.000 HD
ATOM     14  H   UNL     1      26.315   0.478 187.629  0.00  0.00    +0.000 HD
ENDROOT
BRANCH   2  15
ATOM     15  C1* UNL     1      21.885   0.482 192.066  0.00  0.00    +0.000 A 
ATOM     16  O4* UNL     1      20.767   1.141 191.502  0.00  0.00    +0.000 OA
ATOM     17  C4* UNL     1      19.648   0.294 191.565  0.00  0.00    +0.000 A 
ATOM     18  C3* UNL     1      20.055  -0.940 192.175  0.00  0.00    +0.000 A 
ATOM     19  C2* UNL     1      21.449  -0.829 192.479  0.00  0.00    +0.000 A 
BRANCH  18  20
ATOM     20  O3* UNL     1      19.234  -1.699 192.965  0.00  0.00    +0.000 OA
ATOM     21  H3* UNL     1      19.524  -1.691 193.896  0.00  0.00    +0.000 HD
ENDBRANCH  18  20
BRANCH  19  22
ATOM     22  O2* UNL     1      21.986  -1.492 193.548  0.00  0.00    +0.000 OA
ATOM     23  H2* UNL     1      21.685  -1.067 194.377  0.00  0.00    +0.000 HD
ENDBRANCH  19  22
BRANCH  17  24
ATOM     24  C5* UNL     1      18.338   0.741 191.316  0.00  0.00    +0.000 C 
BRANCH  24  25
ATOM     25  O5* UNL     1      17.092   1.143 191.087  0.00  0.00    +0.000 OA
ATOM     26  H5* UNL     1      16.497   0.378 190.996  0.00  0.00    +0.000 HD
ENDBRANCH  24  25
ENDBRANCH  17  24
ENDBRANCH   2  15
TORSDOF 5
ENDMDL
MODEL 4
REMARK VINA RESULT:      -5.6     31.287     33.868
REMARK  Name = Thioguanosine.pdbqt.pdb
REMARK  5 active torsions:
REMARK  status: ('A' for Active; 'I' for Inactive)
REMARK    1  A    between atoms: N_2  and  C1*_12
REMARK    2  A    between atoms: C4*_14  and  C5*_17
REMARK    3  A    between atoms: C3*_15  and  O3*_20
REMARK    4  A    between atoms: C2*_16  and  O2*_22
REMARK    5  A    between atoms: C5*_17  and  O5*_18
REMARK                            x       y       z     vdW  Elec       q    Type
REMARK                         _______ _______ _______ _____ _____    ______ ____
ROOT
ATOM      1  S   UNL     1      41.693  -8.485 165.096  0.00  0.00    +0.000 S 
ATOM      2  N   UNL     1      44.654  -4.587 165.280  0.00  0.00    +0.000 N 
ATOM      3  N   UNL     1      43.597  -5.189 167.420  0.00  0.00    +0.000 N 
ATOM      4  N   UNL     1      43.741  -6.267 164.068  0.00  0.00    +0.000 NA
ATOM      5  N   UNL     1      42.115  -7.048 167.376  0.00  0.00    +0.000 NA
ATOM      6  C   UNL     1      43.856  -5.335 166.108  0.00  0.00    +0.000 A 
ATOM      7  C   UNL     1      44.551  -5.227 164.055  0.00  0.00    +0.000 A 
ATOM      8  C   UNL     1      43.290  -6.338 165.363  0.00  0.00    +0.000 A 
ATOM      9  C   UNL     1      42.363  -7.262 166.019  0.00  0.00    +0.000 A 
ATOM     10  C   UNL     1      42.719  -6.071 167.988  0.00  0.00    +0.000 A 
ATOM     11  H   UNL     1      43.979  -4.427 167.976  0.00  0.00    +0.000 HD
ATOM     12  N   UNL     1      42.500  -5.845 169.306  0.00  0.00    +0.000 N 
ATOM     13  H   UNL     1      43.341  -5.702 169.850  0.00  0.00    +0.000 HD
ATOM     14  H   UNL     1      41.939  -6.594 169.706  0.00  0.00    +0.000 HD
ENDROOT
BRANCH   2  15
ATOM     15  C1* UNL     1      45.395  -3.447 165.526  0.00  0.00    +0.000 A 
ATOM     16  O4* UNL     1      46.781  -3.381 165.247  0.00  0.00    +0.000 OA
ATOM     17  C4* UNL     1      47.268  -2.115 165.610  0.00  0.00    +0.000 A 
ATOM     18  C3* UNL     1      46.172  -1.346 166.127  0.00  0.00    +0.000 A 
ATOM     19  C2* UNL     1      45.003  -2.169 166.066  0.00  0.00    +0.000 A 
BRANCH  18  20
ATOM     20  O3* UNL     1      46.305  -0.408 167.116  0.00  0.00    +0.000 OA
ATOM     21  H3* UNL     1      46.384   0.491 166.748  0.00  0.00    +0.000 HD
ENDBRANCH  18  20
BRANCH  19  22
ATOM     22  O2* UNL     1      43.996  -2.022 166.981  0.00  0.00    +0.000 OA
ATOM     23  H2* UNL     1      44.325  -2.276 167.867  0.00  0.00    +0.000 HD
ENDBRANCH  19  22
BRANCH  17  24
ATOM     24  C5* UNL     1      48.641  -1.820 165.690  0.00  0.00    +0.000 C 
BRANCH  24  25
ATOM     25  O5* UNL     1      49.940  -1.545 165.743  0.00  0.00    +0.000 OA
ATOM     26  H5* UNL     1      50.140  -0.734 165.244  0.00  0.00    +0.000 HD
ENDBRANCH  24  25
ENDBRANCH  17  24
ENDBRANCH   2  15
TORSDOF 5
ENDMDL
MODEL 5
REMARK VINA RESULT:      -5.3     21.127     22.445
REMARK  Name = Thioguanosine.pdbqt.pdb
REMARK  5 active torsions:
REMARK  status: ('A' for Active; 'I' for Inactive)
REMARK    1  A    between atoms: N_2  and  C1*_12
REMARK    2  A    between atoms: C4*_14  and  C5*_17
REMARK    3  A    between atoms: C3*_15  and  O3*_20
REMARK    4  A    between atoms: C2*_16  and  O2*_22
REMARK    5  A    between atoms: C5*_17  and  O5*_18
REMARK                            x       y       z     vdW  Elec       q    Type
REMARK                         _______ _______ _______ _____ _____    ______ ____
ROOT
ATOM      1  S   UNL     1      28.598 -16.644 205.342  0.00  0.00    +0.000 S 
ATOM      2  N   UNL     1      29.901 -16.010 200.662  0.00  0.00    +0.000 N 
ATOM      3  N   UNL     1      27.534 -15.544 201.153  0.00  0.00    +0.000 N 
ATOM      4  N   UNL     1      30.497 -16.540 202.781  0.00  0.00    +0.000 NA
ATOM      5  N   UNL     1      26.839 -15.879 203.402  0.00  0.00    +0.000 NA
ATOM      6  C   UNL     1      28.794 -15.900 201.465  0.00  0.00    +0.000 A 
ATOM      7  C   UNL     1      30.908 -16.385 201.538  0.00  0.00    +0.000 A 
ATOM      8  C   UNL     1      29.157 -16.242 202.742  0.00  0.00    +0.000 A 
ATOM      9  C   UNL     1      28.133 -16.235 203.789  0.00  0.00    +0.000 A 
ATOM     10  C   UNL     1      26.610 -15.559 202.162  0.00  0.00    +0.000 A 
ATOM     11  H   UNL     1      27.242 -15.325 200.203  0.00  0.00    +0.000 HD
ATOM     12  N   UNL     1      25.366 -15.204 201.762  0.00  0.00    +0.000 N 
ATOM     13  H   UNL     1      25.333 -14.368 201.193  0.00  0.00    +0.000 HD
ATOM     14  H   UNL     1      24.746 -15.114 202.564  0.00  0.00    +0.000 HD
ENDROOT
BRANCH   2  15
ATOM     15  C1* UNL     1      30.053 -15.829 199.301  0.00  0.00    +0.000 A 
ATOM     16  O4* UNL     1      31.308 -15.525 198.722  0.00  0.00    +0.000 OA
ATOM     17  C4* UNL     1      31.156 -15.384 197.333  0.00  0.00    +0.000 A 
ATOM     18  C3* UNL     1      29.776 -15.610 197.009  0.00  0.00    +0.000 A 
ATOM     19  C2* UNL     1      29.090 -15.897 198.230  0.00  0.00    +0.000 A 
BRANCH  18  20
ATOM     20  O3* UNL     1      29.127 -14.975 195.984  0.00  0.00    +0.000 OA
ATOM     21  H3* UNL     1      29.751 -14.500 195.405  0.00  0.00    +0.000 HD
ENDBRANCH  18  20
BRANCH  19  22
ATOM     22  O2* UNL     1      27.773 -15.560 198.388  0.00  0.00    +0.000 OA
ATOM     23  H2* UNL     1      27.594 -15.389 199.335  0.00  0.00    +0.000 HD
ENDBRANCH  19  22
BRANCH  17  24
ATOM     24  C5* UNL     1      32.158 -14.842 196.508  0.00  0.00    +0.000 C 
BRANCH  24  25
ATOM     25  O5* UNL     1      33.114 -14.351 195.726  0.00  0.00    +0.000 OA
ATOM     26  H5* UNL     1      32.742 -14.048 194.879  0.00  0.00    +0.000 HD
ENDBRANCH  24  25
ENDBRANCH  17  24
ENDBRANCH   2  15
TORSDOF 5
ENDMDL
MODEL 6
REMARK VINA RESULT:      -5.3     18.970     20.461
REMARK  Name = Thioguanosine.pdbqt.pdb
REMARK  5 active torsions:
REMARK  status: ('A' for Active; 'I' for Inactive)
REMARK    1  A    between atoms: N_2  and  C1*_12
REMARK    2  A    between atoms: C4*_14  and  C5*_17
REMARK    3  A    between atoms: C3*_15  and  O3*_20
REMARK    4  A    between atoms: C2*_16  and  O2*_22
REMARK    5  A    between atoms: C5*_17  and  O5*_18
REMARK                            x       y       z     vdW  Elec       q    Type
REMARK                         _______ _______ _______ _____ _____    ______ ____
ROOT
ATOM      1  S   UNL     1      31.153 -19.129 199.274  0.00  0.00    +0.000 S 
ATOM      2  N   UNL     1      31.212 -14.744 197.091  0.00  0.00    +0.000 N 
ATOM      3  N   UNL     1      29.369 -15.084 198.688  0.00  0.00    +0.000 N 
ATOM      4  N   UNL     1      32.174 -16.772 197.383  0.00  0.00    +0.000 NA
ATOM      5  N   UNL     1      29.269 -17.213 199.744  0.00  0.00    +0.000 NA
ATOM      6  C   UNL     1      30.476 -15.444 198.014  0.00  0.00    +0.000 A 
ATOM      7  C   UNL     1      32.244 -15.609 196.766  0.00  0.00    +0.000 A 
ATOM      8  C   UNL     1      31.053 -16.679 198.171  0.00  0.00    +0.000 A 
ATOM      9  C   UNL     1      30.428 -17.634 199.088  0.00  0.00    +0.000 A 
ATOM     10  C   UNL     1      28.817 -16.011 199.529  0.00  0.00    +0.000 A 
ATOM     11  H   UNL     1      28.909 -14.187 198.554  0.00  0.00    +0.000 HD
ATOM     12  N   UNL     1      27.698 -15.576 200.156  0.00  0.00    +0.000 N 
ATOM     13  H   UNL     1      27.781 -14.655 200.566  0.00  0.00    +0.000 HD
ATOM     14  H   UNL     1      27.396 -16.252 200.854  0.00  0.00    +0.000 HD
ENDROOT
BRANCH   2  15
ATOM     15  C1* UNL     1      31.022 -13.487 196.550  0.00  0.00    +0.000 A 
ATOM     16  O4* UNL     1      30.247 -13.283 195.384  0.00  0.00    +0.000 OA
ATOM     17  C4* UNL     1      30.243 -11.916 195.062  0.00  0.00    +0.000 A 
ATOM     18  C3* UNL     1      31.026 -11.223 196.046  0.00  0.00    +0.000 A 
ATOM     19  C2* UNL     1      31.503 -12.196 196.979  0.00  0.00    +0.000 A 
BRANCH  18  20
ATOM     20  O3* UNL     1      31.769 -10.107 195.771  0.00  0.00    +0.000 OA
ATOM     21  H3* UNL     1      32.657 -10.160 196.171  0.00  0.00    +0.000 HD
ENDBRANCH  18  20
BRANCH  19  22
ATOM     22  O2* UNL     1      32.697 -12.021 197.623  0.00  0.00    +0.000 OA
ATOM     23  H2* UNL     1      33.174 -11.267 197.221  0.00  0.00    +0.000 HD
ENDBRANCH  19  22
BRANCH  17  24
ATOM     24  C5* UNL     1      29.775 -11.424 193.830  0.00  0.00    +0.000 C 
BRANCH  24  25
ATOM     25  O5* UNL     1      29.330 -10.981 192.659  0.00  0.00    +0.000 OA
ATOM     26  H5* UNL     1      28.610 -10.338 192.787  0.00  0.00    +0.000 HD
ENDBRANCH  24  25
ENDBRANCH  17  24
ENDBRANCH   2  15
TORSDOF 5
ENDMDL
MODEL 7
REMARK VINA RESULT:      -5.3      1.784      2.167
REMARK  Name = Thioguanosine.pdbqt.pdb
REMARK  5 active torsions:
REMARK  status: ('A' for Active; 'I' for Inactive)
REMARK    1  A    between atoms: N_2  and  C1*_12
REMARK    2  A    between atoms: C4*_14  and  C5*_17
REMARK    3  A    between atoms: C3*_15  and  O3*_20
REMARK    4  A    between atoms: C2*_16  and  O2*_22
REMARK    5  A    between atoms: C5*_17  and  O5*_18
REMARK                            x       y       z     vdW  Elec       q    Type
REMARK                         _______ _______ _______ _____ _____    ______ ____
ROOT
ATOM      1  S   UNL     1      27.791   3.230 190.728  0.00  0.00    +0.000 S 
ATOM      2  N   UNL     1      23.124   2.046 191.632  0.00  0.00    +0.000 N 
ATOM      3  N   UNL     1      24.085   1.012 189.615  0.00  0.00    +0.000 N 
ATOM      4  N   UNL     1      24.993   3.160 192.257  0.00  0.00    +0.000 NA
ATOM      5  N   UNL     1      26.335   1.589 189.106  0.00  0.00    +0.000 NA
ATOM      6  C   UNL     1      24.113   1.783 190.717  0.00  0.00    +0.000 A 
ATOM      7  C   UNL     1      23.740   2.877 192.554  0.00  0.00    +0.000 A 
ATOM      8  C   UNL     1      25.235   2.477 191.091  0.00  0.00    +0.000 A 
ATOM      9  C   UNL     1      26.430   2.386 190.249  0.00  0.00    +0.000 A 
ATOM     10  C   UNL     1      25.222   0.963 188.856  0.00  0.00    +0.000 A 
ATOM     11  H   UNL     1      23.249   0.523 189.305  0.00  0.00    +0.000 HD
ATOM     12  N   UNL     1      25.106   0.179 187.757  0.00  0.00    +0.000 N 
ATOM     13  H   UNL     1      24.696  -0.729 187.933  0.00  0.00    +0.000 HD
ATOM     14  H   UNL     1      26.007   0.080 187.294  0.00  0.00    +0.000 HD
ENDROOT
BRANCH   2  15
ATOM     15  C1* UNL     1      21.806   1.638 191.680  0.00  0.00    +0.000 A 
ATOM     16  O4* UNL     1      21.235   1.088 192.853  0.00  0.00    +0.000 OA
ATOM     17  C4* UNL     1      19.894   0.754 192.604  0.00  0.00    +0.000 A 
ATOM     18  C3* UNL     1      19.591   1.102 191.245  0.00  0.00    +0.000 A 
ATOM     19  C2* UNL     1      20.776   1.662 190.671  0.00  0.00    +0.000 A 
BRANCH  18  20
ATOM     20  O3* UNL     1      18.708   0.405 190.464  0.00  0.00    +0.000 OA
ATOM     21  H3* UNL     1      19.164  -0.069 189.744  0.00  0.00    +0.000 HD
ENDBRANCH  18  20
BRANCH  19  22
ATOM     22  O2* UNL     1      21.037   1.526 189.335  0.00  0.00    +0.000 OA
ATOM     23  H2* UNL     1      21.754   0.871 189.210  0.00  0.00    +0.000 HD
ENDBRANCH  19  22
BRANCH  17  24
ATOM     24  C5* UNL     1      19.129  -0.035 193.482  0.00  0.00    +0.000 C 
BRANCH  24  25
ATOM     25  O5* UNL     1      18.389  -0.780 194.297  0.00  0.00    +0.000 OA
ATOM     26  H5* UNL     1      18.809  -1.645 194.447  0.00  0.00    +0.000 HD
ENDBRANCH  24  25
ENDBRANCH  17  24
ENDBRANCH   2  15
TORSDOF 5
ENDMDL
MODEL 8
REMARK VINA RESULT:      -5.1      4.000      5.281
REMARK  Name = Thioguanosine.pdbqt.pdb
REMARK  5 active torsions:
REMARK  status: ('A' for Active; 'I' for Inactive)
REMARK    1  A    between atoms: N_2  and  C1*_12
REMARK    2  A    between atoms: C4*_14  and  C5*_17
REMARK    3  A    between atoms: C3*_15  and  O3*_20
REMARK    4  A    between atoms: C2*_16  and  O2*_22
REMARK    5  A    between atoms: C5*_17  and  O5*_18
REMARK                            x       y       z     vdW  Elec       q    Type
REMARK                         _______ _______ _______ _____ _____    ______ ____
ROOT
ATOM      1  S   UNL     1      24.350   0.565 187.727  0.00  0.00    +0.000 S 
ATOM      2  N   UNL     1      22.010   0.547 192.030  0.00  0.00    +0.000 N 
ATOM      3  N   UNL     1      20.714   1.462 190.148  0.00  0.00    +0.000 N 
ATOM      4  N   UNL     1      23.864   0.039 190.834  0.00  0.00    +0.000 NA
ATOM      5  N   UNL     1      21.820   1.534 188.044  0.00  0.00    +0.000 NA
ATOM      6  C   UNL     1      21.795   0.906 190.723  0.00  0.00    +0.000 A 
ATOM      7  C   UNL     1      23.286   0.006 192.019  0.00  0.00    +0.000 A 
ATOM      8  C   UNL     1      22.930   0.615 190.009  0.00  0.00    +0.000 A 
ATOM      9  C   UNL     1      22.963   0.939 188.581  0.00  0.00    +0.000 A 
ATOM     10  C   UNL     1      20.793   1.753 188.813  0.00  0.00    +0.000 A 
ATOM     11  H   UNL     1      19.880   1.719 190.672  0.00  0.00    +0.000 HD
ATOM     12  N   UNL     1      19.670   2.324 188.315  0.00  0.00    +0.000 N 
ATOM     13  H   UNL     1      18.812   1.857 188.579  0.00  0.00    +0.000 HD
ATOM     14  H   UNL     1      19.734   2.410 187.303  0.00  0.00    +0.000 HD
ENDROOT
BRANCH   2  15
ATOM     15  C1* UNL     1      21.208   0.679 193.147  0.00  0.00    +0.000 A 
ATOM     16  O4* UNL     1      21.748   0.942 194.428  0.00  0.00    +0.000 OA
ATOM     17  C4* UNL     1      20.704   1.009 195.366  0.00  0.00    +0.000 A 
ATOM     18  C3* UNL     1      19.466   0.793 194.674  0.00  0.00    +0.000 A 
ATOM     19  C2* UNL     1      19.775   0.597 193.292  0.00  0.00    +0.000 A 
BRANCH  18  20
ATOM     20  O3* UNL     1      18.385   0.167 195.236  0.00  0.00    +0.000 OA
ATOM     21  H3* UNL     1      17.942  -0.424 194.599  0.00  0.00    +0.000 HD
ENDBRANCH  18  20
BRANCH  19  22
ATOM     22  O2* UNL     1      18.990  -0.201 192.505  0.00  0.00    +0.000 OA
ATOM     23  H2* UNL     1      18.749  -1.008 193.003  0.00  0.00    +0.000 HD
ENDBRANCH  19  22
BRANCH  17  24
ATOM     24  C5* UNL     1      20.927   1.009 196.756  0.00  0.00    +0.000 C 
BRANCH  24  25
ATOM     25  O5* UNL     1      21.142   0.986 198.067  0.00  0.00    +0.000 OA
ATOM     26  H5* UNL     1      20.299   1.025 198.553  0.00  0.00    +0.000 HD
ENDBRANCH  24  25
ENDBRANCH  17  24
ENDBRANCH   2  15
TORSDOF 5
ENDMDL
MODEL 9
REMARK VINA RESULT:      -4.9     25.722     27.473
REMARK  Name = Thioguanosine.pdbqt.pdb
REMARK  5 active torsions:
REMARK  status: ('A' for Active; 'I' for Inactive)
REMARK    1  A    between atoms: N_2  and  C1*_12
REMARK    2  A    between atoms: C4*_14  and  C5*_17
REMARK    3  A    between atoms: C3*_15  and  O3*_20
REMARK    4  A    between atoms: C2*_16  and  O2*_22
REMARK    5  A    between atoms: C5*_17  and  O5*_18
REMARK                            x       y       z     vdW  Elec       q    Type
REMARK                         _______ _______ _______ _____ _____    ______ ____
ROOT
ATOM      1  S   UNL     1      30.494  -5.085 161.938  0.00  0.00    +0.000 S 
ATOM      2  N   UNL     1      31.825  -1.129 164.502  0.00  0.00    +0.000 N 
ATOM      3  N   UNL     1      29.509  -1.875 164.873  0.00  0.00    +0.000 N 
ATOM      4  N   UNL     1      32.383  -2.762 163.036  0.00  0.00    +0.000 NA
ATOM      5  N   UNL     1      28.797  -3.766 163.619  0.00  0.00    +0.000 NA
ATOM      6  C   UNL     1      30.735  -1.942 164.323  0.00  0.00    +0.000 A 
ATOM      7  C   UNL     1      32.800  -1.702 163.701  0.00  0.00    +0.000 A 
ATOM      8  C   UNL     1      31.073  -2.916 163.419  0.00  0.00    +0.000 A 
ATOM      9  C   UNL     1      30.058  -3.898 163.032  0.00  0.00    +0.000 A 
ATOM     10  C   UNL     1      28.591  -2.809 164.477  0.00  0.00    +0.000 A 
ATOM     11  H   UNL     1      29.232  -1.135 165.515  0.00  0.00    +0.000 HD
ATOM     12  N   UNL     1      27.380  -2.662 165.065  0.00  0.00    +0.000 N 
ATOM     13  H   UNL     1      27.416  -2.527 166.067  0.00  0.00    +0.000 HD
ATOM     14  H   UNL     1      26.774  -3.445 164.831  0.00  0.00    +0.000 HD
ENDROOT
BRANCH   2  15
ATOM     15  C1* UNL     1      31.986   0.014 165.261  0.00  0.00    +0.000 A 
ATOM     16  O4* UNL     1      33.077   0.894 165.066  0.00  0.00    +0.000 OA
ATOM     17  C4* UNL     1      32.987   1.954 165.984  0.00  0.00    +0.000 A 
ATOM     18  C3* UNL     1      31.811   1.757 166.781  0.00  0.00    +0.000 A 
ATOM     19  C2* UNL     1      31.180   0.557 166.327  0.00  0.00    +0.000 A 
BRANCH  18  20
ATOM     20  O3* UNL     1      31.715   2.133 168.094  0.00  0.00    +0.000 OA
ATOM     21  H3* UNL     1      32.330   2.860 168.304  0.00  0.00    +0.000 HD
ENDBRANCH  18  20
BRANCH  19  22
ATOM     22  O2* UNL     1      30.459  -0.224 167.189  0.00  0.00    +0.000 OA
ATOM     23  H2* UNL     1      29.525   0.067 167.185  0.00  0.00    +0.000 HD
ENDBRANCH  19  22
BRANCH  17  24
ATOM     24  C5* UNL     1      34.043   2.855 166.213  0.00  0.00    +0.000 C 
BRANCH  24  25
ATOM     25  O5* UNL     1      35.054   3.688 166.435  0.00  0.00    +0.000 OA
ATOM     26  H5* UNL     1      34.737   4.507 166.855  0.00  0.00    +0.000 HD
ENDBRANCH  24  25
ENDBRANCH  17  24
ENDBRANCH   2  15
TORSDOF 5
ENDMDL
