MODEL 1
REMARK VINA RESULT:      -8.1      0.000      0.000
REMARK  Name = Trichostatin_A.pdbqt.pdb
REMARK  6 active torsions:
REMARK  status: ('A' for Active; 'I' for Inactive)
REMARK    1  A    between atoms: C_1  and  C_15
REMARK    2  A    between atoms: C_4  and  C_6
REMARK    3  A    between atoms: C_7  and  C_10
REMARK    4  A    between atoms: N_9  and  O_12
REMARK    5  A    between atoms: C_15  and  C_16
REMARK    6  A    between atoms: C_17  and  N_22
REMARK                            x       y       z     vdW  Elec       q    Type
REMARK                         _______ _______ _______ _____ _____    ______ ____
ROOT
ATOM      1  C   UNL     1      19.808   4.848 188.557  0.00  0.00    +0.000 C 
ATOM      2  C   UNL     1      19.130   6.175 188.831  0.00  0.00    +0.000 C 
ATOM      3  C   UNL     1      21.041   4.913 187.866  0.00  0.00    +0.000 C 
ATOM      4  C   UNL     1      22.167   4.917 187.232  0.00  0.00    +0.000 C 
ATOM      5  C   UNL     1      23.449   4.857 188.005  0.00  0.00    +0.000 C 
ENDROOT
BRANCH   4   6
ATOM      6  C   UNL     1      22.189   4.777 185.825  0.00  0.00    +0.000 C 
ATOM      7  C   UNL     1      22.205   4.657 184.629  0.00  0.00    +0.000 C 
BRANCH   7  10
ATOM      8  O   UNL     1      21.569   3.639 182.653  0.00  0.00    +0.000 OA
ATOM      9  N   UNL     1      23.001   5.416 182.517  0.00  0.00    +0.000 N 
ATOM     10  C   UNL     1      22.224   4.521 183.197  0.00  0.00    +0.000 C 
ATOM     11  H   UNL     1      23.554   6.146 182.951  0.00  0.00    +0.000 HD
BRANCH   9  12
ATOM     12  O   UNL     1      23.051   5.305 181.112  0.00  0.00    +0.000 OA
ATOM     13  H   UNL     1      23.522   6.124 180.844  0.00  0.00    +0.000 HD
ENDBRANCH   9  12
ENDBRANCH   7  10
ENDBRANCH   4   6
BRANCH   1  15
ATOM     14  O   UNL     1      18.406   3.065 187.850  0.00  0.00    +0.000 OA
ATOM     15  C   UNL     1      19.133   3.525 188.731  0.00  0.00    +0.000 C 
BRANCH  15  16
ATOM     16  C   UNL     1      19.340   2.739 189.964  0.00  0.00    +0.000 A 
ATOM     17  C   UNL     1      19.807   1.099 192.222  0.00  0.00    +0.000 A 
ATOM     18  C   UNL     1      20.198   3.166 190.973  0.00  0.00    +0.000 A 
ATOM     19  C   UNL     1      18.735   1.488 190.058  0.00  0.00    +0.000 A 
ATOM     20  C   UNL     1      20.414   2.358 192.089  0.00  0.00    +0.000 A 
ATOM     21  C   UNL     1      18.959   0.690 191.181  0.00  0.00    +0.000 A 
BRANCH  17  22
ATOM     22  N   UNL     1      20.017   0.291 193.368  0.00  0.00    +0.000 N 
ATOM     23  C   UNL     1      19.826  -1.149 193.313  0.00  0.00    +0.000 C 
ATOM     24  C   UNL     1      19.998   0.866 194.703  0.00  0.00    +0.000 C 
ENDBRANCH  17  22
ENDBRANCH  15  16
ENDBRANCH   1  15
TORSDOF 6
ENDMDL
MODEL 2
REMARK VINA RESULT:      -8.0      2.962      4.269
REMARK  Name = Trichostatin_A.pdbqt.pdb
REMARK  6 active torsions:
REMARK  status: ('A' for Active; 'I' for Inactive)
REMARK    1  A    between atoms: C_1  and  C_15
REMARK    2  A    between atoms: C_4  and  C_6
REMARK    3  A    between atoms: C_7  and  C_10
REMARK    4  A    between atoms: N_9  and  O_12
REMARK    5  A    between atoms: C_15  and  C_16
REMARK    6  A    between atoms: C_17  and  N_22
REMARK                            x       y       z     vdW  Elec       q    Type
REMARK                         _______ _______ _______ _____ _____    ______ ____
ROOT
ATOM      1  C   UNL     1      19.067   2.500 188.745  0.00  0.00    +0.000 C 
ATOM      2  C   UNL     1      17.821   2.016 188.033  0.00  0.00    +0.000 C 
ATOM      3  C   UNL     1      19.545   3.775 188.359  0.00  0.00    +0.000 C 
ATOM      4  C   UNL     1      20.026   4.931 188.037  0.00  0.00    +0.000 C 
ATOM      5  C   UNL     1      19.678   6.130 188.865  0.00  0.00    +0.000 C 
ENDROOT
BRANCH   4   6
ATOM      6  C   UNL     1      21.025   5.032 187.042  0.00  0.00    +0.000 C 
ATOM      7  C   UNL     1      21.877   5.119 186.198  0.00  0.00    +0.000 C 
BRANCH   7  10
ATOM      8  O   UNL     1      24.071   5.357 185.510  0.00  0.00    +0.000 OA
ATOM      9  N   UNL     1      22.469   5.144 183.892  0.00  0.00    +0.000 N 
ATOM     10  C   UNL     1      22.897   5.216 185.188  0.00  0.00    +0.000 C 
ATOM     11  H   UNL     1      21.503   5.035 183.608  0.00  0.00    +0.000 HD
BRANCH   9  12
ATOM     12  O   UNL     1      23.442   5.245 182.875  0.00  0.00    +0.000 OA
ATOM     13  H   UNL     1      23.941   4.405 182.966  0.00  0.00    +0.000 HD
ENDBRANCH   9  12
ENDBRANCH   7  10
ENDBRANCH   4   6
BRANCH   1  15
ATOM     14  O   UNL     1      19.430   0.774 190.337  0.00  0.00    +0.000 OA
ATOM     15  C   UNL     1      19.928   1.621 189.594  0.00  0.00    +0.000 C 
BRANCH  15  16
ATOM     16  C   UNL     1      21.399   1.747 189.546  0.00  0.00    +0.000 A 
ATOM     17  C   UNL     1      24.225   1.885 189.605  0.00  0.00    +0.000 A 
ATOM     18  C   UNL     1      22.146   1.235 188.490  0.00  0.00    +0.000 A 
ATOM     19  C   UNL     1      22.050   2.301 190.644  0.00  0.00    +0.000 A 
ATOM     20  C   UNL     1      23.538   1.317 188.519  0.00  0.00    +0.000 A 
ATOM     21  C   UNL     1      23.443   2.378 190.662  0.00  0.00    +0.000 A 
BRANCH  17  22
ATOM     22  N   UNL     1      25.639   1.981 189.620  0.00  0.00    +0.000 N 
ATOM     23  C   UNL     1      26.311   3.182 189.153  0.00  0.00    +0.000 C 
ATOM     24  C   UNL     1      26.470   0.789 189.674  0.00  0.00    +0.000 C 
ENDBRANCH  17  22
ENDBRANCH  15  16
ENDBRANCH   1  15
TORSDOF 6
ENDMDL
MODEL 3
REMARK VINA RESULT:      -8.0      3.761      5.255
REMARK  Name = Trichostatin_A.pdbqt.pdb
REMARK  6 active torsions:
REMARK  status: ('A' for Active; 'I' for Inactive)
REMARK    1  A    between atoms: C_1  and  C_15
REMARK    2  A    between atoms: C_4  and  C_6
REMARK    3  A    between atoms: C_7  and  C_10
REMARK    4  A    between atoms: N_9  and  O_12
REMARK    5  A    between atoms: C_15  and  C_16
REMARK    6  A    between atoms: C_17  and  N_22
REMARK                            x       y       z     vdW  Elec       q    Type
REMARK                         _______ _______ _______ _____ _____    ______ ____
ROOT
ATOM      1  C   UNL     1      22.515   4.591 185.307  0.00  0.00    +0.000 C 
ATOM      2  C   UNL     1      23.085   5.275 184.081  0.00  0.00    +0.000 C 
ATOM      3  C   UNL     1      23.135   4.912 186.539  0.00  0.00    +0.000 C 
ATOM      4  C   UNL     1      23.669   5.166 187.688  0.00  0.00    +0.000 C 
ATOM      5  C   UNL     1      23.048   6.200 188.577  0.00  0.00    +0.000 C 
ENDROOT
BRANCH   4   6
ATOM      6  C   UNL     1      24.704   4.342 188.187  0.00  0.00    +0.000 C 
ATOM      7  C   UNL     1      25.585   3.642 188.608  0.00  0.00    +0.000 C 
BRANCH   7  10
ATOM      8  O   UNL     1      27.250   3.134 190.130  0.00  0.00    +0.000 OA
ATOM      9  N   UNL     1      26.909   1.672 188.405  0.00  0.00    +0.000 N 
ATOM     10  C   UNL     1      26.643   2.809 189.116  0.00  0.00    +0.000 C 
ATOM     11  H   UNL     1      26.423   1.392 187.561  0.00  0.00    +0.000 HD
BRANCH   9  12
ATOM     12  O   UNL     1      27.947   0.837 188.870  0.00  0.00    +0.000 OA
ATOM     13  H   UNL     1      27.948   1.008 189.836  0.00  0.00    +0.000 HD
ENDBRANCH   9  12
ENDBRANCH   7  10
ENDBRANCH   4   6
BRANCH   1  15
ATOM     14  O   UNL     1      21.360   2.843 184.187  0.00  0.00    +0.000 OA
ATOM     15  C   UNL     1      21.561   3.442 185.244  0.00  0.00    +0.000 C 
BRANCH  15  16
ATOM     16  C   UNL     1      20.848   2.998 186.458  0.00  0.00    +0.000 A 
ATOM     17  C   UNL     1      19.618   2.220 188.885  0.00  0.00    +0.000 A 
ATOM     18  C   UNL     1      19.586   3.482 186.789  0.00  0.00    +0.000 A 
ATOM     19  C   UNL     1      21.513   2.151 187.342  0.00  0.00    +0.000 A 
ATOM     20  C   UNL     1      18.980   3.085 187.981  0.00  0.00    +0.000 A 
ATOM     21  C   UNL     1      20.896   1.761 188.531  0.00  0.00    +0.000 A 
BRANCH  17  22
ATOM     22  N   UNL     1      18.988   1.808 190.086  0.00  0.00    +0.000 N 
ATOM     23  C   UNL     1      19.733   1.730 191.333  0.00  0.00    +0.000 C 
ATOM     24  C   UNL     1      17.749   1.048 190.060  0.00  0.00    +0.000 C 
ENDBRANCH  17  22
ENDBRANCH  15  16
ENDBRANCH   1  15
TORSDOF 6
ENDMDL
MODEL 4
REMARK VINA RESULT:      -7.7      3.592      4.538
REMARK  Name = Trichostatin_A.pdbqt.pdb
REMARK  6 active torsions:
REMARK  status: ('A' for Active; 'I' for Inactive)
REMARK    1  A    between atoms: C_1  and  C_15
REMARK    2  A    between atoms: C_4  and  C_6
REMARK    3  A    between atoms: C_7  and  C_10
REMARK    4  A    between atoms: N_9  and  O_12
REMARK    5  A    between atoms: C_15  and  C_16
REMARK    6  A    between atoms: C_17  and  N_22
REMARK                            x       y       z     vdW  Elec       q    Type
REMARK                         _______ _______ _______ _____ _____    ______ ____
ROOT
ATOM      1  C   UNL     1      21.454   3.913 186.007  0.00  0.00    +0.000 C 
ATOM      2  C   UNL     1      21.639   3.954 184.503  0.00  0.00    +0.000 C 
ATOM      3  C   UNL     1      22.592   4.248 186.779  0.00  0.00    +0.000 C 
ATOM      4  C   UNL     1      23.602   4.539 187.530  0.00  0.00    +0.000 C 
ATOM      5  C   UNL     1      23.740   5.928 188.076  0.00  0.00    +0.000 C 
ENDROOT
BRANCH   4   6
ATOM      6  C   UNL     1      24.459   3.515 187.996  0.00  0.00    +0.000 C 
ATOM      7  C   UNL     1      25.189   2.645 188.390  0.00  0.00    +0.000 C 
BRANCH   7  10
ATOM      8  O   UNL     1      25.642   0.753 189.638  0.00  0.00    +0.000 OA
ATOM      9  N   UNL     1      27.353   1.651 188.416  0.00  0.00    +0.000 N 
ATOM     10  C   UNL     1      26.064   1.608 188.868  0.00  0.00    +0.000 C 
ATOM     11  H   UNL     1      27.720   2.354 187.786  0.00  0.00    +0.000 HD
BRANCH   9  12
ATOM     12  O   UNL     1      28.241   0.654 188.872  0.00  0.00    +0.000 OA
ATOM     13  H   UNL     1      27.819   0.351 189.706  0.00  0.00    +0.000 HD
ENDBRANCH   9  12
ENDBRANCH   7  10
ENDBRANCH   4   6
BRANCH   1  15
ATOM     14  O   UNL     1      19.220   3.108 186.059  0.00  0.00    +0.000 OA
ATOM     15  C   UNL     1      20.268   3.298 186.676  0.00  0.00    +0.000 C 
BRANCH  15  16
ATOM     16  C   UNL     1      20.340   2.894 188.095  0.00  0.00    +0.000 A 
ATOM     17  C   UNL     1      20.294   2.095 190.810  0.00  0.00    +0.000 A 
ATOM     18  C   UNL     1      21.045   1.766 188.504  0.00  0.00    +0.000 A 
ATOM     19  C   UNL     1      19.588   3.609 189.024  0.00  0.00    +0.000 A 
ATOM     20  C   UNL     1      21.028   1.385 189.846  0.00  0.00    +0.000 A 
ATOM     21  C   UNL     1      19.581   3.218 190.363  0.00  0.00    +0.000 A 
BRANCH  17  22
ATOM     22  N   UNL     1      20.297   1.712 192.174  0.00  0.00    +0.000 N 
ATOM     23  C   UNL     1      19.160   1.019 192.758  0.00  0.00    +0.000 C 
ATOM     24  C   UNL     1      21.189   2.348 193.130  0.00  0.00    +0.000 C 
ENDBRANCH  17  22
ENDBRANCH  15  16
ENDBRANCH   1  15
TORSDOF 6
ENDMDL
MODEL 5
REMARK VINA RESULT:      -6.8      3.647      7.507
REMARK  Name = Trichostatin_A.pdbqt.pdb
REMARK  6 active torsions:
REMARK  status: ('A' for Active; 'I' for Inactive)
REMARK    1  A    between atoms: C_1  and  C_15
REMARK    2  A    between atoms: C_4  and  C_6
REMARK    3  A    between atoms: C_7  and  C_10
REMARK    4  A    between atoms: N_9  and  O_12
REMARK    5  A    between atoms: C_15  and  C_16
REMARK    6  A    between atoms: C_17  and  N_22
REMARK                            x       y       z     vdW  Elec       q    Type
REMARK                         _______ _______ _______ _____ _____    ______ ____
ROOT
ATOM      1  C   UNL     1      20.129   3.648 187.995  0.00  0.00    +0.000 C 
ATOM      2  C   UNL     1      20.020   5.085 188.461  0.00  0.00    +0.000 C 
ATOM      3  C   UNL     1      19.290   2.718 188.655  0.00  0.00    +0.000 C 
ATOM      4  C   UNL     1      18.551   1.829 189.230  0.00  0.00    +0.000 C 
ATOM      5  C   UNL     1      17.256   1.424 188.595  0.00  0.00    +0.000 C 
ENDROOT
BRANCH   4   6
ATOM      6  C   UNL     1      19.046   1.100 190.337  0.00  0.00    +0.000 C 
ATOM      7  C   UNL     1      19.471   0.480 191.275  0.00  0.00    +0.000 C 
BRANCH   7  10
ATOM      8  O   UNL     1      21.157  -0.149 192.725  0.00  0.00    +0.000 OA
ATOM      9  N   UNL     1      19.082  -1.052 193.056  0.00  0.00    +0.000 N 
ATOM     10  C   UNL     1      19.980  -0.256 192.402  0.00  0.00    +0.000 C 
ATOM     11  H   UNL     1      18.108  -1.158 192.797  0.00  0.00    +0.000 HD
BRANCH   9  12
ATOM     12  O   UNL     1      19.550  -1.796 194.160  0.00  0.00    +0.000 OA
ATOM     13  H   UNL     1      20.333  -2.262 193.794  0.00  0.00    +0.000 HD
ENDBRANCH   9  12
ENDBRANCH   7  10
ENDBRANCH   4   6
BRANCH   1  15
ATOM     14  O   UNL     1      21.032   2.965 185.906  0.00  0.00    +0.000 OA
ATOM     15  C   UNL     1      21.224   3.148 187.109  0.00  0.00    +0.000 C 
BRANCH  15  16
ATOM     16  C   UNL     1      22.565   2.875 187.663  0.00  0.00    +0.000 A 
ATOM     17  C   UNL     1      25.175   2.262 188.569  0.00  0.00    +0.000 A 
ATOM     18  C   UNL     1      23.464   3.897 187.951  0.00  0.00    +0.000 A 
ATOM     19  C   UNL     1      22.968   1.548 187.795  0.00  0.00    +0.000 A 
ATOM     20  C   UNL     1      24.745   3.589 188.409  0.00  0.00    +0.000 A 
ATOM     21  C   UNL     1      24.251   1.252 188.255  0.00  0.00    +0.000 A 
BRANCH  17  22
ATOM     22  N   UNL     1      26.472   1.956 189.052  0.00  0.00    +0.000 N 
ATOM     23  C   UNL     1      26.748   0.685 189.702  0.00  0.00    +0.000 C 
ATOM     24  C   UNL     1      27.440   3.008 189.318  0.00  0.00    +0.000 C 
ENDBRANCH  17  22
ENDBRANCH  15  16
ENDBRANCH   1  15
TORSDOF 6
ENDMDL
MODEL 6
REMARK VINA RESULT:      -6.7      4.800      7.695
REMARK  Name = Trichostatin_A.pdbqt.pdb
REMARK  6 active torsions:
REMARK  status: ('A' for Active; 'I' for Inactive)
REMARK    1  A    between atoms: C_1  and  C_15
REMARK    2  A    between atoms: C_4  and  C_6
REMARK    3  A    between atoms: C_7  and  C_10
REMARK    4  A    between atoms: N_9  and  O_12
REMARK    5  A    between atoms: C_15  and  C_16
REMARK    6  A    between atoms: C_17  and  N_22
REMARK                            x       y       z     vdW  Elec       q    Type
REMARK                         _______ _______ _______ _____ _____    ______ ____
ROOT
ATOM      1  C   UNL     1      20.582  -0.558 193.263  0.00  0.00    +0.000 C 
ATOM      2  C   UNL     1      20.654  -1.656 194.305  0.00  0.00    +0.000 C 
ATOM      3  C   UNL     1      21.817  -0.160 192.697  0.00  0.00    +0.000 C 
ATOM      4  C   UNL     1      22.917   0.244 192.154  0.00  0.00    +0.000 C 
ATOM      5  C   UNL     1      23.334  -0.315 190.828  0.00  0.00    +0.000 C 
ENDROOT
BRANCH   4   6
ATOM      6  C   UNL     1      23.617   1.344 192.703  0.00  0.00    +0.000 C 
ATOM      7  C   UNL     1      24.213   2.276 193.172  0.00  0.00    +0.000 C 
BRANCH   7  10
ATOM      8  O   UNL     1      24.514   4.534 193.569  0.00  0.00    +0.000 OA
ATOM      9  N   UNL     1      26.071   3.091 194.419  0.00  0.00    +0.000 N 
ATOM     10  C   UNL     1      24.931   3.392 193.728  0.00  0.00    +0.000 C 
ATOM     11  H   UNL     1      26.434   2.154 194.553  0.00  0.00    +0.000 HD
BRANCH   9  12
ATOM     12  O   UNL     1      26.806   4.162 194.969  0.00  0.00    +0.000 OA
ATOM     13  H   UNL     1      26.922   4.764 194.203  0.00  0.00    +0.000 HD
ENDBRANCH   9  12
ENDBRANCH   7  10
ENDBRANCH   4   6
BRANCH   1  15
ATOM     14  O   UNL     1      18.415   0.250 193.807  0.00  0.00    +0.000 OA
ATOM     15  C   UNL     1      19.363   0.272 193.021  0.00  0.00    +0.000 C 
BRANCH  15  16
ATOM     16  C   UNL     1      19.281   1.147 191.834  0.00  0.00    +0.000 A 
ATOM     17  C   UNL     1      19.307   2.831 189.560  0.00  0.00    +0.000 A 
ATOM     18  C   UNL     1      18.738   0.706 190.631  0.00  0.00    +0.000 A 
ATOM     19  C   UNL     1      19.862   2.411 191.904  0.00  0.00    +0.000 A 
ATOM     20  C   UNL     1      18.744   1.546 189.517  0.00  0.00    +0.000 A 
ATOM     21  C   UNL     1      19.861   3.241 190.783  0.00  0.00    +0.000 A 
BRANCH  17  22
ATOM     22  N   UNL     1      19.293   3.685 188.429  0.00  0.00    +0.000 N 
ATOM     23  C   UNL     1      19.217   3.141 187.082  0.00  0.00    +0.000 C 
ATOM     24  C   UNL     1      19.781   5.052 188.515  0.00  0.00    +0.000 C 
ENDBRANCH  17  22
ENDBRANCH  15  16
ENDBRANCH   1  15
TORSDOF 6
ENDMDL
MODEL 7
REMARK VINA RESULT:      -6.7      3.849      6.343
REMARK  Name = Trichostatin_A.pdbqt.pdb
REMARK  6 active torsions:
REMARK  status: ('A' for Active; 'I' for Inactive)
REMARK    1  A    between atoms: C_1  and  C_15
REMARK    2  A    between atoms: C_4  and  C_6
REMARK    3  A    between atoms: C_7  and  C_10
REMARK    4  A    between atoms: N_9  and  O_12
REMARK    5  A    between atoms: C_15  and  C_16
REMARK    6  A    between atoms: C_17  and  N_22
REMARK                            x       y       z     vdW  Elec       q    Type
REMARK                         _______ _______ _______ _____ _____    ______ ____
ROOT
ATOM      1  C   UNL     1      20.814   0.755 193.804  0.00  0.00    +0.000 C 
ATOM      2  C   UNL     1      21.082   1.054 195.265  0.00  0.00    +0.000 C 
ATOM      3  C   UNL     1      21.954   0.484 193.009  0.00  0.00    +0.000 C 
ATOM      4  C   UNL     1      22.961   0.237 192.239  0.00  0.00    +0.000 C 
ATOM      5  C   UNL     1      23.341  -1.184 191.956  0.00  0.00    +0.000 C 
ENDROOT
BRANCH   4   6
ATOM      6  C   UNL     1      23.572   1.284 191.511  0.00  0.00    +0.000 C 
ATOM      7  C   UNL     1      24.094   2.173 190.894  0.00  0.00    +0.000 C 
BRANCH   7  10
ATOM      8  O   UNL     1      24.345   4.393 190.300  0.00  0.00    +0.000 OA
ATOM      9  N   UNL     1      25.712   2.864 189.288  0.00  0.00    +0.000 N 
ATOM     10  C   UNL     1      24.716   3.235 190.148  0.00  0.00    +0.000 C 
ATOM     11  H   UNL     1      26.026   1.912 189.145  0.00  0.00    +0.000 HD
BRANCH   9  12
ATOM     12  O   UNL     1      26.337   3.879 188.534  0.00  0.00    +0.000 OA
ATOM     13  H   UNL     1      25.577   4.346 188.124  0.00  0.00    +0.000 HD
ENDBRANCH   9  12
ENDBRANCH   7  10
ENDBRANCH   4   6
BRANCH   1  15
ATOM     14  O   UNL     1      18.444   0.644 193.678  0.00  0.00    +0.000 OA
ATOM     15  C   UNL     1      19.496   0.992 193.141  0.00  0.00    +0.000 C 
BRANCH  15  16
ATOM     16  C   UNL     1      19.434   1.664 191.827  0.00  0.00    +0.000 A 
ATOM     17  C   UNL     1      19.498   2.942 189.303  0.00  0.00    +0.000 A 
ATOM     18  C   UNL     1      18.814   1.075 190.729  0.00  0.00    +0.000 A 
ATOM     19  C   UNL     1      20.110   2.871 191.670  0.00  0.00    +0.000 A 
ATOM     20  C   UNL     1      18.839   1.716 189.490  0.00  0.00    +0.000 A 
ATOM     21  C   UNL     1      20.126   3.503 190.426  0.00  0.00    +0.000 A 
BRANCH  17  22
ATOM     22  N   UNL     1      19.504   3.596 188.046  0.00  0.00    +0.000 N 
ATOM     23  C   UNL     1      19.118   2.891 186.834  0.00  0.00    +0.000 C 
ATOM     24  C   UNL     1      20.281   4.807 187.834  0.00  0.00    +0.000 C 
ENDBRANCH  17  22
ENDBRANCH  15  16
ENDBRANCH   1  15
TORSDOF 6
ENDMDL
MODEL 8
REMARK VINA RESULT:      -6.7      3.862      7.445
REMARK  Name = Trichostatin_A.pdbqt.pdb
REMARK  6 active torsions:
REMARK  status: ('A' for Active; 'I' for Inactive)
REMARK    1  A    between atoms: C_1  and  C_15
REMARK    2  A    between atoms: C_4  and  C_6
REMARK    3  A    between atoms: C_7  and  C_10
REMARK    4  A    between atoms: N_9  and  O_12
REMARK    5  A    between atoms: C_15  and  C_16
REMARK    6  A    between atoms: C_17  and  N_22
REMARK                            x       y       z     vdW  Elec       q    Type
REMARK                         _______ _______ _______ _____ _____    ______ ____
ROOT
ATOM      1  C   UNL     1      20.263   3.306 188.889  0.00  0.00    +0.000 C 
ATOM      2  C   UNL     1      20.002   4.797 188.955  0.00  0.00    +0.000 C 
ATOM      3  C   UNL     1      19.297   2.481 189.514  0.00  0.00    +0.000 C 
ATOM      4  C   UNL     1      18.449   1.684 190.075  0.00  0.00    +0.000 C 
ATOM      5  C   UNL     1      17.382   1.039 189.244  0.00  0.00    +0.000 C 
ENDROOT
BRANCH   4   6
ATOM      6  C   UNL     1      18.645   1.266 191.412  0.00  0.00    +0.000 C 
ATOM      7  C   UNL     1      18.814   0.910 192.547  0.00  0.00    +0.000 C 
BRANCH   7  10
ATOM      8  O   UNL     1      19.826   1.077 194.619  0.00  0.00    +0.000 OA
ATOM      9  N   UNL     1      18.268  -0.572 194.330  0.00  0.00    +0.000 N 
ATOM     10  C   UNL     1      19.017   0.491 193.909  0.00  0.00    +0.000 C 
ATOM     11  H   UNL     1      17.601  -1.072 193.754  0.00  0.00    +0.000 HD
BRANCH   9  12
ATOM     12  O   UNL     1      18.449  -1.016 195.657  0.00  0.00    +0.000 OA
ATOM     13  H   UNL     1      18.950  -0.278 196.067  0.00  0.00    +0.000 HD
ENDBRANCH   9  12
ENDBRANCH   7  10
ENDBRANCH   4   6
BRANCH   1  15
ATOM     14  O   UNL     1      21.897   2.706 187.273  0.00  0.00    +0.000 OA
ATOM     15  C   UNL     1      21.566   2.714 188.459  0.00  0.00    +0.000 C 
BRANCH  15  16
ATOM     16  C   UNL     1      22.489   2.138 189.458  0.00  0.00    +0.000 A 
ATOM     17  C   UNL     1      24.314   0.915 191.242  0.00  0.00    +0.000 A 
ATOM     18  C   UNL     1      23.520   2.882 190.022  0.00  0.00    +0.000 A 
ATOM     19  C   UNL     1      22.377   0.781 189.754  0.00  0.00    +0.000 A 
ATOM     20  C   UNL     1      24.408   2.276 190.910  0.00  0.00    +0.000 A 
ATOM     21  C   UNL     1      23.272   0.188 190.644  0.00  0.00    +0.000 A 
BRANCH  17  22
ATOM     22  N   UNL     1      25.209   0.311 192.159  0.00  0.00    +0.000 N 
ATOM     23  C   UNL     1      25.190  -1.124 192.388  0.00  0.00    +0.000 C 
ATOM     24  C   UNL     1      25.856   1.093 193.200  0.00  0.00    +0.000 C 
ENDBRANCH  17  22
ENDBRANCH  15  16
ENDBRANCH   1  15
TORSDOF 6
ENDMDL
MODEL 9
REMARK VINA RESULT:      -6.4      4.339      5.208
REMARK  Name = Trichostatin_A.pdbqt.pdb
REMARK  6 active torsions:
REMARK  status: ('A' for Active; 'I' for Inactive)
REMARK    1  A    between atoms: C_1  and  C_15
REMARK    2  A    between atoms: C_4  and  C_6
REMARK    3  A    between atoms: C_7  and  C_10
REMARK    4  A    between atoms: N_9  and  O_12
REMARK    5  A    between atoms: C_15  and  C_16
REMARK    6  A    between atoms: C_17  and  N_22
REMARK                            x       y       z     vdW  Elec       q    Type
REMARK                         _______ _______ _______ _____ _____    ______ ____
ROOT
ATOM      1  C   UNL     1      19.470   2.131 190.308  0.00  0.00    +0.000 C 
ATOM      2  C   UNL     1      18.845   3.037 189.267  0.00  0.00    +0.000 C 
ATOM      3  C   UNL     1      20.799   2.444 190.683  0.00  0.00    +0.000 C 
ATOM      4  C   UNL     1      22.013   2.682 191.055  0.00  0.00    +0.000 C 
ATOM      5  C   UNL     1      22.259   3.473 192.304  0.00  0.00    +0.000 C 
ENDROOT
BRANCH   4   6
ATOM      6  C   UNL     1      23.093   2.039 190.408  0.00  0.00    +0.000 C 
ATOM      7  C   UNL     1      24.013   1.494 189.860  0.00  0.00    +0.000 C 
BRANCH   7  10
ATOM      8  O   UNL     1      25.065   0.602 188.004  0.00  0.00    +0.000 OA
ATOM      9  N   UNL     1      26.172   0.499 190.002  0.00  0.00    +0.000 N 
ATOM     10  C   UNL     1      25.113   0.834 189.207  0.00  0.00    +0.000 C 
ATOM     11  H   UNL     1      26.225   0.676 190.998  0.00  0.00    +0.000 HD
BRANCH   9  12
ATOM     12  O   UNL     1      27.264  -0.158 189.396  0.00  0.00    +0.000 OA
ATOM     13  H   UNL     1      27.171  -1.080 189.720  0.00  0.00    +0.000 HD
ENDBRANCH   9  12
ENDBRANCH   7  10
ENDBRANCH   4   6
BRANCH   1  15
ATOM     14  O   UNL     1      18.158   0.180 189.966  0.00  0.00    +0.000 OA
ATOM     15  C   UNL     1      18.877   0.826 190.730  0.00  0.00    +0.000 C 
BRANCH  15  16
ATOM     16  C   UNL     1      19.156   0.280 192.073  0.00  0.00    +0.000 A 
ATOM     17  C   UNL     1      19.509  -0.780 194.673  0.00  0.00    +0.000 A 
ATOM     18  C   UNL     1      19.832  -0.923 192.252  0.00  0.00    +0.000 A 
ATOM     19  C   UNL     1      18.629   0.944 193.178  0.00  0.00    +0.000 A 
ATOM     20  C   UNL     1      20.013  -1.434 193.538  0.00  0.00    +0.000 A 
ATOM     21  C   UNL     1      18.818   0.423 194.459  0.00  0.00    +0.000 A 
BRANCH  17  22
ATOM     22  N   UNL     1      19.713  -1.296 195.978  0.00  0.00    +0.000 N 
ATOM     23  C   UNL     1      18.802  -0.967 197.062  0.00  0.00    +0.000 C 
ATOM     24  C   UNL     1      21.016  -1.788 196.394  0.00  0.00    +0.000 C 
ENDBRANCH  17  22
ENDBRANCH  15  16
ENDBRANCH   1  15
TORSDOF 6
ENDMDL
