REMARK  Name = Trichostatin_A.pdbqt.pdb
REMARK  6 active torsions:
REMARK  status: ('A' for Active; 'I' for Inactive)
REMARK    1  A    between atoms: C_1  and  C_15
REMARK    2  A    between atoms: C_4  and  C_6
REMARK    3  A    between atoms: C_7  and  C_10
REMARK    4  A    between atoms: N_9  and  O_12
REMARK    5  A    between atoms: C_15  and  C_16
REMARK    6  A    between atoms: C_17  and  N_22
REMARK                            x       y       z     vdW  Elec       q    Type
REMARK                         _______ _______ _______ _____ _____    ______ ____
ROOT
ATOM      1  C   UNL     1       0.143   0.727   0.951  0.00  0.00    +0.000 C 
ATOM      2  C   UNL     1      -0.269   2.183   0.872  0.00  0.00    +0.000 C 
ATOM      3  C   UNL     1       1.434   0.477   1.475  0.00  0.00    +0.000 C 
ATOM      4  C   UNL     1       2.606   0.195   1.940  0.00  0.00    +0.000 C 
ATOM      5  C   UNL     1       2.755  -0.191   3.380  0.00  0.00    +0.000 C 
ENDROOT
BRANCH   4   6
ATOM      6  C   UNL     1       3.704   0.056   1.060  0.00  0.00    +0.000 C 
ATOM      7  C   UNL     1       4.637  -0.066   0.312  0.00  0.00    +0.000 C 
BRANCH   7  10
ATOM      8  O   UNL     1       5.707   0.297  -1.705  0.00  0.00    +0.000 OA
ATOM      9  N   UNL     1       6.816  -0.924  -0.121  0.00  0.00    +0.000 N 
ATOM     10  C   UNL     1       5.750  -0.208  -0.589  0.00  0.00    +0.000 C 
ATOM     11  H   UNL     1       6.865  -1.354   0.795  0.00  0.00    +0.000 HD
BRANCH   9  12
ATOM     12  O   UNL     1       7.921  -1.091  -0.982  0.00  0.00    +0.000 OA
ATOM     13  H   UNL     1       7.642  -0.610  -1.791  0.00  0.00    +0.000 HD
ENDBRANCH   9  12
ENDBRANCH   7  10
ENDBRANCH   4   6
BRANCH   1  15
ATOM     14  O   UNL     1      -0.039  -1.432  -0.023  0.00  0.00    +0.000 OA
ATOM     15  C   UNL     1      -0.603  -0.380   0.279  0.00  0.00    +0.000 C 
BRANCH  15  16
ATOM     16  C   UNL     1      -2.041  -0.233  -0.024  0.00  0.00    +0.000 A 
ATOM     17  C   UNL     1      -4.814  -0.133  -0.580  0.00  0.00    +0.000 A 
ATOM     18  C   UNL     1      -2.889   0.520   0.782  0.00  0.00    +0.000 A 
ATOM     19  C   UNL     1      -2.569  -0.960  -1.088  0.00  0.00    +0.000 A 
ATOM     20  C   UNL     1      -4.253   0.575   0.495  0.00  0.00    +0.000 A 
ATOM     21  C   UNL     1      -3.935  -0.896  -1.365  0.00  0.00    +0.000 A 
BRANCH  17  22
ATOM     22  N   UNL     1      -6.198  -0.058  -0.876  0.00  0.00    +0.000 N 
ATOM     23  C   UNL     1      -7.129   0.560   0.054  0.00  0.00    +0.000 C 
ATOM     24  C   UNL     1      -6.803  -0.942  -1.859  0.00  0.00    +0.000 C 
ENDBRANCH  17  22
ENDBRANCH  15  16
ENDBRANCH   1  15
TORSDOF 6
