MODEL 1
REMARK VINA RESULT:      -9.6      0.000      0.000
REMARK  Name = Troglitazone.pdbqt.pdb
REMARK  4 active torsions:
REMARK  status: ('A' for Active; 'I' for Inactive)
REMARK    1  A    between atoms: C_1  and  O_2
REMARK    2  A    between atoms: C_1  and  C_18
REMARK    3  A    between atoms: O_2  and  C_3
REMARK    4  A    between atoms: C_26  and  O_32
REMARK                            x       y       z     vdW  Elec       q    Type
REMARK                         _______ _______ _______ _____ _____    ______ ____
ROOT
ATOM      1  C   UNL     1      21.398   1.249 190.825  0.00  0.00    +0.000 C 
ENDROOT
BRANCH   1   2
ATOM      2  C   UNL     1      21.508   2.591 190.229  0.00  0.00    +0.000 C 
ATOM      3  O   UNL     1      21.346   2.434 188.773  0.00  0.00    +0.000 OA
ATOM      4  C   UNL     1      22.003   3.235 187.831  0.00  0.00    +0.000 A 
ATOM      5  C   UNL     1      23.190   3.976 188.105  0.00  0.00    +0.000 A 
ATOM      6  C   UNL     1      21.471   3.245 186.524  0.00  0.00    +0.000 A 
ATOM      7  C   UNL     1      23.645   3.879 189.446  0.00  0.00    +0.000 C 
ATOM      8  C   UNL     1      23.823   4.736 187.113  0.00  0.00    +0.000 A 
ATOM      9  C   UNL     1      22.814   3.191 190.475  0.00  0.00    +0.000 C 
ATOM     10  C   UNL     1      23.274   4.754 185.821  0.00  0.00    +0.000 A 
ATOM     11  C   UNL     1      25.082   5.513 187.431  0.00  0.00    +0.000 C 
ATOM     12  C   UNL     1      22.109   4.014 185.526  0.00  0.00    +0.000 A 
ATOM     13  C   UNL     1      21.614   4.096 184.082  0.00  0.00    +0.000 C 
ATOM     14  C   UNL     1      20.232   2.410 186.229  0.00  0.00    +0.000 C 
ATOM     15  C   UNL     1      20.368   3.523 190.708  0.00  0.00    +0.000 C 
BRANCH  10  16
ATOM     16  O   UNL     1      23.882   5.495 184.822  0.00  0.00    +0.000 OA
ATOM     17  H   UNL     1      23.956   6.424 185.131  0.00  0.00    +0.000 HD
ENDBRANCH  10  16
ENDBRANCH   1   2
BRANCH   1  18
ATOM     18  O   UNL     1      21.298   0.038 191.375  0.00  0.00    +0.000 OA
BRANCH  18  19
ATOM     19  C   UNL     1      20.679   0.015 192.601  0.00  0.00    +0.000 C 
ATOM     20  C   UNL     1      20.549   1.121 193.442  0.00  0.00    +0.000 C 
ATOM     21  C   UNL     1      19.898   1.000 194.666  0.00  0.00    +0.000 C 
ATOM     22  C   UNL     1      19.374  -0.231 195.053  0.00  0.00    +0.000 C 
ATOM     23  C   UNL     1      19.501  -1.339 194.218  0.00  0.00    +0.000 C 
ATOM     24  C   UNL     1      20.152  -1.215 192.993  0.00  0.00    +0.000 C 
ATOM     25  C   UNL     1      18.706  -0.357 196.304  0.00  0.00    +0.000 C 
ATOM     26  C   UNL     1      18.049  -0.491 197.548  0.00  0.00    +0.000 C 
ATOM     27  S   UNL     1      16.985   0.678 198.231  0.00  0.00    +0.000 S 
ATOM     28  C   UNL     1      16.696  -0.313 199.647  0.00  0.00    +0.000 C 
ATOM     29  O   UNL     1      15.960   0.001 200.567  0.00  0.00    +0.000 OA
ATOM     30  N   UNL     1      17.405  -1.467 199.554  0.00  0.00    +0.000 N 
ATOM     31  C   UNL     1      18.168  -1.662 198.442  0.00  0.00    +0.000 C 
ATOM     32  H   UNL     1      17.355  -2.162 200.281  0.00  0.00    +0.000 HD
ATOM     33  O   UNL     1      18.841  -2.655 198.222  0.00  0.00    +0.000 OA
ENDBRANCH  18  19
ENDBRANCH   1  18
TORSDOF 4
ENDMDL
MODEL 2
REMARK VINA RESULT:      -9.5      6.925     11.045
REMARK  Name = Troglitazone.pdbqt.pdb
REMARK  4 active torsions:
REMARK  status: ('A' for Active; 'I' for Inactive)
REMARK    1  A    between atoms: C_1  and  O_2
REMARK    2  A    between atoms: C_1  and  C_18
REMARK    3  A    between atoms: O_2  and  C_3
REMARK    4  A    between atoms: C_26  and  O_32
REMARK                            x       y       z     vdW  Elec       q    Type
REMARK                         _______ _______ _______ _____ _____    ______ ____
ROOT
ATOM      1  C   UNL     1      24.926   1.857 189.884  0.00  0.00    +0.000 C 
ENDROOT
BRANCH   1   2
ATOM      2  C   UNL     1      23.765   2.730 189.638  0.00  0.00    +0.000 C 
ATOM      3  O   UNL     1      22.573   2.010 190.119  0.00  0.00    +0.000 OA
ATOM      4  C   UNL     1      21.310   2.122 189.524  0.00  0.00    +0.000 A 
ATOM      5  C   UNL     1      21.096   2.565 188.185  0.00  0.00    +0.000 A 
ATOM      6  C   UNL     1      20.204   1.709 190.297  0.00  0.00    +0.000 A 
ATOM      7  C   UNL     1      22.279   2.938 187.497  0.00  0.00    +0.000 C 
ATOM      8  C   UNL     1      19.812   2.626 187.632  0.00  0.00    +0.000 A 
ATOM      9  C   UNL     1      23.583   3.007 188.219  0.00  0.00    +0.000 C 
ATOM     10  C   UNL     1      18.717   2.231 188.416  0.00  0.00    +0.000 A 
ATOM     11  C   UNL     1      19.613   3.101 186.208  0.00  0.00    +0.000 C 
ATOM     12  C   UNL     1      18.909   1.774 189.737  0.00  0.00    +0.000 A 
ATOM     13  C   UNL     1      17.646   1.355 190.490  0.00  0.00    +0.000 C 
ATOM     14  C   UNL     1      20.447   1.190 191.708  0.00  0.00    +0.000 C 
ATOM     15  C   UNL     1      23.855   4.042 190.456  0.00  0.00    +0.000 C 
BRANCH  10  16
ATOM     16  O   UNL     1      17.436   2.280 187.891  0.00  0.00    +0.000 OA
ATOM     17  H   UNL     1      17.203   1.383 187.567  0.00  0.00    +0.000 HD
ENDBRANCH  10  16
ENDBRANCH   1   2
BRANCH   1  18
ATOM     18  O   UNL     1      25.984   1.076 190.106  0.00  0.00    +0.000 OA
BRANCH  18  19
ATOM     19  C   UNL     1      27.181   1.742 190.189  0.00  0.00    +0.000 C 
ATOM     20  C   UNL     1      28.161   1.490 191.151  0.00  0.00    +0.000 C 
ATOM     21  C   UNL     1      29.350   2.216 191.149  0.00  0.00    +0.000 C 
ATOM     22  C   UNL     1      29.560   3.197 190.185  0.00  0.00    +0.000 C 
ATOM     23  C   UNL     1      28.586   3.454 189.222  0.00  0.00    +0.000 C 
ATOM     24  C   UNL     1      27.398   2.726 189.225  0.00  0.00    +0.000 C 
ATOM     25  C   UNL     1      30.775   3.940 190.180  0.00  0.00    +0.000 C 
ATOM     26  C   UNL     1      31.975   4.686 190.175  0.00  0.00    +0.000 C 
ATOM     27  S   UNL     1      33.539   4.040 190.500  0.00  0.00    +0.000 S 
ATOM     28  C   UNL     1      34.306   5.598 190.262  0.00  0.00    +0.000 C 
ATOM     29  O   UNL     1      35.505   5.794 190.356  0.00  0.00    +0.000 OA
ATOM     30  N   UNL     1      33.369   6.531 189.958  0.00  0.00    +0.000 N 
ATOM     31  C   UNL     1      32.068   6.131 189.878  0.00  0.00    +0.000 C 
ATOM     32  H   UNL     1      33.632   7.488 189.783  0.00  0.00    +0.000 HD
ATOM     33  O   UNL     1      31.130   6.858 189.600  0.00  0.00    +0.000 OA
ENDBRANCH  18  19
ENDBRANCH   1  18
TORSDOF 4
ENDMDL
MODEL 3
REMARK VINA RESULT:      -9.3      6.705     10.696
REMARK  Name = Troglitazone.pdbqt.pdb
REMARK  4 active torsions:
REMARK  status: ('A' for Active; 'I' for Inactive)
REMARK    1  A    between atoms: C_1  and  O_2
REMARK    2  A    between atoms: C_1  and  C_18
REMARK    3  A    between atoms: O_2  and  C_3
REMARK    4  A    between atoms: C_26  and  O_32
REMARK                            x       y       z     vdW  Elec       q    Type
REMARK                         _______ _______ _______ _____ _____    ______ ____
ROOT
ATOM      1  C   UNL     1      24.227   2.552 191.772  0.00  0.00    +0.000 C 
ENDROOT
BRANCH   1   2
ATOM      2  C   UNL     1      23.220   1.688 191.134  0.00  0.00    +0.000 C 
ATOM      3  O   UNL     1      22.707   2.413 189.959  0.00  0.00    +0.000 OA
ATOM      4  C   UNL     1      21.387   2.311 189.503  0.00  0.00    +0.000 A 
ATOM      5  C   UNL     1      20.297   1.873 190.310  0.00  0.00    +0.000 A 
ATOM      6  C   UNL     1      21.139   2.729 188.178  0.00  0.00    +0.000 A 
ATOM      7  C   UNL     1      20.660   1.494 191.628  0.00  0.00    +0.000 C 
ATOM      8  C   UNL     1      18.990   1.821 189.809  0.00  0.00    +0.000 A 
ATOM      9  C   UNL     1      22.097   1.415 192.021  0.00  0.00    +0.000 C 
ATOM     10  C   UNL     1      18.758   2.221 188.484  0.00  0.00    +0.000 A 
ATOM     11  C   UNL     1      17.851   1.351 190.688  0.00  0.00    +0.000 C 
ATOM     12  C   UNL     1      19.820   2.673 187.673  0.00  0.00    +0.000 A 
ATOM     13  C   UNL     1      19.445   3.098 186.254  0.00  0.00    +0.000 C 
ATOM     14  C   UNL     1      22.302   3.243 187.339  0.00  0.00    +0.000 C 
ATOM     15  C   UNL     1      23.848   0.373 190.609  0.00  0.00    +0.000 C 
BRANCH  10  16
ATOM     16  O   UNL     1      17.474   2.181 187.964  0.00  0.00    +0.000 OA
ATOM     17  H   UNL     1      17.305   1.272 187.634  0.00  0.00    +0.000 HD
ENDBRANCH  10  16
ENDBRANCH   1   2
BRANCH   1  18
ATOM     18  O   UNL     1      25.133   3.337 192.358  0.00  0.00    +0.000 OA
BRANCH  18  19
ATOM     19  C   UNL     1      26.408   3.206 191.867  0.00  0.00    +0.000 C 
ATOM     20  C   UNL     1      27.559   3.159 192.657  0.00  0.00    +0.000 C 
ATOM     21  C   UNL     1      28.811   3.018 192.065  0.00  0.00    +0.000 C 
ATOM     22  C   UNL     1      28.916   2.924 190.680  0.00  0.00    +0.000 C 
ATOM     23  C   UNL     1      27.772   2.970 189.886  0.00  0.00    +0.000 C 
ATOM     24  C   UNL     1      26.519   3.110 190.480  0.00  0.00    +0.000 C 
ATOM     25  C   UNL     1      30.195   2.777 190.073  0.00  0.00    +0.000 C 
ATOM     26  C   UNL     1      31.463   2.640 189.463  0.00  0.00    +0.000 C 
ATOM     27  S   UNL     1      32.750   1.672 190.073  0.00  0.00    +0.000 S 
ATOM     28  C   UNL     1      33.798   2.105 188.737  0.00  0.00    +0.000 C 
ATOM     29  O   UNL     1      34.936   1.691 188.595  0.00  0.00    +0.000 OA
ATOM     30  N   UNL     1      33.151   2.953 187.899  0.00  0.00    +0.000 N 
ATOM     31  C   UNL     1      31.868   3.300 188.204  0.00  0.00    +0.000 C 
ATOM     32  H   UNL     1      33.602   3.304 187.069  0.00  0.00    +0.000 HD
ATOM     33  O   UNL     1      31.167   4.039 187.534  0.00  0.00    +0.000 OA
ENDBRANCH  18  19
ENDBRANCH   1  18
TORSDOF 4
ENDMDL
MODEL 4
REMARK VINA RESULT:      -8.9      2.298      3.102
REMARK  Name = Troglitazone.pdbqt.pdb
REMARK  4 active torsions:
REMARK  status: ('A' for Active; 'I' for Inactive)
REMARK    1  A    between atoms: C_1  and  O_2
REMARK    2  A    between atoms: C_1  and  C_18
REMARK    3  A    between atoms: O_2  and  C_3
REMARK    4  A    between atoms: C_26  and  O_32
REMARK                            x       y       z     vdW  Elec       q    Type
REMARK                         _______ _______ _______ _____ _____    ______ ____
ROOT
ATOM      1  C   UNL     1      20.558  -0.097 192.763  0.00  0.00    +0.000 C 
ENDROOT
BRANCH   1   2
ATOM      2  C   UNL     1      21.171   0.999 191.996  0.00  0.00    +0.000 C 
ATOM      3  O   UNL     1      20.348   1.199 190.790  0.00  0.00    +0.000 OA
ATOM      4  C   UNL     1      20.871   1.600 189.555  0.00  0.00    +0.000 A 
ATOM      5  C   UNL     1      22.239   1.451 189.182  0.00  0.00    +0.000 A 
ATOM      6  C   UNL     1      19.956   2.126 188.618  0.00  0.00    +0.000 A 
ATOM      7  C   UNL     1      23.064   0.896 190.195  0.00  0.00    +0.000 C 
ATOM      8  C   UNL     1      22.700   1.841 187.919  0.00  0.00    +0.000 A 
ATOM      9  C   UNL     1      22.526   0.673 191.568  0.00  0.00    +0.000 C 
ATOM     10  C   UNL     1      21.784   2.380 187.002  0.00  0.00    +0.000 A 
ATOM     11  C   UNL     1      24.158   1.672 187.549  0.00  0.00    +0.000 C 
ATOM     12  C   UNL     1      20.423   2.521 187.345  0.00  0.00    +0.000 A 
ATOM     13  C   UNL     1      19.517   3.105 186.261  0.00  0.00    +0.000 C 
ATOM     14  C   UNL     1      18.487   2.234 189.007  0.00  0.00    +0.000 C 
ATOM     15  C   UNL     1      21.142   2.333 192.783  0.00  0.00    +0.000 C 
BRANCH  10  16
ATOM     16  O   UNL     1      22.214   2.772 185.744  0.00  0.00    +0.000 OA
ATOM     17  H   UNL     1      23.185   2.914 185.783  0.00  0.00    +0.000 HD
ENDBRANCH  10  16
ENDBRANCH   1   2
BRANCH   1  18
ATOM     18  O   UNL     1      20.011  -1.094 193.462  0.00  0.00    +0.000 OA
BRANCH  18  19
ATOM     19  C   UNL     1      19.702  -0.779 194.762  0.00  0.00    +0.000 C 
ATOM     20  C   UNL     1      20.453  -1.171 195.872  0.00  0.00    +0.000 C 
ATOM     21  C   UNL     1      20.061  -0.796 197.154  0.00  0.00    +0.000 C 
ATOM     22  C   UNL     1      18.915  -0.026 197.330  0.00  0.00    +0.000 C 
ATOM     23  C   UNL     1      18.160   0.369 196.227  0.00  0.00    +0.000 C 
ATOM     24  C   UNL     1      18.554  -0.007 194.945  0.00  0.00    +0.000 C 
ATOM     25  C   UNL     1      18.513   0.360 198.640  0.00  0.00    +0.000 C 
ATOM     26  C   UNL     1      18.103   0.740 199.938  0.00  0.00    +0.000 C 
ATOM     27  S   UNL     1      19.166   1.231 201.202  0.00  0.00    +0.000 S 
ATOM     28  C   UNL     1      17.835   1.488 202.312  0.00  0.00    +0.000 C 
ATOM     29  O   UNL     1      17.964   1.878 203.460  0.00  0.00    +0.000 OA
ATOM     30  N   UNL     1      16.660   1.193 201.700  0.00  0.00    +0.000 N 
ATOM     31  C   UNL     1      16.700   0.784 200.400  0.00  0.00    +0.000 C 
ATOM     32  H   UNL     1      15.785   1.288 202.190  0.00  0.00    +0.000 HD
ATOM     33  O   UNL     1      15.724   0.502 199.727  0.00  0.00    +0.000 OA
ENDBRANCH  18  19
ENDBRANCH   1  18
TORSDOF 4
ENDMDL
MODEL 5
REMARK VINA RESULT:      -8.9      2.296      3.445
REMARK  Name = Troglitazone.pdbqt.pdb
REMARK  4 active torsions:
REMARK  status: ('A' for Active; 'I' for Inactive)
REMARK    1  A    between atoms: C_1  and  O_2
REMARK    2  A    between atoms: C_1  and  C_18
REMARK    3  A    between atoms: O_2  and  C_3
REMARK    4  A    between atoms: C_26  and  O_32
REMARK                            x       y       z     vdW  Elec       q    Type
REMARK                         _______ _______ _______ _____ _____    ______ ____
ROOT
ATOM      1  C   UNL     1      22.301   1.195 193.353  0.00  0.00    +0.000 C 
ENDROOT
BRANCH   1   2
ATOM      2  C   UNL     1      22.050   1.310 191.906  0.00  0.00    +0.000 C 
ATOM      3  O   UNL     1      22.933   2.374 191.397  0.00  0.00    +0.000 OA
ATOM      4  C   UNL     1      22.585   3.229 190.344  0.00  0.00    +0.000 A 
ATOM      5  C   UNL     1      21.244   3.480 189.931  0.00  0.00    +0.000 A 
ATOM      6  C   UNL     1      23.641   3.917 189.709  0.00  0.00    +0.000 A 
ATOM      7  C   UNL     1      20.263   2.748 190.650  0.00  0.00    +0.000 C 
ATOM      8  C   UNL     1      20.953   4.372 188.891  0.00  0.00    +0.000 A 
ATOM      9  C   UNL     1      20.673   1.692 191.621  0.00  0.00    +0.000 C 
ATOM     10  C   UNL     1      22.012   5.036 188.254  0.00  0.00    +0.000 A 
ATOM     11  C   UNL     1      19.519   4.619 188.473  0.00  0.00    +0.000 C 
ATOM     12  C   UNL     1      23.346   4.814 188.658  0.00  0.00    +0.000 A 
ATOM     13  C   UNL     1      24.414   5.605 187.903  0.00  0.00    +0.000 C 
ATOM     14  C   UNL     1      25.067   3.681 190.190  0.00  0.00    +0.000 C 
ATOM     15  C   UNL     1      22.435   0.012 191.155  0.00  0.00    +0.000 C 
BRANCH  10  16
ATOM     16  O   UNL     1      21.752   5.924 187.223  0.00  0.00    +0.000 OA
ATOM     17  H   UNL     1      21.690   6.827 187.606  0.00  0.00    +0.000 HD
ENDBRANCH  10  16
ENDBRANCH   1   2
BRANCH   1  18
ATOM     18  O   UNL     1      22.535   1.082 194.661  0.00  0.00    +0.000 OA
BRANCH  18  19
ATOM     19  C   UNL     1      21.409   0.949 195.435  0.00  0.00    +0.000 C 
ATOM     20  C   UNL     1      20.106   0.909 194.935  0.00  0.00    +0.000 C 
ATOM     21  C   UNL     1      19.025   0.765 195.801  0.00  0.00    +0.000 C 
ATOM     22  C   UNL     1      19.246   0.661 197.172  0.00  0.00    +0.000 C 
ATOM     23  C   UNL     1      20.544   0.701 197.678  0.00  0.00    +0.000 C 
ATOM     24  C   UNL     1      21.624   0.844 196.809  0.00  0.00    +0.000 C 
ATOM     25  C   UNL     1      18.143   0.512 198.060  0.00  0.00    +0.000 C 
ATOM     26  C   UNL     1      17.052   0.372 198.947  0.00  0.00    +0.000 C 
ATOM     27  S   UNL     1      15.655  -0.591 198.648  0.00  0.00    +0.000 S 
ATOM     28  C   UNL     1      14.948  -0.166 200.194  0.00  0.00    +0.000 C 
ATOM     29  O   UNL     1      13.873  -0.580 200.594  0.00  0.00    +0.000 OA
ATOM     30  N   UNL     1      15.775   0.676 200.863  0.00  0.00    +0.000 N 
ATOM     31  C   UNL     1      16.953   1.023 200.270  0.00  0.00    +0.000 C 
ATOM     32  H   UNL     1      15.530   1.021 201.777  0.00  0.00    +0.000 HD
ATOM     33  O   UNL     1      17.793   1.757 200.763  0.00  0.00    +0.000 OA
ENDBRANCH  18  19
ENDBRANCH   1  18
TORSDOF 4
ENDMDL
MODEL 6
REMARK VINA RESULT:      -8.4      2.502      4.169
REMARK  Name = Troglitazone.pdbqt.pdb
REMARK  4 active torsions:
REMARK  status: ('A' for Active; 'I' for Inactive)
REMARK    1  A    between atoms: C_1  and  O_2
REMARK    2  A    between atoms: C_1  and  C_18
REMARK    3  A    between atoms: O_2  and  C_3
REMARK    4  A    between atoms: C_26  and  O_32
REMARK                            x       y       z     vdW  Elec       q    Type
REMARK                         _______ _______ _______ _____ _____    ______ ____
ROOT
ATOM      1  C   UNL     1      20.843   0.618 193.807  0.00  0.00    +0.000 C 
ENDROOT
BRANCH   1   2
ATOM      2  C   UNL     1      20.425   0.236 192.448  0.00  0.00    +0.000 C 
ATOM      3  O   UNL     1      21.411   0.808 191.514  0.00  0.00    +0.000 OA
ATOM      4  C   UNL     1      21.087   1.261 190.230  0.00  0.00    +0.000 A 
ATOM      5  C   UNL     1      19.771   1.631 189.823  0.00  0.00    +0.000 A 
ATOM      6  C   UNL     1      22.155   1.409 189.320  0.00  0.00    +0.000 A 
ATOM      7  C   UNL     1      18.780   1.459 190.824  0.00  0.00    +0.000 C 
ATOM      8  C   UNL     1      19.512   2.110 188.533  0.00  0.00    +0.000 A 
ATOM      9  C   UNL     1      19.116   0.780 192.109  0.00  0.00    +0.000 C 
ATOM     10  C   UNL     1      20.579   2.234 187.630  0.00  0.00    +0.000 A 
ATOM     11  C   UNL     1      18.105   2.495 188.128  0.00  0.00    +0.000 C 
ATOM     12  C   UNL     1      21.891   1.889 188.018  0.00  0.00    +0.000 A 
ATOM     13  C   UNL     1      22.974   2.082 186.956  0.00  0.00    +0.000 C 
ATOM     14  C   UNL     1      23.565   1.059 189.779  0.00  0.00    +0.000 C 
ATOM     15  C   UNL     1      20.459  -1.299 192.250  0.00  0.00    +0.000 C 
BRANCH  10  16
ATOM     16  O   UNL     1      20.350   2.707 186.349  0.00  0.00    +0.000 OA
ATOM     17  H   UNL     1      19.895   3.575 186.419  0.00  0.00    +0.000 HD
ENDBRANCH  10  16
ENDBRANCH   1   2
BRANCH   1  18
ATOM     18  O   UNL     1      21.224   0.973 195.035  0.00  0.00    +0.000 OA
BRANCH  18  19
ATOM     19  C   UNL     1      20.256   0.832 195.999  0.00  0.00    +0.000 C 
ATOM     20  C   UNL     1      18.885   0.771 195.739  0.00  0.00    +0.000 C 
ATOM     21  C   UNL     1      17.979   0.619 196.785  0.00  0.00    +0.000 C 
ATOM     22  C   UNL     1      18.442   0.529 198.095  0.00  0.00    +0.000 C 
ATOM     23  C   UNL     1      19.809   0.589 198.361  0.00  0.00    +0.000 C 
ATOM     24  C   UNL     1      20.714   0.740 197.313  0.00  0.00    +0.000 C 
ATOM     25  C   UNL     1      17.517   0.372 199.166  0.00  0.00    +0.000 C 
ATOM     26  C   UNL     1      16.604   0.225 200.235  0.00  0.00    +0.000 C 
ATOM     27  S   UNL     1      15.191  -0.759 200.195  0.00  0.00    +0.000 S 
ATOM     28  C   UNL     1      14.765  -0.332 201.840  0.00  0.00    +0.000 C 
ATOM     29  O   UNL     1      13.785  -0.756 202.428  0.00  0.00    +0.000 OA
ATOM     30  N   UNL     1      15.686   0.526 202.346  0.00  0.00    +0.000 N 
ATOM     31  C   UNL     1      16.734   0.885 201.551  0.00  0.00    +0.000 C 
ATOM     32  H   UNL     1      15.603   0.875 203.288  0.00  0.00    +0.000 HD
ATOM     33  O   UNL     1      17.638   1.633 201.882  0.00  0.00    +0.000 OA
ENDBRANCH  18  19
ENDBRANCH   1  18
TORSDOF 4
ENDMDL
MODEL 7
REMARK VINA RESULT:      -8.1      2.400      4.100
REMARK  Name = Troglitazone.pdbqt.pdb
REMARK  4 active torsions:
REMARK  status: ('A' for Active; 'I' for Inactive)
REMARK    1  A    between atoms: C_1  and  O_2
REMARK    2  A    between atoms: C_1  and  C_18
REMARK    3  A    between atoms: O_2  and  C_3
REMARK    4  A    between atoms: C_26  and  O_32
REMARK                            x       y       z     vdW  Elec       q    Type
REMARK                         _______ _______ _______ _____ _____    ______ ____
ROOT
ATOM      1  C   UNL     1      21.587   0.936 193.852  0.00  0.00    +0.000 C 
ENDROOT
BRANCH   1   2
ATOM      2  C   UNL     1      21.334   0.598 192.441  0.00  0.00    +0.000 C 
ATOM      3  O   UNL     1      21.493   1.839 191.663  0.00  0.00    +0.000 OA
ATOM      4  C   UNL     1      20.746   2.133 190.515  0.00  0.00    +0.000 A 
ATOM      5  C   UNL     1      19.494   1.527 190.202  0.00  0.00    +0.000 A 
ATOM      6  C   UNL     1      21.258   3.135 189.663  0.00  0.00    +0.000 A 
ATOM      7  C   UNL     1      19.069   0.546 191.136  0.00  0.00    +0.000 C 
ATOM      8  C   UNL     1      18.776   1.883 189.054  0.00  0.00    +0.000 A 
ATOM      9  C   UNL     1      19.978   0.106 192.233  0.00  0.00    +0.000 C 
ATOM     10  C   UNL     1      19.303   2.868 188.204  0.00  0.00    +0.000 A 
ATOM     11  C   UNL     1      17.448   1.224 188.746  0.00  0.00    +0.000 C 
ATOM     12  C   UNL     1      20.533   3.491 188.505  0.00  0.00    +0.000 A 
ATOM     13  C   UNL     1      20.999   4.560 187.516  0.00  0.00    +0.000 C 
ATOM     14  C   UNL     1      22.571   3.813 190.032  0.00  0.00    +0.000 C 
ATOM     15  C   UNL     1      22.381  -0.406 191.899  0.00  0.00    +0.000 C 
BRANCH  10  16
ATOM     16  O   UNL     1      18.611   3.240 187.064  0.00  0.00    +0.000 OA
ATOM     17  H   UNL     1      17.788   2.706 187.016  0.00  0.00    +0.000 HD
ENDBRANCH  10  16
ENDBRANCH   1   2
BRANCH   1  18
ATOM     18  O   UNL     1      21.808   1.234 195.133  0.00  0.00    +0.000 OA
BRANCH  18  19
ATOM     19  C   UNL     1      20.774   0.922 195.981  0.00  0.00    +0.000 C 
ATOM     20  C   UNL     1      20.916   0.698 197.352  0.00  0.00    +0.000 C 
ATOM     21  C   UNL     1      19.804   0.394 198.133  0.00  0.00    +0.000 C 
ATOM     22  C   UNL     1      18.546   0.312 197.542  0.00  0.00    +0.000 C 
ATOM     23  C   UNL     1      18.397   0.534 196.175  0.00  0.00    +0.000 C 
ATOM     24  C   UNL     1      19.511   0.840 195.396  0.00  0.00    +0.000 C 
ATOM     25  C   UNL     1      17.406   0.002 198.339  0.00  0.00    +0.000 C 
ATOM     26  C   UNL     1      16.273  -0.313 199.122  0.00  0.00    +0.000 C 
ATOM     27  S   UNL     1      15.980   0.277 200.713  0.00  0.00    +0.000 S 
ATOM     28  C   UNL     1      14.459  -0.585 200.825  0.00  0.00    +0.000 C 
ATOM     29  O   UNL     1      13.720  -0.552 201.795  0.00  0.00    +0.000 OA
ATOM     30  N   UNL     1      14.236  -1.277 199.680  0.00  0.00    +0.000 N 
ATOM     31  C   UNL     1      15.165  -1.187 198.686  0.00  0.00    +0.000 C 
ATOM     32  H   UNL     1      13.401  -1.830 199.565  0.00  0.00    +0.000 HD
ATOM     33  O   UNL     1      15.084  -1.743 197.603  0.00  0.00    +0.000 OA
ENDBRANCH  18  19
ENDBRANCH   1  18
TORSDOF 4
ENDMDL
MODEL 8
REMARK VINA RESULT:      -8.1      2.845      4.451
REMARK  Name = Troglitazone.pdbqt.pdb
REMARK  4 active torsions:
REMARK  status: ('A' for Active; 'I' for Inactive)
REMARK    1  A    between atoms: C_1  and  O_2
REMARK    2  A    between atoms: C_1  and  C_18
REMARK    3  A    between atoms: O_2  and  C_3
REMARK    4  A    between atoms: C_26  and  O_32
REMARK                            x       y       z     vdW  Elec       q    Type
REMARK                         _______ _______ _______ _____ _____    ______ ____
ROOT
ATOM      1  C   UNL     1      22.663   0.375 193.633  0.00  0.00    +0.000 C 
ENDROOT
BRANCH   1   2
ATOM      2  C   UNL     1      22.143   0.253 192.260  0.00  0.00    +0.000 C 
ATOM      3  O   UNL     1      22.167   1.601 191.666  0.00  0.00    +0.000 OA
ATOM      4  C   UNL     1      21.220   2.055 190.740  0.00  0.00    +0.000 A 
ATOM      5  C   UNL     1      19.924   1.483 190.580  0.00  0.00    +0.000 A 
ATOM      6  C   UNL     1      21.573   3.184 189.971  0.00  0.00    +0.000 A 
ATOM      7  C   UNL     1      19.671   0.364 191.416  0.00  0.00    +0.000 C 
ATOM      8  C   UNL     1      19.005   1.999 189.658  0.00  0.00    +0.000 A 
ATOM      9  C   UNL     1      20.766  -0.224 192.240  0.00  0.00    +0.000 C 
ATOM     10  C   UNL     1      19.374   3.111 188.885  0.00  0.00    +0.000 A 
ATOM     11  C   UNL     1      17.635   1.372 189.509  0.00  0.00    +0.000 C 
ATOM     12  C   UNL     1      20.646   3.702 189.039  0.00  0.00    +0.000 A 
ATOM     13  C   UNL     1      20.930   4.917 188.157  0.00  0.00    +0.000 C 
ATOM     14  C   UNL     1      22.941   3.819 190.184  0.00  0.00    +0.000 C 
ATOM     15  C   UNL     1      23.055  -0.638 191.382  0.00  0.00    +0.000 C 
BRANCH  10  16
ATOM     16  O   UNL     1      18.483   3.642 187.968  0.00  0.00    +0.000 OA
ATOM     17  H   UNL     1      17.621   3.183 188.076  0.00  0.00    +0.000 HD
ENDBRANCH  10  16
ENDBRANCH   1   2
BRANCH   1  18
ATOM     18  O   UNL     1      23.143   0.491 194.872  0.00  0.00    +0.000 OA
BRANCH  18  19
ATOM     19  C   UNL     1      22.185   0.593 195.850  0.00  0.00    +0.000 C 
ATOM     20  C   UNL     1      20.821   0.374 195.647  0.00  0.00    +0.000 C 
ATOM     21  C   UNL     1      19.925   0.495 196.706  0.00  0.00    +0.000 C 
ATOM     22  C   UNL     1      20.392   0.836 197.972  0.00  0.00    +0.000 C 
ATOM     23  C   UNL     1      21.752   1.056 198.182  0.00  0.00    +0.000 C 
ATOM     24  C   UNL     1      22.647   0.933 197.121  0.00  0.00    +0.000 C 
ATOM     25  C   UNL     1      19.478   0.959 199.057  0.00  0.00    +0.000 C 
ATOM     26  C   UNL     1      18.575   1.090 200.136  0.00  0.00    +0.000 C 
ATOM     27  S   UNL     1      17.226   0.059 200.423  0.00  0.00    +0.000 S 
ATOM     28  C   UNL     1      16.773   0.942 201.868  0.00  0.00    +0.000 C 
ATOM     29  O   UNL     1      15.820   0.659 202.575  0.00  0.00    +0.000 OA
ATOM     30  N   UNL     1      17.639   1.966 202.072  0.00  0.00    +0.000 N 
ATOM     31  C   UNL     1      18.662   2.127 201.186  0.00  0.00    +0.000 C 
ATOM     32  H   UNL     1      17.533   2.580 202.864  0.00  0.00    +0.000 HD
ATOM     33  O   UNL     1      19.518   2.993 201.257  0.00  0.00    +0.000 OA
ENDBRANCH  18  19
ENDBRANCH   1  18
TORSDOF 4
ENDMDL
MODEL 9
REMARK VINA RESULT:      -7.9      6.082      8.673
REMARK  Name = Troglitazone.pdbqt.pdb
REMARK  4 active torsions:
REMARK  status: ('A' for Active; 'I' for Inactive)
REMARK    1  A    between atoms: C_1  and  O_2
REMARK    2  A    between atoms: C_1  and  C_18
REMARK    3  A    between atoms: O_2  and  C_3
REMARK    4  A    between atoms: C_26  and  O_32
REMARK                            x       y       z     vdW  Elec       q    Type
REMARK                         _______ _______ _______ _____ _____    ______ ____
ROOT
ATOM      1  C   UNL     1      28.057   0.374 191.335  0.00  0.00    +0.000 C 
ENDROOT
BRANCH   1   2
ATOM      2  C   UNL     1      29.206   0.967 190.630  0.00  0.00    +0.000 C 
ATOM      3  O   UNL     1      29.675   2.101 191.445  0.00  0.00    +0.000 OA
ATOM      4  C   UNL     1      30.227   3.268 190.902  0.00  0.00    +0.000 A 
ATOM      5  C   UNL     1      30.020   3.696 189.557  0.00  0.00    +0.000 A 
ATOM      6  C   UNL     1      30.981   4.081 191.774  0.00  0.00    +0.000 A 
ATOM      7  C   UNL     1      29.233   2.810 188.775  0.00  0.00    +0.000 C 
ATOM      8  C   UNL     1      30.571   4.890 189.077  0.00  0.00    +0.000 A 
ATOM      9  C   UNL     1      28.835   1.478 189.317  0.00  0.00    +0.000 C 
ATOM     10  C   UNL     1      31.335   5.682 189.948  0.00  0.00    +0.000 A 
ATOM     11  C   UNL     1      30.335   5.320 187.644  0.00  0.00    +0.000 C 
ATOM     12  C   UNL     1      31.538   5.284 191.287  0.00  0.00    +0.000 A 
ATOM     13  C   UNL     1      32.372   6.234 192.147  0.00  0.00    +0.000 C 
ATOM     14  C   UNL     1      31.154   3.641 193.222  0.00  0.00    +0.000 C 
ATOM     15  C   UNL     1      30.388  -0.029 190.527  0.00  0.00    +0.000 C 
BRANCH  10  16
ATOM     16  O   UNL     1      31.889   6.869 189.498  0.00  0.00    +0.000 OA
ATOM     17  H   UNL     1      32.854   6.845 189.681  0.00  0.00    +0.000 HD
ENDBRANCH  10  16
ENDBRANCH   1   2
BRANCH   1  18
ATOM     18  O   UNL     1      27.017  -0.156 191.981  0.00  0.00    +0.000 OA
BRANCH  18  19
ATOM     19  C   UNL     1      25.789   0.244 191.516  0.00  0.00    +0.000 C 
ATOM     20  C   UNL     1      25.533   1.482 190.923  0.00  0.00    +0.000 C 
ATOM     21  C   UNL     1      24.251   1.794 190.475  0.00  0.00    +0.000 C 
ATOM     22  C   UNL     1      23.223   0.867 190.619  0.00  0.00    +0.000 C 
ATOM     23  C   UNL     1      23.471  -0.370 191.210  0.00  0.00    +0.000 C 
ATOM     24  C   UNL     1      24.754  -0.681 191.656  0.00  0.00    +0.000 C 
ATOM     25  C   UNL     1      21.912   1.184 190.160  0.00  0.00    +0.000 C 
ATOM     26  C   UNL     1      20.608   1.495 189.715  0.00  0.00    +0.000 C 
ATOM     27  S   UNL     1      20.239   2.346 188.263  0.00  0.00    +0.000 S 
ATOM     28  C   UNL     1      18.515   2.235 188.556  0.00  0.00    +0.000 C 
ATOM     29  O   UNL     1      17.661   2.684 187.811  0.00  0.00    +0.000 OA
ATOM     30  N   UNL     1      18.287   1.576 189.721  0.00  0.00    +0.000 N 
ATOM     31  C   UNL     1      19.365   1.125 190.423  0.00  0.00    +0.000 C 
ATOM     32  H   UNL     1      17.347   1.415 190.047  0.00  0.00    +0.000 HD
ATOM     33  O   UNL     1      19.305   0.508 191.473  0.00  0.00    +0.000 OA
ENDBRANCH  18  19
ENDBRANCH   1  18
TORSDOF 4
ENDMDL
