MODEL 1
REMARK VINA RESULT:      -7.9      0.000      0.000
REMARK  Name = 
REMARK  19 active torsions:
REMARK  status: ('A' for Active; 'I' for Inactive)
REMARK    1  A    between atoms: O_1  and  C_20
REMARK    2  A    between atoms: O_1  and  C_36
REMARK    3  A    between atoms: O_2  and  C_18
REMARK    4  A    between atoms: O_3  and  C_28
REMARK    5  A    between atoms: O_3  and  C_42
REMARK    6  A    between atoms: O_5  and  C_34
REMARK    7  A    between atoms: O_5  and  C_50
REMARK    8  A    between atoms: O_7  and  C_40
REMARK    9  A    between atoms: O_7  and  C_56
REMARK   10  A    between atoms: O_9  and  C_46
REMARK   11  A    between atoms: N_11  and  C_30
REMARK   12  A    between atoms: C_17  and  C_23
REMARK   13  A    between atoms: C_18  and  C_28
REMARK   14  A    between atoms: C_23  and  C_32
REMARK   15  A    between atoms: C_33  and  C_35
REMARK   16  A    between atoms: C_35  and  C_40
REMARK   17  A    between atoms: C_36  and  C_41
REMARK   18  A    between atoms: C_46  and  C_53
REMARK   19  A    between atoms: C_53  and  C_57
REMARK                            x       y       z     vdW  Elec       q    Type
REMARK                         _______ _______ _______ _____ _____    ______ ____
ROOT
ATOM      1  N   UNL     1      24.590   3.712 188.972  0.00  0.00    +0.000 NA
ATOM      2  N   UNL     1      22.875   1.218 192.662  0.00  0.00    +0.000 N 
ATOM      3  C   UNL     1      23.730   2.474 190.751  0.00  0.00    +0.000 C 
ATOM      4  C   UNL     1      23.918   2.424 189.224  0.00  0.00    +0.000 C 
ATOM      5  C   UNL     1      22.679   1.439 191.199  0.00  0.00    +0.000 C 
ATOM      6  C   UNL     1      22.568   2.133 188.419  0.00  0.00    +0.000 C 
ATOM      7  C   UNL     1      21.251   1.661 190.673  0.00  0.00    +0.000 C 
ATOM      8  C   UNL     1      23.536   3.966 191.081  0.00  0.00    +0.000 C 
ATOM      9  C   UNL     1      21.255   2.382 189.286  0.00  0.00    +0.000 C 
ATOM     10  C   UNL     1      24.854   1.976 191.638  0.00  0.00    +0.000 A 
ATOM     11  C   UNL     1      23.978   4.720 189.829  0.00  0.00    +0.000 C 
ATOM     12  C   UNL     1      24.298   1.318 192.744  0.00  0.00    +0.000 A 
ATOM     13  C   UNL     1      22.465   3.001 187.163  0.00  0.00    +0.000 C 
ATOM     14  C   UNL     1      24.674   4.094 187.571  0.00  0.00    +0.000 C 
ATOM     15  C   UNL     1      23.421   3.864 186.790  0.00  0.00    +0.000 C 
ATOM     16  C   UNL     1      26.227   2.149 191.497  0.00  0.00    +0.000 A 
ATOM     17  C   UNL     1      22.318  -0.004 193.242  0.00  0.00    +0.000 C 
ATOM     18  C   UNL     1      25.126   0.857 193.750  0.00  0.00    +0.000 A 
ATOM     19  C   UNL     1      27.098   1.686 192.502  0.00  0.00    +0.000 A 
ATOM     20  C   UNL     1      26.513   1.046 193.635  0.00  0.00    +0.000 A 
ENDROOT
BRANCH  19  23
ATOM     21  N   UNL     1      32.797   2.874 191.674  0.00  0.00    +0.000 NA
ATOM     22  N   UNL     1      28.404   3.168 194.575  0.00  0.00    +0.000 N 
ATOM     23  C   UNL     1      28.664   1.878 192.406  0.00  0.00    +0.000 C 
ATOM     24  C   UNL     1      29.052   2.929 191.267  0.00  0.00    +0.000 C 
ATOM     25  C   UNL     1      29.241   2.430 193.754  0.00  0.00    +0.000 A 
ATOM     26  C   UNL     1      30.488   3.478 191.287  0.00  0.00    +0.000 C 
ATOM     27  C   UNL     1      30.764   4.592 190.278  0.00  0.00    +0.000 C 
ATOM     28  C   UNL     1      31.561   2.423 191.060  0.00  0.00    +0.000 C 
ATOM     29  C   UNL     1      30.508   2.459 194.364  0.00  0.00    +0.000 A 
ATOM     30  C   UNL     1      32.227   5.117 190.389  0.00  0.00    +0.000 C 
ATOM     31  C   UNL     1      33.271   4.133 191.059  0.00  0.00    +0.000 C 
ATOM     32  C   UNL     1      31.852   1.908 193.913  0.00  0.00    +0.000 C 
ATOM     33  C   UNL     1      32.742   2.941 193.158  0.00  0.00    +0.000 C 
ATOM     34  C   UNL     1      30.365   3.196 195.598  0.00  0.00    +0.000 A 
ATOM     35  C   UNL     1      29.047   3.618 195.694  0.00  0.00    +0.000 A 
ATOM     36  C   UNL     1      31.254   3.556 196.636  0.00  0.00    +0.000 A 
ATOM     37  C   UNL     1      28.558   4.370 196.769  0.00  0.00    +0.000 A 
ATOM     38  C   UNL     1      30.787   4.307 197.721  0.00  0.00    +0.000 A 
ATOM     39  C   UNL     1      29.457   4.707 197.785  0.00  0.00    +0.000 A 
ATOM     40  H   UNL     1      27.425   3.341 194.388  0.00  0.00    +0.000 HD
BRANCH  23  42
ATOM     41  O   UNL     1      29.783  -0.326 192.812  0.00  0.00    +0.000 OA
ATOM     42  C   UNL     1      29.228   0.461 192.056  0.00  0.00    +0.000 C 
BRANCH  42  43
ATOM     43  O   UNL     1      28.987   0.175 190.733  0.00  0.00    +0.000 OA
ATOM     44  C   UNL     1      30.052  -0.522 190.087  0.00  0.00    +0.000 C 
ENDBRANCH  42  43
ENDBRANCH  23  42
BRANCH  30  45
ATOM     45  O   UNL     1      32.658   5.333 189.021  0.00  0.00    +0.000 OA
ATOM     46  H   UNL     1      33.630   5.267 189.010  0.00  0.00    +0.000 HD
ENDBRANCH  30  45
BRANCH  30  47
ATOM     47  C   UNL     1      32.278   6.528 191.019  0.00  0.00    +0.000 C 
ATOM     48  C   UNL     1      32.699   6.605 192.477  0.00  0.00    +0.000 C 
ENDBRANCH  30  47
ENDBRANCH  19  23
BRANCH   7  49
ATOM     49  O   UNL     1      20.712   0.321 190.430  0.00  0.00    +0.000 OA
ATOM     50  H   UNL     1      21.472  -0.292 190.501  0.00  0.00    +0.000 HD
ENDBRANCH   7  49
BRANCH   7  52
ATOM     51  O   UNL     1      20.693   3.185 192.553  0.00  0.00    +0.000 OA
ATOM     52  C   UNL     1      20.343   2.372 191.709  0.00  0.00    +0.000 C 
BRANCH  52  53
ATOM     53  O   UNL     1      19.034   2.015 191.495  0.00  0.00    +0.000 OA
ATOM     54  C   UNL     1      18.433   1.329 192.595  0.00  0.00    +0.000 C 
ENDBRANCH  52  53
ENDBRANCH   7  52
BRANCH  20  55
ATOM     55  O   UNL     1      27.367   0.561 194.592  0.00  0.00    +0.000 OA
ATOM     56  C   UNL     1      27.061  -0.745 195.073  0.00  0.00    +0.000 C 
ENDBRANCH  20  55
BRANCH   6  57
ATOM     57  C   UNL     1      22.560   0.642 187.920  0.00  0.00    +0.000 C 
ATOM     58  C   UNL     1      23.923  -0.041 187.788  0.00  0.00    +0.000 C 
ENDBRANCH   6  57
BRANCH   9  59
ATOM     59  O   UNL     1      21.063   3.811 189.415  0.00  0.00    +0.000 OA
BRANCH  59  61
ATOM     60  O   UNL     1      19.011   3.764 188.396  0.00  0.00    +0.000 OA
ATOM     61  C   UNL     1      20.023   4.363 188.734  0.00  0.00    +0.000 C 
ATOM     62  C   UNL     1      20.279   5.818 188.489  0.00  0.00    +0.000 C 
ENDBRANCH  59  61
ENDBRANCH   9  59
TORSDOF 12
ENDMDL
MODEL 2
REMARK VINA RESULT:      -7.7      2.298      4.782
REMARK  Name = 
REMARK  19 active torsions:
REMARK  status: ('A' for Active; 'I' for Inactive)
REMARK    1  A    between atoms: O_1  and  C_20
REMARK    2  A    between atoms: O_1  and  C_36
REMARK    3  A    between atoms: O_2  and  C_18
REMARK    4  A    between atoms: O_3  and  C_28
REMARK    5  A    between atoms: O_3  and  C_42
REMARK    6  A    between atoms: O_5  and  C_34
REMARK    7  A    between atoms: O_5  and  C_50
REMARK    8  A    between atoms: O_7  and  C_40
REMARK    9  A    between atoms: O_7  and  C_56
REMARK   10  A    between atoms: O_9  and  C_46
REMARK   11  A    between atoms: N_11  and  C_30
REMARK   12  A    between atoms: C_17  and  C_23
REMARK   13  A    between atoms: C_18  and  C_28
REMARK   14  A    between atoms: C_23  and  C_32
REMARK   15  A    between atoms: C_33  and  C_35
REMARK   16  A    between atoms: C_35  and  C_40
REMARK   17  A    between atoms: C_36  and  C_41
REMARK   18  A    between atoms: C_46  and  C_53
REMARK   19  A    between atoms: C_53  and  C_57
REMARK                            x       y       z     vdW  Elec       q    Type
REMARK                         _______ _______ _______ _____ _____    ______ ____
ROOT
ATOM      1  N   UNL     1      23.633   0.230 193.123  0.00  0.00    +0.000 NA
ATOM      2  N   UNL     1      24.861   2.326 189.015  0.00  0.00    +0.000 N 
ATOM      3  C   UNL     1      24.208   1.282 191.124  0.00  0.00    +0.000 C 
ATOM      4  C   UNL     1      23.596   1.569 192.507  0.00  0.00    +0.000 C 
ATOM      5  C   UNL     1      23.891   2.431 190.145  0.00  0.00    +0.000 C 
ATOM      6  C   UNL     1      22.180   2.306 192.443  0.00  0.00    +0.000 C 
ATOM      7  C   UNL     1      22.403   2.645 189.820  0.00  0.00    +0.000 C 
ATOM      8  C   UNL     1      23.781  -0.160 190.789  0.00  0.00    +0.000 C 
ATOM      9  C   UNL     1      21.487   2.211 191.012  0.00  0.00    +0.000 C 
ATOM     10  C   UNL     1      25.716   1.334 190.971  0.00  0.00    +0.000 A 
ATOM     11  C   UNL     1      23.279  -0.751 192.104  0.00  0.00    +0.000 C 
ATOM     12  C   UNL     1      26.024   1.887 189.720  0.00  0.00    +0.000 A 
ATOM     13  C   UNL     1      21.201   1.733 193.470  0.00  0.00    +0.000 C 
ATOM     14  C   UNL     1      22.874   0.105 194.358  0.00  0.00    +0.000 C 
ATOM     15  C   UNL     1      21.530   0.758 194.329  0.00  0.00    +0.000 C 
ATOM     16  C   UNL     1      26.703   0.879 191.839  0.00  0.00    +0.000 A 
ATOM     17  C   UNL     1      25.065   3.514 188.188  0.00  0.00    +0.000 C 
ATOM     18  C   UNL     1      27.341   1.951 189.309  0.00  0.00    +0.000 A 
ATOM     19  C   UNL     1      28.056   0.935 191.451  0.00  0.00    +0.000 A 
ATOM     20  C   UNL     1      28.348   1.471 190.162  0.00  0.00    +0.000 A 
ENDROOT
BRANCH  19  23
ATOM     21  N   UNL     1      32.648  -1.294 194.370  0.00  0.00    +0.000 NA
ATOM     22  N   UNL     1      30.044   2.804 192.318  0.00  0.00    +0.000 N 
ATOM     23  C   UNL     1      29.217   0.407 192.386  0.00  0.00    +0.000 C 
ATOM     24  C   UNL     1      30.261  -0.484 191.570  0.00  0.00    +0.000 C 
ATOM     25  C   UNL     1      30.019   1.602 193.005  0.00  0.00    +0.000 A 
ATOM     26  C   UNL     1      31.609  -0.772 192.250  0.00  0.00    +0.000 C 
ATOM     27  C   UNL     1      32.631  -1.493 191.371  0.00  0.00    +0.000 C 
ATOM     28  C   UNL     1      31.500  -1.587 193.530  0.00  0.00    +0.000 C 
ATOM     29  C   UNL     1      30.865   1.772 194.116  0.00  0.00    +0.000 A 
ATOM     30  C   UNL     1      33.979  -1.713 192.120  0.00  0.00    +0.000 C 
ATOM     31  C   UNL     1      33.910  -1.680 193.702  0.00  0.00    +0.000 C 
ATOM     32  C   UNL     1      31.313   0.798 195.194  0.00  0.00    +0.000 C 
ATOM     33  C   UNL     1      32.672   0.096 194.893  0.00  0.00    +0.000 C 
ATOM     34  C   UNL     1      31.342   3.135 194.077  0.00  0.00    +0.000 A 
ATOM     35  C   UNL     1      30.810   3.743 192.950  0.00  0.00    +0.000 A 
ATOM     36  C   UNL     1      32.198   3.899 194.902  0.00  0.00    +0.000 A 
ATOM     37  C   UNL     1      31.074   5.073 192.599  0.00  0.00    +0.000 A 
ATOM     38  C   UNL     1      32.475   5.231 194.571  0.00  0.00    +0.000 A 
ATOM     39  C   UNL     1      31.918   5.808 193.434  0.00  0.00    +0.000 A 
ATOM     40  H   UNL     1      29.540   2.984 191.459  0.00  0.00    +0.000 HD
BRANCH  23  42
ATOM     41  O   UNL     1      28.179  -0.106 194.608  0.00  0.00    +0.000 OA
ATOM     42  C   UNL     1      28.500  -0.454 193.478  0.00  0.00    +0.000 C 
BRANCH  42  43
ATOM     43  O   UNL     1      28.232  -1.709 192.982  0.00  0.00    +0.000 OA
ATOM     44  C   UNL     1      27.104  -2.341 193.587  0.00  0.00    +0.000 C 
ENDBRANCH  42  43
ENDBRANCH  23  42
BRANCH  30  45
ATOM     45  O   UNL     1      34.415  -3.042 191.738  0.00  0.00    +0.000 OA
ATOM     46  H   UNL     1      33.844  -3.680 192.203  0.00  0.00    +0.000 HD
ENDBRANCH  30  45
BRANCH  30  47
ATOM     47  C   UNL     1      35.091  -0.788 191.573  0.00  0.00    +0.000 C 
ATOM     48  C   UNL     1      34.768  -0.015 190.306  0.00  0.00    +0.000 C 
ENDBRANCH  30  47
ENDBRANCH  19  23
BRANCH   7  49
ATOM     49  O   UNL     1      22.237   4.094 189.691  0.00  0.00    +0.000 OA
ATOM     50  H   UNL     1      21.456   4.225 189.115  0.00  0.00    +0.000 HD
ENDBRANCH   7  49
BRANCH   7  52
ATOM     51  O   UNL     1      22.151   0.815 188.161  0.00  0.00    +0.000 OA
ATOM     52  C   UNL     1      21.989   1.984 188.482  0.00  0.00    +0.000 C 
BRANCH  52  53
ATOM     53  O   UNL     1      21.318   2.897 187.705  0.00  0.00    +0.000 OA
ATOM     54  C   UNL     1      20.207   2.349 186.994  0.00  0.00    +0.000 C 
ENDBRANCH  52  53
ENDBRANCH   7  52
BRANCH  20  55
ATOM     55  O   UNL     1      29.670   1.561 189.805  0.00  0.00    +0.000 OA
ATOM     56  C   UNL     1      29.912   2.077 188.500  0.00  0.00    +0.000 C 
ENDBRANCH  20  55
BRANCH   6  57
ATOM     57  C   UNL     1      22.357   3.826 192.810  0.00  0.00    +0.000 C 
ATOM     58  C   UNL     1      23.731   4.244 193.339  0.00  0.00    +0.000 C 
ENDBRANCH   6  57
BRANCH   9  59
ATOM     59  O   UNL     1      20.978   0.866 190.845  0.00  0.00    +0.000 OA
BRANCH  59  61
ATOM     60  O   UNL     1      19.099  -0.312 191.423  0.00  0.00    +0.000 OA
ATOM     61  C   UNL     1      19.635   0.690 190.969  0.00  0.00    +0.000 C 
ATOM     62  C   UNL     1      18.908   1.913 190.502  0.00  0.00    +0.000 C 
ENDBRANCH  59  61
ENDBRANCH   9  59
TORSDOF 12
ENDMDL
MODEL 3
REMARK VINA RESULT:      -7.4      1.871      3.329
REMARK  Name = 
REMARK  19 active torsions:
REMARK  status: ('A' for Active; 'I' for Inactive)
REMARK    1  A    between atoms: O_1  and  C_20
REMARK    2  A    between atoms: O_1  and  C_36
REMARK    3  A    between atoms: O_2  and  C_18
REMARK    4  A    between atoms: O_3  and  C_28
REMARK    5  A    between atoms: O_3  and  C_42
REMARK    6  A    between atoms: O_5  and  C_34
REMARK    7  A    between atoms: O_5  and  C_50
REMARK    8  A    between atoms: O_7  and  C_40
REMARK    9  A    between atoms: O_7  and  C_56
REMARK   10  A    between atoms: O_9  and  C_46
REMARK   11  A    between atoms: N_11  and  C_30
REMARK   12  A    between atoms: C_17  and  C_23
REMARK   13  A    between atoms: C_18  and  C_28
REMARK   14  A    between atoms: C_23  and  C_32
REMARK   15  A    between atoms: C_33  and  C_35
REMARK   16  A    between atoms: C_35  and  C_40
REMARK   17  A    between atoms: C_36  and  C_41
REMARK   18  A    between atoms: C_46  and  C_53
REMARK   19  A    between atoms: C_53  and  C_57
REMARK                            x       y       z     vdW  Elec       q    Type
REMARK                         _______ _______ _______ _____ _____    ______ ____
ROOT
ATOM      1  N   UNL     1      24.614   3.699 188.397  0.00  0.00    +0.000 NA
ATOM      2  N   UNL     1      24.392   1.842 192.788  0.00  0.00    +0.000 N 
ATOM      3  C   UNL     1      24.482   2.764 190.529  0.00  0.00    +0.000 C 
ATOM      4  C   UNL     1      24.288   2.414 189.043  0.00  0.00    +0.000 C 
ATOM      5  C   UNL     1      23.797   1.712 191.424  0.00  0.00    +0.000 C 
ATOM      6  C   UNL     1      22.863   1.770 188.714  0.00  0.00    +0.000 C 
ATOM      7  C   UNL     1      22.268   1.613 191.295  0.00  0.00    +0.000 C 
ATOM      8  C   UNL     1      24.091   4.250 190.643  0.00  0.00    +0.000 C 
ATOM      9  C   UNL     1      21.786   2.012 189.862  0.00  0.00    +0.000 C 
ATOM     10  C   UNL     1      25.866   2.633 191.133  0.00  0.00    +0.000 A 
ATOM     11  C   UNL     1      24.051   4.772 189.209  0.00  0.00    +0.000 C 
ATOM     12  C   UNL     1      25.743   2.157 192.445  0.00  0.00    +0.000 A 
ATOM     13  C   UNL     1      22.283   2.323 187.411  0.00  0.00    +0.000 C 
ATOM     14  C   UNL     1      24.269   3.778 186.986  0.00  0.00    +0.000 C 
ATOM     15  C   UNL     1      22.929   3.211 186.642  0.00  0.00    +0.000 C 
ATOM     16  C   UNL     1      27.100   2.963 190.581  0.00  0.00    +0.000 A 
ATOM     17  C   UNL     1      24.245   0.708 193.699  0.00  0.00    +0.000 C 
ATOM     18  C   UNL     1      26.869   2.045 193.238  0.00  0.00    +0.000 A 
ATOM     19  C   UNL     1      28.267   2.855 191.362  0.00  0.00    +0.000 A 
ATOM     20  C   UNL     1      28.119   2.398 192.705  0.00  0.00    +0.000 A 
ENDROOT
BRANCH  19  23
ATOM     21  N   UNL     1      33.586   4.764 189.738  0.00  0.00    +0.000 NA
ATOM     22  N   UNL     1      30.482   1.162 192.015  0.00  0.00    +0.000 N 
ATOM     23  C   UNL     1      29.692   3.241 190.795  0.00  0.00    +0.000 C 
ATOM     24  C   UNL     1      30.298   4.505 191.560  0.00  0.00    +0.000 C 
ATOM     25  C   UNL     1      30.705   2.061 190.985  0.00  0.00    +0.000 A 
ATOM     26  C   UNL     1      31.799   4.781 191.366  0.00  0.00    +0.000 C 
ATOM     27  C   UNL     1      32.364   5.902 192.237  0.00  0.00    +0.000 C 
ATOM     28  C   UNL     1      32.191   5.115 189.934  0.00  0.00    +0.000 C 
ATOM     29  C   UNL     1      31.930   1.689 190.401  0.00  0.00    +0.000 A 
ATOM     30  C   UNL     1      33.893   6.091 192.008  0.00  0.00    +0.000 C 
ATOM     31  C   UNL     1      34.465   5.545 190.636  0.00  0.00    +0.000 C 
ATOM     32  C   UNL     1      32.748   2.328 189.291  0.00  0.00    +0.000 C 
ATOM     33  C   UNL     1      33.853   3.303 189.796  0.00  0.00    +0.000 C 
ATOM     34  C   UNL     1      32.385   0.507 191.097  0.00  0.00    +0.000 A 
ATOM     35  C   UNL     1      31.461   0.210 192.088  0.00  0.00    +0.000 A 
ATOM     36  C   UNL     1      33.519  -0.328 190.976  0.00  0.00    +0.000 A 
ATOM     37  C   UNL     1      31.595  -0.876 192.962  0.00  0.00    +0.000 A 
ATOM     38  C   UNL     1      33.673  -1.420 191.838  0.00  0.00    +0.000 A 
ATOM     39  C   UNL     1      32.722  -1.688 192.817  0.00  0.00    +0.000 A 
ATOM     40  H   UNL     1      29.681   1.184 192.632  0.00  0.00    +0.000 HD
BRANCH  23  42
ATOM     41  O   UNL     1      29.391   4.689 188.774  0.00  0.00    +0.000 OA
ATOM     42  C   UNL     1      29.452   3.579 189.286  0.00  0.00    +0.000 C 
BRANCH  42  43
ATOM     43  O   UNL     1      29.341   2.417 188.558  0.00  0.00    +0.000 OA
ATOM     44  C   UNL     1      30.072   2.430 187.333  0.00  0.00    +0.000 C 
ENDBRANCH  42  43
ENDBRANCH  23  42
BRANCH  30  45
ATOM     45  O   UNL     1      34.105   7.526 192.020  0.00  0.00    +0.000 OA
ATOM     46  H   UNL     1      35.027   7.685 191.750  0.00  0.00    +0.000 HD
ENDBRANCH  30  45
BRANCH  30  47
ATOM     47  C   UNL     1      34.715   5.586 193.217  0.00  0.00    +0.000 C 
ATOM     48  C   UNL     1      35.019   4.098 193.257  0.00  0.00    +0.000 C 
ENDBRANCH  30  47
ENDBRANCH  19  23
BRANCH   7  49
ATOM     49  O   UNL     1      21.956   0.190 191.444  0.00  0.00    +0.000 OA
ATOM     50  H   UNL     1      21.105   0.051 190.980  0.00  0.00    +0.000 HD
ENDBRANCH   7  49
BRANCH   7  52
ATOM     51  O   UNL     1      21.727   3.554 192.747  0.00  0.00    +0.000 OA
ATOM     52  C   UNL     1      21.528   2.395 192.409  0.00  0.00    +0.000 C 
BRANCH  52  53
ATOM     53  O   UNL     1      20.528   1.612 192.935  0.00  0.00    +0.000 OA
ATOM     54  C   UNL     1      20.626   1.418 194.347  0.00  0.00    +0.000 C 
ENDBRANCH  52  53
ENDBRANCH   7  52
BRANCH  20  55
ATOM     55  O   UNL     1      29.263   2.256 193.449  0.00  0.00    +0.000 OA
ATOM     56  C   UNL     1      29.210   2.816 194.758  0.00  0.00    +0.000 C 
ENDBRANCH  20  55
BRANCH   6  57
ATOM     57  C   UNL     1      23.020   0.219 188.497  0.00  0.00    +0.000 C 
ATOM     58  C   UNL     1      24.070  -0.224 187.476  0.00  0.00    +0.000 C 
ENDBRANCH   6  57
BRANCH   9  59
ATOM     59  O   UNL     1      21.358   3.394 189.796  0.00  0.00    +0.000 OA
BRANCH  59  61
ATOM     60  O   UNL     1      19.122   2.896 189.795  0.00  0.00    +0.000 OA
ATOM     61  C   UNL     1      20.054   3.627 189.490  0.00  0.00    +0.000 C 
ATOM     62  C   UNL     1      19.921   4.925 188.756  0.00  0.00    +0.000 C 
ENDBRANCH  59  61
ENDBRANCH   9  59
TORSDOF 12
ENDMDL
MODEL 4
REMARK VINA RESULT:      -7.4      2.943      9.571
REMARK  Name = 
REMARK  19 active torsions:
REMARK  status: ('A' for Active; 'I' for Inactive)
REMARK    1  A    between atoms: O_1  and  C_20
REMARK    2  A    between atoms: O_1  and  C_36
REMARK    3  A    between atoms: O_2  and  C_18
REMARK    4  A    between atoms: O_3  and  C_28
REMARK    5  A    between atoms: O_3  and  C_42
REMARK    6  A    between atoms: O_5  and  C_34
REMARK    7  A    between atoms: O_5  and  C_50
REMARK    8  A    between atoms: O_7  and  C_40
REMARK    9  A    between atoms: O_7  and  C_56
REMARK   10  A    between atoms: O_9  and  C_46
REMARK   11  A    between atoms: N_11  and  C_30
REMARK   12  A    between atoms: C_17  and  C_23
REMARK   13  A    between atoms: C_18  and  C_28
REMARK   14  A    between atoms: C_23  and  C_32
REMARK   15  A    between atoms: C_33  and  C_35
REMARK   16  A    between atoms: C_35  and  C_40
REMARK   17  A    between atoms: C_36  and  C_41
REMARK   18  A    between atoms: C_46  and  C_53
REMARK   19  A    between atoms: C_53  and  C_57
REMARK                            x       y       z     vdW  Elec       q    Type
REMARK                         _______ _______ _______ _____ _____    ______ ____
ROOT
ATOM      1  N   UNL     1      31.178   3.439 193.517  0.00  0.00    +0.000 NA
ATOM      2  N   UNL     1      29.873   2.827 188.967  0.00  0.00    +0.000 N 
ATOM      3  C   UNL     1      30.577   3.130 191.285  0.00  0.00    +0.000 C 
ATOM      4  C   UNL     1      31.650   2.729 192.313  0.00  0.00    +0.000 C 
ATOM      5  C   UNL     1      31.076   2.860 189.852  0.00  0.00    +0.000 C 
ATOM      6  C   UNL     1      33.145   3.023 191.830  0.00  0.00    +0.000 C 
ATOM      7  C   UNL     1      32.299   3.675 189.401  0.00  0.00    +0.000 C 
ATOM      8  C   UNL     1      30.139   4.549 191.698  0.00  0.00    +0.000 C 
ATOM      9  C   UNL     1      33.221   4.044 190.610  0.00  0.00    +0.000 C 
ATOM     10  C   UNL     1      29.313   2.297 191.191  0.00  0.00    +0.000 A 
ATOM     11  C   UNL     1      30.685   4.748 193.110  0.00  0.00    +0.000 C 
ATOM     12  C   UNL     1      28.930   2.210 189.846  0.00  0.00    +0.000 A 
ATOM     13  C   UNL     1      34.000   3.592 192.964  0.00  0.00    +0.000 C 
ATOM     14  C   UNL     1      32.130   3.477 194.616  0.00  0.00    +0.000 C 
ATOM     15  C   UNL     1      33.536   3.777 194.208  0.00  0.00    +0.000 C 
ATOM     16  C   UNL     1      28.558   1.729 192.211  0.00  0.00    +0.000 A 
ATOM     17  C   UNL     1      30.009   2.173 187.667  0.00  0.00    +0.000 C 
ATOM     18  C   UNL     1      27.747   1.578 189.513  0.00  0.00    +0.000 A 
ATOM     19  C   UNL     1      27.350   1.072 191.905  0.00  0.00    +0.000 A 
ATOM     20  C   UNL     1      26.959   1.021 190.534  0.00  0.00    +0.000 A 
ENDROOT
BRANCH  19  23
ATOM     21  N   UNL     1      24.303  -0.930 196.518  0.00  0.00    +0.000 NA
ATOM     22  N   UNL     1      24.664   2.029 192.170  0.00  0.00    +0.000 N 
ATOM     23  C   UNL     1      26.438   0.431 193.026  0.00  0.00    +0.000 C 
ATOM     24  C   UNL     1      26.870   0.929 194.481  0.00  0.00    +0.000 C 
ATOM     25  C   UNL     1      24.939   0.842 192.827  0.00  0.00    +0.000 A 
ATOM     26  C   UNL     1      25.876   0.676 195.626  0.00  0.00    +0.000 C 
ATOM     27  C   UNL     1      26.261   1.306 196.963  0.00  0.00    +0.000 C 
ATOM     28  C   UNL     1      25.615  -0.797 195.909  0.00  0.00    +0.000 C 
ATOM     29  C   UNL     1      23.698   0.334 193.250  0.00  0.00    +0.000 A 
ATOM     30  C   UNL     1      25.186   1.034 198.058  0.00  0.00    +0.000 C 
ATOM     31  C   UNL     1      24.237  -0.208 197.808  0.00  0.00    +0.000 C 
ATOM     32  C   UNL     1      23.344  -0.886 194.086  0.00  0.00    +0.000 C 
ATOM     33  C   UNL     1      23.179  -0.589 195.607  0.00  0.00    +0.000 C 
ATOM     34  C   UNL     1      22.685   1.244 192.767  0.00  0.00    +0.000 A 
ATOM     35  C   UNL     1      23.322   2.281 192.102  0.00  0.00    +0.000 A 
ATOM     36  C   UNL     1      21.275   1.281 192.857  0.00  0.00    +0.000 A 
ATOM     37  C   UNL     1      22.637   3.350 191.510  0.00  0.00    +0.000 A 
ATOM     38  C   UNL     1      20.569   2.339 192.272  0.00  0.00    +0.000 A 
ATOM     39  C   UNL     1      21.243   3.359 191.608  0.00  0.00    +0.000 A 
ATOM     40  H   UNL     1      25.365   2.636 191.764  0.00  0.00    +0.000 HD
BRANCH  23  42
ATOM     41  O   UNL     1      25.896  -1.927 192.378  0.00  0.00    +0.000 OA
ATOM     42  C   UNL     1      26.653  -1.113 192.892  0.00  0.00    +0.000 C 
BRANCH  42  43
ATOM     43  O   UNL     1      27.873  -1.463 193.421  0.00  0.00    +0.000 OA
ATOM     44  C   UNL     1      27.873  -2.724 194.090  0.00  0.00    +0.000 C 
ENDBRANCH  42  43
ENDBRANCH  23  42
BRANCH  30  45
ATOM     45  O   UNL     1      25.935   0.764 199.269  0.00  0.00    +0.000 OA
ATOM     46  H   UNL     1      26.499  -0.011 199.095  0.00  0.00    +0.000 HD
ENDBRANCH  30  45
BRANCH  30  47
ATOM     47  C   UNL     1      24.385   2.313 198.397  0.00  0.00    +0.000 C 
ATOM     48  C   UNL     1      22.964   2.111 198.893  0.00  0.00    +0.000 C 
ENDBRANCH  30  47
ENDBRANCH  19  23
BRANCH   7  49
ATOM     49  O   UNL     1      33.082   2.769 188.558  0.00  0.00    +0.000 OA
ATOM     50  H   UNL     1      32.492   2.508 187.822  0.00  0.00    +0.000 HD
ENDBRANCH   7  49
BRANCH   7  52
ATOM     51  O   UNL     1      31.235   5.867 188.922  0.00  0.00    +0.000 OA
ATOM     52  C   UNL     1      31.907   4.912 188.556  0.00  0.00    +0.000 C 
BRANCH  52  53
ATOM     53  O   UNL     1      32.500   4.832 187.319  0.00  0.00    +0.000 OA
ATOM     54  C   UNL     1      31.618   5.123 186.233  0.00  0.00    +0.000 C 
ENDBRANCH  52  53
ENDBRANCH   7  52
BRANCH  20  55
ATOM     55  O   UNL     1      25.803   0.346 190.236  0.00  0.00    +0.000 OA
ATOM     56  C   UNL     1      25.177   0.724 189.012  0.00  0.00    +0.000 C 
ENDBRANCH  20  55
BRANCH   6  57
ATOM     57  C   UNL     1      33.835   1.677 191.397  0.00  0.00    +0.000 C 
ATOM     58  C   UNL     1      33.108   0.385 191.775  0.00  0.00    +0.000 C 
ENDBRANCH   6  57
BRANCH   9  59
ATOM     59  O   UNL     1      32.949   5.373 191.116  0.00  0.00    +0.000 OA
BRANCH  59  61
ATOM     60  O   UNL     1      34.052   7.228 191.885  0.00  0.00    +0.000 OA
ATOM     61  C   UNL     1      33.991   6.247 191.158  0.00  0.00    +0.000 C 
ATOM     62  C   UNL     1      35.067   5.813 190.211  0.00  0.00    +0.000 C 
ENDBRANCH  59  61
ENDBRANCH   9  59
TORSDOF 12
ENDMDL
MODEL 5
REMARK VINA RESULT:      -7.4      2.041      3.782
REMARK  Name = 
REMARK  19 active torsions:
REMARK  status: ('A' for Active; 'I' for Inactive)
REMARK    1  A    between atoms: O_1  and  C_20
REMARK    2  A    between atoms: O_1  and  C_36
REMARK    3  A    between atoms: O_2  and  C_18
REMARK    4  A    between atoms: O_3  and  C_28
REMARK    5  A    between atoms: O_3  and  C_42
REMARK    6  A    between atoms: O_5  and  C_34
REMARK    7  A    between atoms: O_5  and  C_50
REMARK    8  A    between atoms: O_7  and  C_40
REMARK    9  A    between atoms: O_7  and  C_56
REMARK   10  A    between atoms: O_9  and  C_46
REMARK   11  A    between atoms: N_11  and  C_30
REMARK   12  A    between atoms: C_17  and  C_23
REMARK   13  A    between atoms: C_18  and  C_28
REMARK   14  A    between atoms: C_23  and  C_32
REMARK   15  A    between atoms: C_33  and  C_35
REMARK   16  A    between atoms: C_35  and  C_40
REMARK   17  A    between atoms: C_36  and  C_41
REMARK   18  A    between atoms: C_46  and  C_53
REMARK   19  A    between atoms: C_53  and  C_57
REMARK                            x       y       z     vdW  Elec       q    Type
REMARK                         _______ _______ _______ _____ _____    ______ ____
ROOT
ATOM      1  N   UNL     1      24.986   3.992 189.346  0.00  0.00    +0.000 NA
ATOM      2  N   UNL     1      22.597   0.833 192.008  0.00  0.00    +0.000 N 
ATOM      3  C   UNL     1      23.802   2.435 190.614  0.00  0.00    +0.000 C 
ATOM      4  C   UNL     1      24.301   2.696 189.182  0.00  0.00    +0.000 C 
ATOM      5  C   UNL     1      22.701   1.356 190.614  0.00  0.00    +0.000 C 
ATOM      6  C   UNL     1      23.151   2.611 188.075  0.00  0.00    +0.000 C 
ATOM      7  C   UNL     1      21.408   1.716 189.864  0.00  0.00    +0.000 C 
ATOM      8  C   UNL     1      23.516   3.832 191.199  0.00  0.00    +0.000 C 
ATOM      9  C   UNL     1      21.684   2.708 188.687  0.00  0.00    +0.000 C 
ATOM     10  C   UNL     1      24.729   1.738 191.591  0.00  0.00    +0.000 A 
ATOM     11  C   UNL     1      24.192   4.816 190.248  0.00  0.00    +0.000 C 
ATOM     12  C   UNL     1      23.971   0.879 192.399  0.00  0.00    +0.000 A 
ATOM     13  C   UNL     1      23.292   3.722 187.032  0.00  0.00    +0.000 C 
ATOM     14  C   UNL     1      25.349   4.653 188.101  0.00  0.00    +0.000 C 
ATOM     15  C   UNL     1      24.288   4.619 187.049  0.00  0.00    +0.000 C 
ATOM     16  C   UNL     1      26.098   1.903 191.773  0.00  0.00    +0.000 A 
ATOM     17  C   UNL     1      21.956  -0.468 192.196  0.00  0.00    +0.000 C 
ATOM     18  C   UNL     1      24.582   0.201 193.436  0.00  0.00    +0.000 A 
ATOM     19  C   UNL     1      26.753   1.221 192.818  0.00  0.00    +0.000 A 
ATOM     20  C   UNL     1      25.959   0.376 193.649  0.00  0.00    +0.000 A 
ENDROOT
BRANCH  19  23
ATOM     21  N   UNL     1      32.572   1.197 193.660  0.00  0.00    +0.000 NA
ATOM     22  N   UNL     1      28.335   2.515 190.813  0.00  0.00    +0.000 N 
ATOM     23  C   UNL     1      28.301   1.391 193.087  0.00  0.00    +0.000 C 
ATOM     24  C   UNL     1      29.072  -0.001 192.945  0.00  0.00    +0.000 C 
ATOM     25  C   UNL     1      28.941   2.376 192.050  0.00  0.00    +0.000 A 
ATOM     26  C   UNL     1      30.604   0.061 192.833  0.00  0.00    +0.000 C 
ATOM     27  C   UNL     1      31.282  -1.277 192.543  0.00  0.00    +0.000 C 
ATOM     28  C   UNL     1      31.296   0.631 194.062  0.00  0.00    +0.000 C 
ATOM     29  C   UNL     1      30.112   3.155 192.000  0.00  0.00    +0.000 A 
ATOM     30  C   UNL     1      32.826  -1.122 192.407  0.00  0.00    +0.000 C 
ATOM     31  C   UNL     1      33.459   0.160 193.088  0.00  0.00    +0.000 C 
ATOM     32  C   UNL     1      31.234   3.347 193.007  0.00  0.00    +0.000 C 
ATOM     33  C   UNL     1      32.451   2.397 192.792  0.00  0.00    +0.000 C 
ATOM     34  C   UNL     1      30.136   3.793 190.704  0.00  0.00    +0.000 A 
ATOM     35  C   UNL     1      29.019   3.373 189.998  0.00  0.00    +0.000 A 
ATOM     36  C   UNL     1      31.029   4.683 190.064  0.00  0.00    +0.000 A 
ATOM     37  C   UNL     1      28.732   3.795 188.694  0.00  0.00    +0.000 A 
ATOM     38  C   UNL     1      30.762   5.118 188.761  0.00  0.00    +0.000 A 
ATOM     39  C   UNL     1      29.627   4.679 188.087  0.00  0.00    +0.000 A 
ATOM     40  H   UNL     1      27.476   2.056 190.541  0.00  0.00    +0.000 HD
BRANCH  23  42
ATOM     41  O   UNL     1      28.880   1.348 195.524  0.00  0.00    +0.000 OA
ATOM     42  C   UNL     1      28.404   1.925 194.554  0.00  0.00    +0.000 C 
BRANCH  42  43
ATOM     43  O   UNL     1      27.895   3.201 194.624  0.00  0.00    +0.000 OA
ATOM     44  C   UNL     1      27.105   3.446 195.787  0.00  0.00    +0.000 C 
ENDBRANCH  42  43
ENDBRANCH  23  42
BRANCH  30  45
ATOM     45  O   UNL     1      33.386  -2.281 193.074  0.00  0.00    +0.000 OA
ATOM     46  H   UNL     1      32.655  -2.737 193.527  0.00  0.00    +0.000 HD
ENDBRANCH  30  45
BRANCH  30  47
ATOM     47  C   UNL     1      33.286  -1.281 190.939  0.00  0.00    +0.000 C 
ATOM     48  C   UNL     1      34.096  -0.137 190.354  0.00  0.00    +0.000 C 
ENDBRANCH  30  47
ENDBRANCH  19  23
BRANCH   7  49
ATOM     49  O   UNL     1      20.956   0.469 189.243  0.00  0.00    +0.000 OA
ATOM     50  H   UNL     1      21.733   0.109 188.767  0.00  0.00    +0.000 HD
ENDBRANCH   7  49
BRANCH   7  52
ATOM     51  O   UNL     1      20.433   2.959 191.780  0.00  0.00    +0.000 OA
ATOM     52  C   UNL     1      20.294   2.220 190.815  0.00  0.00    +0.000 C 
BRANCH  52  53
ATOM     53  O   UNL     1      19.072   1.776 190.370  0.00  0.00    +0.000 OA
ATOM     54  C   UNL     1      18.186   1.371 191.415  0.00  0.00    +0.000 C 
ENDBRANCH  52  53
ENDBRANCH   7  52
BRANCH  20  55
ATOM     55  O   UNL     1      26.608  -0.317 194.640  0.00  0.00    +0.000 OA
ATOM     56  C   UNL     1      26.314  -1.710 194.698  0.00  0.00    +0.000 C 
ENDBRANCH  20  55
BRANCH   6  57
ATOM     57  C   UNL     1      23.275   1.255 187.288  0.00  0.00    +0.000 C 
ATOM     58  C   UNL     1      24.530   0.422 187.555  0.00  0.00    +0.000 C 
ENDBRANCH   6  57
BRANCH   9  59
ATOM     59  O   UNL     1      21.442   4.084 189.066  0.00  0.00    +0.000 OA
BRANCH  59  61
ATOM     60  O   UNL     1      20.209   5.937 188.523  0.00  0.00    +0.000 OA
ATOM     61  C   UNL     1      20.441   4.740 188.421  0.00  0.00    +0.000 C 
ATOM     62  C   UNL     1      19.686   3.793 187.541  0.00  0.00    +0.000 C 
ENDBRANCH  59  61
ENDBRANCH   9  59
TORSDOF 12
ENDMDL
MODEL 6
REMARK VINA RESULT:      -7.1     31.756     35.977
REMARK  Name = 
REMARK  19 active torsions:
REMARK  status: ('A' for Active; 'I' for Inactive)
REMARK    1  A    between atoms: O_1  and  C_20
REMARK    2  A    between atoms: O_1  and  C_36
REMARK    3  A    between atoms: O_2  and  C_18
REMARK    4  A    between atoms: O_3  and  C_28
REMARK    5  A    between atoms: O_3  and  C_42
REMARK    6  A    between atoms: O_5  and  C_34
REMARK    7  A    between atoms: O_5  and  C_50
REMARK    8  A    between atoms: O_7  and  C_40
REMARK    9  A    between atoms: O_7  and  C_56
REMARK   10  A    between atoms: O_9  and  C_46
REMARK   11  A    between atoms: N_11  and  C_30
REMARK   12  A    between atoms: C_17  and  C_23
REMARK   13  A    between atoms: C_18  and  C_28
REMARK   14  A    between atoms: C_23  and  C_32
REMARK   15  A    between atoms: C_33  and  C_35
REMARK   16  A    between atoms: C_35  and  C_40
REMARK   17  A    between atoms: C_36  and  C_41
REMARK   18  A    between atoms: C_46  and  C_53
REMARK   19  A    between atoms: C_53  and  C_57
REMARK                            x       y       z     vdW  Elec       q    Type
REMARK                         _______ _______ _______ _____ _____    ______ ____
ROOT
ATOM      1  N   UNL     1      35.163 -26.880 175.330  0.00  0.00    +0.000 NA
ATOM      2  N   UNL     1      38.974 -29.156 177.083  0.00  0.00    +0.000 N 
ATOM      3  C   UNL     1      37.012 -28.025 176.170  0.00  0.00    +0.000 C 
ATOM      4  C   UNL     1      35.948 -28.099 175.061  0.00  0.00    +0.000 C 
ATOM      5  C   UNL     1      37.689 -29.397 176.361  0.00  0.00    +0.000 C 
ATOM      6  C   UNL     1      35.154 -29.486 175.024  0.00  0.00    +0.000 C 
ATOM      7  C   UNL     1      36.776 -30.535 176.844  0.00  0.00    +0.000 C 
ATOM      8  C   UNL     1      36.308 -27.338 177.355  0.00  0.00    +0.000 C 
ATOM      9  C   UNL     1      35.300 -30.328 176.368  0.00  0.00    +0.000 C 
ATOM     10  C   UNL     1      38.282 -27.239 175.906  0.00  0.00    +0.000 A 
ATOM     11  C   UNL     1      35.033 -26.731 176.774  0.00  0.00    +0.000 C 
ATOM     12  C   UNL     1      39.359 -27.908 176.504  0.00  0.00    +0.000 A 
ATOM     13  C   UNL     1      33.660 -29.272 174.771  0.00  0.00    +0.000 C 
ATOM     14  C   UNL     1      33.904 -26.792 174.607  0.00  0.00    +0.000 C 
ATOM     15  C   UNL     1      33.118 -28.063 174.573  0.00  0.00    +0.000 C 
ATOM     16  C   UNL     1      38.442 -26.022 175.251  0.00  0.00    +0.000 A 
ATOM     17  C   UNL     1      39.995 -30.200 177.009  0.00  0.00    +0.000 C 
ATOM     18  C   UNL     1      40.615 -27.333 176.483  0.00  0.00    +0.000 A 
ATOM     19  C   UNL     1      39.711 -25.413 175.206  0.00  0.00    +0.000 A 
ATOM     20  C   UNL     1      40.789 -26.092 175.847  0.00  0.00    +0.000 A 
ENDROOT
BRANCH  19  23
ATOM     21  N   UNL     1      41.138 -20.507 172.297  0.00  0.00    +0.000 NA
ATOM     22  N   UNL     1      38.108 -24.775 172.922  0.00  0.00    +0.000 N 
ATOM     23  C   UNL     1      39.946 -24.019 174.498  0.00  0.00    +0.000 C 
ATOM     24  C   UNL     1      41.312 -24.010 173.671  0.00  0.00    +0.000 C 
ATOM     25  C   UNL     1      38.794 -23.710 173.482  0.00  0.00    +0.000 A 
ATOM     26  C   UNL     1      41.506 -22.869 172.660  0.00  0.00    +0.000 C 
ATOM     27  C   UNL     1      42.752 -22.989 171.785  0.00  0.00    +0.000 C 
ATOM     28  C   UNL     1      41.558 -21.483 173.286  0.00  0.00    +0.000 C 
ATOM     29  C   UNL     1      38.286 -22.553 172.865  0.00  0.00    +0.000 A 
ATOM     30  C   UNL     1      42.854 -21.816 170.764  0.00  0.00    +0.000 C 
ATOM     31  C   UNL     1      42.047 -20.504 171.130  0.00  0.00    +0.000 C 
ATOM     32  C   UNL     1      38.685 -21.091 172.991  0.00  0.00    +0.000 C 
ATOM     33  C   UNL     1      39.706 -20.616 171.913  0.00  0.00    +0.000 C 
ATOM     34  C   UNL     1      37.241 -22.980 171.964  0.00  0.00    +0.000 A 
ATOM     35  C   UNL     1      37.160 -24.363 172.028  0.00  0.00    +0.000 A 
ATOM     36  C   UNL     1      36.368 -22.304 171.083  0.00  0.00    +0.000 A 
ATOM     37  C   UNL     1      36.251 -25.114 171.271  0.00  0.00    +0.000 A 
ATOM     38  C   UNL     1      35.450 -23.034 170.318  0.00  0.00    +0.000 A 
ATOM     39  C   UNL     1      35.395 -24.420 170.413  0.00  0.00    +0.000 A 
ATOM     40  H   UNL     1      38.267 -25.746 173.156  0.00  0.00    +0.000 HD
BRANCH  23  42
ATOM     41  O   UNL     1      40.994 -22.394 176.090  0.00  0.00    +0.000 OA
ATOM     42  C   UNL     1      40.005 -22.975 175.662  0.00  0.00    +0.000 C 
BRANCH  42  43
ATOM     43  O   UNL     1      38.741 -22.753 176.156  0.00  0.00    +0.000 OA
ATOM     44  C   UNL     1      38.510 -21.407 176.571  0.00  0.00    +0.000 C 
ENDBRANCH  42  43
ENDBRANCH  23  42
BRANCH  30  45
ATOM     45  O   UNL     1      44.259 -21.460 170.731  0.00  0.00    +0.000 OA
ATOM     46  H   UNL     1      44.392 -20.741 171.374  0.00  0.00    +0.000 HD
ENDBRANCH  30  45
BRANCH  30  47
ATOM     47  C   UNL     1      42.558 -22.291 169.322  0.00  0.00    +0.000 C 
ATOM     48  C   UNL     1      41.095 -22.452 168.947  0.00  0.00    +0.000 C 
ENDBRANCH  30  47
ENDBRANCH  19  23
BRANCH   7  49
ATOM     49  O   UNL     1      37.255 -31.737 176.159  0.00  0.00    +0.000 OA
ATOM     50  H   UNL     1      36.922 -32.496 176.682  0.00  0.00    +0.000 HD
ENDBRANCH   7  49
BRANCH   7  52
ATOM     51  O   UNL     1      36.993 -29.912 179.237  0.00  0.00    +0.000 OA
ATOM     52  C   UNL     1      36.879 -30.769 178.372  0.00  0.00    +0.000 C 
BRANCH  52  53
ATOM     53  O   UNL     1      36.740 -32.108 178.643  0.00  0.00    +0.000 OA
ATOM     54  C   UNL     1      36.160 -32.384 179.920  0.00  0.00    +0.000 C 
ENDBRANCH  52  53
ENDBRANCH   7  52
BRANCH  20  55
ATOM     55  O   UNL     1      42.031 -25.515 175.767  0.00  0.00    +0.000 OA
ATOM     56  C   UNL     1      43.123 -26.429 175.715  0.00  0.00    +0.000 C 
ENDBRANCH  20  55
BRANCH   6  57
ATOM     57  C   UNL     1      35.677 -30.363 173.827  0.00  0.00    +0.000 C 
ATOM     58  C   UNL     1      36.539 -29.649 172.783  0.00  0.00    +0.000 C 
ENDBRANCH   6  57
BRANCH   9  59
ATOM     59  O   UNL     1      34.483 -29.701 177.385  0.00  0.00    +0.000 OA
BRANCH  59  61
ATOM     60  O   UNL     1      32.268 -29.672 177.970  0.00  0.00    +0.000 OA
ATOM     61  C   UNL     1      33.284 -30.280 177.664  0.00  0.00    +0.000 C 
ATOM     62  C   UNL     1      33.380 -31.766 177.508  0.00  0.00    +0.000 C 
ENDBRANCH  59  61
ENDBRANCH   9  59
TORSDOF 12
ENDMDL
MODEL 7
REMARK VINA RESULT:      -7.0     33.996     38.222
REMARK  Name = 
REMARK  19 active torsions:
REMARK  status: ('A' for Active; 'I' for Inactive)
REMARK    1  A    between atoms: O_1  and  C_20
REMARK    2  A    between atoms: O_1  and  C_36
REMARK    3  A    between atoms: O_2  and  C_18
REMARK    4  A    between atoms: O_3  and  C_28
REMARK    5  A    between atoms: O_3  and  C_42
REMARK    6  A    between atoms: O_5  and  C_34
REMARK    7  A    between atoms: O_5  and  C_50
REMARK    8  A    between atoms: O_7  and  C_40
REMARK    9  A    between atoms: O_7  and  C_56
REMARK   10  A    between atoms: O_9  and  C_46
REMARK   11  A    between atoms: N_11  and  C_30
REMARK   12  A    between atoms: C_17  and  C_23
REMARK   13  A    between atoms: C_18  and  C_28
REMARK   14  A    between atoms: C_23  and  C_32
REMARK   15  A    between atoms: C_33  and  C_35
REMARK   16  A    between atoms: C_35  and  C_40
REMARK   17  A    between atoms: C_36  and  C_41
REMARK   18  A    between atoms: C_46  and  C_53
REMARK   19  A    between atoms: C_53  and  C_57
REMARK                            x       y       z     vdW  Elec       q    Type
REMARK                         _______ _______ _______ _____ _____    ______ ____
ROOT
ATOM      1  N   UNL     1      43.416 -20.791 172.021  0.00  0.00    +0.000 NA
ATOM      2  N   UNL     1      42.111 -25.229 170.846  0.00  0.00    +0.000 N 
ATOM      3  C   UNL     1      42.752 -22.944 171.423  0.00  0.00    +0.000 C 
ATOM      4  C   UNL     1      42.715 -21.488 170.927  0.00  0.00    +0.000 C 
ATOM      5  C   UNL     1      41.719 -23.800 170.663  0.00  0.00    +0.000 C 
ATOM      6  C   UNL     1      41.249 -20.973 170.552  0.00  0.00    +0.000 C 
ATOM      7  C   UNL     1      40.245 -23.409 170.863  0.00  0.00    +0.000 C 
ATOM      8  C   UNL     1      42.692 -22.844 172.960  0.00  0.00    +0.000 C 
ATOM      9  C   UNL     1      40.091 -21.881 171.160  0.00  0.00    +0.000 C 
ATOM     10  C   UNL     1      43.962 -23.795 171.091  0.00  0.00    +0.000 A 
ATOM     11  C   UNL     1      42.992 -21.382 173.284  0.00  0.00    +0.000 C 
ATOM     12  C   UNL     1      43.534 -25.104 170.828  0.00  0.00    +0.000 A 
ATOM     13  C   UNL     1      41.016 -19.540 171.035  0.00  0.00    +0.000 C 
ATOM     14  C   UNL     1      43.319 -19.339 171.982  0.00  0.00    +0.000 C 
ATOM     15  C   UNL     1      41.955 -18.817 171.662  0.00  0.00    +0.000 C 
ATOM     16  C   UNL     1      45.308 -23.444 171.085  0.00  0.00    +0.000 A 
ATOM     17  C   UNL     1      41.575 -26.203 169.897  0.00  0.00    +0.000 C 
ATOM     18  C   UNL     1      44.471 -26.093 170.593  0.00  0.00    +0.000 A 
ATOM     19  C   UNL     1      46.287 -24.428 170.843  0.00  0.00    +0.000 A 
ATOM     20  C   UNL     1      45.835 -25.760 170.609  0.00  0.00    +0.000 A 
ENDROOT
BRANCH  19  23
ATOM     21  N   UNL     1      51.865 -22.604 171.199  0.00  0.00    +0.000 NA
ATOM     22  N   UNL     1      47.960 -25.805 172.713  0.00  0.00    +0.000 N 
ATOM     23  C   UNL     1      47.831 -24.090 170.849  0.00  0.00    +0.000 C 
ATOM     24  C   UNL     1      48.110 -22.657 171.497  0.00  0.00    +0.000 C 
ATOM     25  C   UNL     1      48.627 -25.139 171.699  0.00  0.00    +0.000 A 
ATOM     26  C   UNL     1      49.563 -22.341 171.888  0.00  0.00    +0.000 C 
ATOM     27  C   UNL     1      49.754 -21.027 172.644  0.00  0.00    +0.000 C 
ATOM     28  C   UNL     1      50.530 -22.302 170.714  0.00  0.00    +0.000 C 
ATOM     29  C   UNL     1      49.968 -25.555 171.775  0.00  0.00    +0.000 A 
ATOM     30  C   UNL     1      51.245 -20.801 173.035  0.00  0.00    +0.000 C 
ATOM     31  C   UNL     1      52.317 -21.597 172.183  0.00  0.00    +0.000 C 
ATOM     32  C   UNL     1      51.199 -25.125 170.994  0.00  0.00    +0.000 C 
ATOM     33  C   UNL     1      52.028 -23.999 171.684  0.00  0.00    +0.000 C 
ATOM     34  C   UNL     1      50.046 -26.530 172.839  0.00  0.00    +0.000 A 
ATOM     35  C   UNL     1      48.782 -26.659 173.395  0.00  0.00    +0.000 A 
ATOM     36  C   UNL     1      51.094 -27.302 173.388  0.00  0.00    +0.000 A 
ATOM     37  C   UNL     1      48.497 -27.520 174.462  0.00  0.00    +0.000 A 
ATOM     38  C   UNL     1      50.832 -28.171 174.454  0.00  0.00    +0.000 A 
ATOM     39  C   UNL     1      49.550 -28.276 174.982  0.00  0.00    +0.000 A 
ATOM     40  H   UNL     1      46.976 -25.697 172.921  0.00  0.00    +0.000 HD
BRANCH  23  42
ATOM     41  O   UNL     1      48.884 -24.972 168.755  0.00  0.00    +0.000 OA
ATOM     42  C   UNL     1      48.257 -24.101 169.344  0.00  0.00    +0.000 C 
BRANCH  42  43
ATOM     43  O   UNL     1      47.791 -22.969 168.717  0.00  0.00    +0.000 OA
ATOM     44  C   UNL     1      48.541 -22.596 167.562  0.00  0.00    +0.000 C 
ENDBRANCH  42  43
ENDBRANCH  23  42
BRANCH  30  45
ATOM     45  O   UNL     1      51.487 -19.388 172.817  0.00  0.00    +0.000 OA
ATOM     46  H   UNL     1      51.146 -18.912 173.595  0.00  0.00    +0.000 HD
ENDBRANCH  30  45
BRANCH  30  47
ATOM     47  C   UNL     1      51.467 -20.984 174.555  0.00  0.00    +0.000 C 
ATOM     48  C   UNL     1      52.901 -21.185 175.012  0.00  0.00    +0.000 C 
ENDBRANCH  30  47
ENDBRANCH  19  23
BRANCH   7  49
ATOM     49  O   UNL     1      39.602 -23.636 169.567  0.00  0.00    +0.000 OA
ATOM     50  H   UNL     1      38.658 -23.810 169.762  0.00  0.00    +0.000 HD
ENDBRANCH   7  49
BRANCH   7  52
ATOM     51  O   UNL     1      39.940 -24.553 173.046  0.00  0.00    +0.000 OA
ATOM     52  C   UNL     1      39.538 -24.293 171.921  0.00  0.00    +0.000 C 
BRANCH  52  53
ATOM     53  O   UNL     1      38.316 -24.698 171.440  0.00  0.00    +0.000 OA
ATOM     54  C   UNL     1      37.366 -25.012 172.461  0.00  0.00    +0.000 C 
ENDBRANCH  52  53
ENDBRANCH   7  52
BRANCH  20  55
ATOM     55  O   UNL     1      46.790 -26.707 170.333  0.00  0.00    +0.000 OA
ATOM     56  C   UNL     1      46.483 -27.581 169.251  0.00  0.00    +0.000 C 
ENDBRANCH  20  55
BRANCH   6  57
ATOM     57  C   UNL     1      41.085 -20.937 168.987  0.00  0.00    +0.000 C 
ATOM     58  C   UNL     1      39.832 -20.243 168.448  0.00  0.00    +0.000 C 
ENDBRANCH   6  57
BRANCH   9  59
ATOM     59  O   UNL     1      40.000 -21.609 172.579  0.00  0.00    +0.000 OA
BRANCH  59  61
ATOM     60  O   UNL     1      37.713 -21.494 172.650  0.00  0.00    +0.000 OA
ATOM     61  C   UNL     1      38.814 -21.137 173.047  0.00  0.00    +0.000 C 
ATOM     62  C   UNL     1      39.049 -20.146 174.144  0.00  0.00    +0.000 C 
ENDBRANCH  59  61
ENDBRANCH   9  59
TORSDOF 12
ENDMDL
MODEL 8
REMARK VINA RESULT:      -6.9      2.871     10.000
REMARK  Name = 
REMARK  19 active torsions:
REMARK  status: ('A' for Active; 'I' for Inactive)
REMARK    1  A    between atoms: O_1  and  C_20
REMARK    2  A    between atoms: O_1  and  C_36
REMARK    3  A    between atoms: O_2  and  C_18
REMARK    4  A    between atoms: O_3  and  C_28
REMARK    5  A    between atoms: O_3  and  C_42
REMARK    6  A    between atoms: O_5  and  C_34
REMARK    7  A    between atoms: O_5  and  C_50
REMARK    8  A    between atoms: O_7  and  C_40
REMARK    9  A    between atoms: O_7  and  C_56
REMARK   10  A    between atoms: O_9  and  C_46
REMARK   11  A    between atoms: N_11  and  C_30
REMARK   12  A    between atoms: C_17  and  C_23
REMARK   13  A    between atoms: C_18  and  C_28
REMARK   14  A    between atoms: C_23  and  C_32
REMARK   15  A    between atoms: C_33  and  C_35
REMARK   16  A    between atoms: C_35  and  C_40
REMARK   17  A    between atoms: C_36  and  C_41
REMARK   18  A    between atoms: C_46  and  C_53
REMARK   19  A    between atoms: C_53  and  C_57
REMARK                            x       y       z     vdW  Elec       q    Type
REMARK                         _______ _______ _______ _____ _____    ______ ____
ROOT
ATOM      1  N   UNL     1      29.791   1.067 191.453  0.00  0.00    +0.000 NA
ATOM      2  N   UNL     1      29.517   3.285 195.670  0.00  0.00    +0.000 N 
ATOM      3  C   UNL     1      29.671   2.183 193.497  0.00  0.00    +0.000 C 
ATOM      4  C   UNL     1      29.722   2.443 191.981  0.00  0.00    +0.000 C 
ATOM      5  C   UNL     1      30.020   3.467 194.276  0.00  0.00    +0.000 C 
ATOM      6  C   UNL     1      30.877   3.455 191.540  0.00  0.00    +0.000 C 
ATOM      7  C   UNL     1      31.443   4.011 194.072  0.00  0.00    +0.000 C 
ATOM      8  C   UNL     1      30.498   0.900 193.710  0.00  0.00    +0.000 C 
ATOM      9  C   UNL     1      31.998   3.651 192.654  0.00  0.00    +0.000 C 
ATOM     10  C   UNL     1      28.324   1.943 194.149  0.00  0.00    +0.000 A 
ATOM     11  C   UNL     1      30.668   0.290 192.320  0.00  0.00    +0.000 C 
ATOM     12  C   UNL     1      28.320   2.548 195.413  0.00  0.00    +0.000 A 
ATOM     13  C   UNL     1      31.574   2.989 190.259  0.00  0.00    +0.000 C 
ATOM     14  C   UNL     1      30.118   0.972 190.038  0.00  0.00    +0.000 C 
ATOM     15  C   UNL     1      31.215   1.884 189.592  0.00  0.00    +0.000 C 
ATOM     16  C   UNL     1      27.239   1.209 193.680  0.00  0.00    +0.000 A 
ATOM     17  C   UNL     1      29.329   4.486 196.482  0.00  0.00    +0.000 C 
ATOM     18  C   UNL     1      27.228   2.385 196.244  0.00  0.00    +0.000 A 
ATOM     19  C   UNL     1      26.109   1.029 194.501  0.00  0.00    +0.000 A 
ATOM     20  C   UNL     1      26.135   1.625 195.796  0.00  0.00    +0.000 A 
ENDROOT
BRANCH  19  23
ATOM     21  N   UNL     1      21.163  -1.926 193.326  0.00  0.00    +0.000 NA
ATOM     22  N   UNL     1      24.404   2.147 192.490  0.00  0.00    +0.000 N 
ATOM     23  C   UNL     1      24.859   0.183 194.030  0.00  0.00    +0.000 C 
ATOM     24  C   UNL     1      23.713   0.170 195.142  0.00  0.00    +0.000 C 
ATOM     25  C   UNL     1      24.230   0.794 192.731  0.00  0.00    +0.000 A 
ATOM     26  C   UNL     1      22.320  -0.307 194.700  0.00  0.00    +0.000 C 
ATOM     27  C   UNL     1      21.224  -0.154 195.753  0.00  0.00    +0.000 C 
ATOM     28  C   UNL     1      22.274  -1.759 194.246  0.00  0.00    +0.000 C 
ATOM     29  C   UNL     1      23.392   0.321 191.706  0.00  0.00    +0.000 A 
ATOM     30  C   UNL     1      19.840  -0.625 195.214  0.00  0.00    +0.000 C 
ATOM     31  C   UNL     1      19.874  -1.623 193.986  0.00  0.00    +0.000 C 
ATOM     32  C   UNL     1      22.776  -1.048 191.465  0.00  0.00    +0.000 C 
ATOM     33  C   UNL     1      21.335  -1.207 192.037  0.00  0.00    +0.000 C 
ATOM     34  C   UNL     1      23.127   1.438 190.830  0.00  0.00    +0.000 A 
ATOM     35  C   UNL     1      23.772   2.551 191.347  0.00  0.00    +0.000 A 
ATOM     36  C   UNL     1      22.376   1.599 189.644  0.00  0.00    +0.000 A 
ATOM     37  C   UNL     1      23.721   3.816 190.749  0.00  0.00    +0.000 A 
ATOM     38  C   UNL     1      22.311   2.854 189.027  0.00  0.00    +0.000 A 
ATOM     39  C   UNL     1      22.976   3.947 189.574  0.00  0.00    +0.000 A 
ATOM     40  H   UNL     1      24.950   2.768 193.073  0.00  0.00    +0.000 HD
BRANCH  23  42
ATOM     41  O   UNL     1      25.747  -1.769 192.734  0.00  0.00    +0.000 OA
ATOM     42  C   UNL     1      25.410  -1.263 193.797  0.00  0.00    +0.000 C 
BRANCH  42  43
ATOM     43  O   UNL     1      25.506  -1.926 194.998  0.00  0.00    +0.000 OA
ATOM     44  C   UNL     1      26.698  -2.697 195.141  0.00  0.00    +0.000 C 
ENDBRANCH  42  43
ENDBRANCH  23  42
BRANCH  30  45
ATOM     45  O   UNL     1      19.218  -1.327 196.320  0.00  0.00    +0.000 OA
ATOM     46  H   UNL     1      18.935  -2.198 195.989  0.00  0.00    +0.000 HD
ENDBRANCH  30  45
BRANCH  30  47
ATOM     47  C   UNL     1      18.893   0.571 194.958  0.00  0.00    +0.000 C 
ATOM     48  C   UNL     1      18.651   0.946 193.506  0.00  0.00    +0.000 C 
ENDBRANCH  30  47
ENDBRANCH  19  23
BRANCH   7  49
ATOM     49  O   UNL     1      31.310   5.469 194.094  0.00  0.00    +0.000 OA
ATOM     50  H   UNL     1      30.378   5.658 193.860  0.00  0.00    +0.000 HD
ENDBRANCH   7  49
BRANCH   7  52
ATOM     51  O   UNL     1      32.502   2.481 195.716  0.00  0.00    +0.000 OA
ATOM     52  C   UNL     1      32.407   3.590 195.210  0.00  0.00    +0.000 C 
BRANCH  52  53
ATOM     53  O   UNL     1      33.225   4.645 195.534  0.00  0.00    +0.000 OA
ATOM     54  C   UNL     1      33.331   4.886 196.939  0.00  0.00    +0.000 C 
ENDBRANCH  52  53
ENDBRANCH   7  52
BRANCH  20  55
ATOM     55  O   UNL     1      25.016   1.481 196.576  0.00  0.00    +0.000 OA
ATOM     56  C   UNL     1      25.071   2.133 197.842  0.00  0.00    +0.000 C 
ENDBRANCH  20  55
BRANCH   6  57
ATOM     57  C   UNL     1      30.252   4.860 191.209  0.00  0.00    +0.000 C 
ATOM     58  C   UNL     1      31.123   5.821 190.397  0.00  0.00    +0.000 C 
ENDBRANCH   6  57
BRANCH   9  59
ATOM     59  O   UNL     1      32.824   2.463 192.678  0.00  0.00    +0.000 OA
BRANCH  59  61
ATOM     60  O   UNL     1      34.787   3.625 192.467  0.00  0.00    +0.000 OA
ATOM     61  C   UNL     1      34.129   2.605 192.321  0.00  0.00    +0.000 C 
ATOM     62  C   UNL     1      34.653   1.321 191.758  0.00  0.00    +0.000 C 
ENDBRANCH  59  61
ENDBRANCH   9  59
TORSDOF 12
ENDMDL
MODEL 9
REMARK VINA RESULT:      -6.9     27.829     33.146
REMARK  Name = 
REMARK  19 active torsions:
REMARK  status: ('A' for Active; 'I' for Inactive)
REMARK    1  A    between atoms: O_1  and  C_20
REMARK    2  A    between atoms: O_1  and  C_36
REMARK    3  A    between atoms: O_2  and  C_18
REMARK    4  A    between atoms: O_3  and  C_28
REMARK    5  A    between atoms: O_3  and  C_42
REMARK    6  A    between atoms: O_5  and  C_34
REMARK    7  A    between atoms: O_5  and  C_50
REMARK    8  A    between atoms: O_7  and  C_40
REMARK    9  A    between atoms: O_7  and  C_56
REMARK   10  A    between atoms: O_9  and  C_46
REMARK   11  A    between atoms: N_11  and  C_30
REMARK   12  A    between atoms: C_17  and  C_23
REMARK   13  A    between atoms: C_18  and  C_28
REMARK   14  A    between atoms: C_23  and  C_32
REMARK   15  A    between atoms: C_33  and  C_35
REMARK   16  A    between atoms: C_35  and  C_40
REMARK   17  A    between atoms: C_36  and  C_41
REMARK   18  A    between atoms: C_46  and  C_53
REMARK   19  A    between atoms: C_53  and  C_57
REMARK                            x       y       z     vdW  Elec       q    Type
REMARK                         _______ _______ _______ _____ _____    ______ ____
ROOT
ATOM      1  N   UNL     1      14.058 -23.142 179.351  0.00  0.00    +0.000 NA
ATOM      2  N   UNL     1      12.194 -18.907 178.181  0.00  0.00    +0.000 N 
ATOM      3  C   UNL     1      13.177 -21.055 178.796  0.00  0.00    +0.000 C 
ATOM      4  C   UNL     1      14.502 -21.749 179.159  0.00  0.00    +0.000 C 
ATOM      5  C   UNL     1      13.305 -19.528 178.961  0.00  0.00    +0.000 C 
ATOM      6  C   UNL     1      15.280 -21.055 180.372  0.00  0.00    +0.000 C 
ATOM      7  C   UNL     1      13.569 -19.027 180.391  0.00  0.00    +0.000 C 
ATOM      8  C   UNL     1      12.095 -21.830 179.572  0.00  0.00    +0.000 C 
ATOM      9  C   UNL     1      14.358 -20.083 181.233  0.00  0.00    +0.000 C 
ATOM     10  C   UNL     1      12.740 -21.038 177.344  0.00  0.00    +0.000 A 
ATOM     11  C   UNL     1      12.770 -23.119 180.035  0.00  0.00    +0.000 C 
ATOM     12  C   UNL     1      12.132 -19.805 177.071  0.00  0.00    +0.000 A 
ATOM     13  C   UNL     1      15.875 -22.094 181.325  0.00  0.00    +0.000 C 
ATOM     14  C   UNL     1      15.042 -24.018 179.967  0.00  0.00    +0.000 C 
ATOM     15  C   UNL     1      15.772 -23.415 181.124  0.00  0.00    +0.000 C 
ATOM     16  C   UNL     1      12.826 -22.045 176.389  0.00  0.00    +0.000 A 
ATOM     17  C   UNL     1      12.331 -17.498 177.815  0.00  0.00    +0.000 C 
ATOM     18  C   UNL     1      11.563 -19.585 175.831  0.00  0.00    +0.000 A 
ATOM     19  C   UNL     1      12.261 -21.850 175.113  0.00  0.00    +0.000 A 
ATOM     20  C   UNL     1      11.619 -20.601 174.863  0.00  0.00    +0.000 A 
ENDROOT
BRANCH  19  23
ATOM     21  N   UNL     1      11.861 -25.739 170.722  0.00  0.00    +0.000 NA
ATOM     22  N   UNL     1      14.111 -21.526 172.953  0.00  0.00    +0.000 N 
ATOM     23  C   UNL     1      12.307 -22.970 173.998  0.00  0.00    +0.000 C 
ATOM     24  C   UNL     1      11.024 -22.897 173.049  0.00  0.00    +0.000 C 
ATOM     25  C   UNL     1      13.565 -22.792 173.082  0.00  0.00    +0.000 A 
ATOM     26  C   UNL     1      11.093 -23.678 171.726  0.00  0.00    +0.000 C 
ATOM     27  C   UNL     1       9.911 -23.453 170.784  0.00  0.00    +0.000 C 
ATOM     28  C   UNL     1      11.217 -25.185 171.900  0.00  0.00    +0.000 C 
ATOM     29  C   UNL     1      14.297 -23.622 172.214  0.00  0.00    +0.000 A 
ATOM     30  C   UNL     1      10.076 -24.250 169.455  0.00  0.00    +0.000 C 
ATOM     31  C   UNL     1      11.053 -25.494 169.507  0.00  0.00    +0.000 C 
ATOM     32  C   UNL     1      14.129 -25.088 171.848  0.00  0.00    +0.000 C 
ATOM     33  C   UNL     1      13.281 -25.330 170.563  0.00  0.00    +0.000 C 
ATOM     34  C   UNL     1      15.323 -22.802 171.614  0.00  0.00    +0.000 A 
ATOM     35  C   UNL     1      15.177 -21.510 172.097  0.00  0.00    +0.000 A 
ATOM     36  C   UNL     1      16.358 -23.048 170.683  0.00  0.00    +0.000 A 
ATOM     37  C   UNL     1      16.007 -20.449 171.715  0.00  0.00    +0.000 A 
ATOM     38  C   UNL     1      17.200 -22.003 170.287  0.00  0.00    +0.000 A 
ATOM     39  C   UNL     1      17.025 -20.721 170.798  0.00  0.00    +0.000 A 
ATOM     40  H   UNL     1      13.781 -20.706 173.445  0.00  0.00    +0.000 HD
BRANCH  23  42
ATOM     41  O   UNL     1      13.306 -25.013 175.047  0.00  0.00    +0.000 OA
ATOM     42  C   UNL     1      12.329 -24.324 174.781  0.00  0.00    +0.000 C 
BRANCH  42  43
ATOM     43  O   UNL     1      11.056 -24.653 175.185  0.00  0.00    +0.000 OA
ATOM     44  C   UNL     1      10.907 -26.017 175.576  0.00  0.00    +0.000 C 
ENDBRANCH  42  43
ENDBRANCH  23  42
BRANCH  30  45
ATOM     45  O   UNL     1       8.753 -24.757 169.148  0.00  0.00    +0.000 OA
ATOM     46  H   UNL     1       8.527 -25.412 169.832  0.00  0.00    +0.000 HD
ENDBRANCH  30  45
BRANCH  30  47
ATOM     47  C   UNL     1      10.398 -23.313 168.268  0.00  0.00    +0.000 C 
ATOM     48  C   UNL     1      11.828 -22.812 168.166  0.00  0.00    +0.000 C 
ENDBRANCH  30  47
ENDBRANCH  19  23
BRANCH   7  49
ATOM     49  O   UNL     1      14.466 -17.878 180.242  0.00  0.00    +0.000 OA
ATOM     50  H   UNL     1      14.110 -17.180 180.829  0.00  0.00    +0.000 HD
ENDBRANCH   7  49
BRANCH   7  52
ATOM     51  O   UNL     1      11.152 -19.007 180.957  0.00  0.00    +0.000 OA
ATOM     52  C   UNL     1      12.277 -18.549 181.099  0.00  0.00    +0.000 C 
BRANCH  52  53
ATOM     53  O   UNL     1      12.585 -17.558 182.000  0.00  0.00    +0.000 OA
ATOM     54  C   UNL     1      11.832 -17.623 183.213  0.00  0.00    +0.000 C 
ENDBRANCH  52  53
ENDBRANCH   7  52
BRANCH  20  55
ATOM     55  O   UNL     1      11.105 -20.400 173.607  0.00  0.00    +0.000 OA
ATOM     56  C   UNL     1      11.351 -19.113 173.049  0.00  0.00    +0.000 C 
ENDBRANCH  20  55
BRANCH   6  57
ATOM     57  C   UNL     1      16.496 -20.227 179.816  0.00  0.00    +0.000 C 
ATOM     58  C   UNL     1      16.792 -20.369 178.321  0.00  0.00    +0.000 C 
ENDBRANCH   6  57
BRANCH   9  59
ATOM     59  O   UNL     1      13.480 -20.896 182.047  0.00  0.00    +0.000 OA
BRANCH  59  61
ATOM     60  O   UNL     1      14.309 -20.027 183.998  0.00  0.00    +0.000 OA
ATOM     61  C   UNL     1      13.699 -20.895 183.390  0.00  0.00    +0.000 C 
ATOM     62  C   UNL     1      13.054 -22.091 184.018  0.00  0.00    +0.000 C 
ENDBRANCH  59  61
ENDBRANCH   9  59
TORSDOF 12
ENDMDL
