MODEL 1
REMARK VINA RESULT:      -6.4      0.000      0.000
REMARK  Name = Vorinostat.pdbqt.pdb
REMARK  6 active torsions:
REMARK  status: ('A' for Active; 'I' for Inactive)
REMARK    1  A    between atoms: C_1  and  C_2
REMARK    2  A    between atoms: C_3  and  C_4
REMARK    3  A    between atoms: C_5  and  C_8
REMARK    4  A    between atoms: N_7  and  O_10
REMARK    5  A    between atoms: C_12  and  C_15
REMARK    6  A    between atoms: N_14  and  C_17
REMARK                            x       y       z     vdW  Elec       q    Type
REMARK                         _______ _______ _______ _____ _____    ______ ____
ROOT
ATOM      1  C   UNL     1      20.431   1.343 189.908  0.00  0.00    +0.000 C 
ATOM      2  C   UNL     1      20.183   0.795 191.317  0.00  0.00    +0.000 C 
ENDROOT
BRANCH   2   5
ATOM      3  O   UNL     1      19.734  -0.918 192.773  0.00  0.00    +0.000 OA
ATOM      4  N   UNL     1      20.006   1.231 193.636  0.00  0.00    +0.000 N 
ATOM      5  C   UNL     1      19.951   0.277 192.645  0.00  0.00    +0.000 C 
ATOM      6  H   UNL     1      20.199   2.184 193.353  0.00  0.00    +0.000 HD
BRANCH   4   7
ATOM      7  C   UNL     1      19.818   0.997 195.009  0.00  0.00    +0.000 A 
ATOM      8  C   UNL     1      20.937   1.061 195.840  0.00  0.00    +0.000 A 
ATOM      9  C   UNL     1      18.571   0.707 195.562  0.00  0.00    +0.000 A 
ATOM     10  C   UNL     1      20.812   0.838 197.209  0.00  0.00    +0.000 A 
ATOM     11  C   UNL     1      18.443   0.484 196.932  0.00  0.00    +0.000 A 
ATOM     12  C   UNL     1      19.564   0.550 197.755  0.00  0.00    +0.000 A 
ENDBRANCH   4   7
ENDBRANCH   2   5
BRANCH   1  13
ATOM     13  C   UNL     1      20.680   1.893 188.501  0.00  0.00    +0.000 C 
ATOM     14  C   UNL     1      20.929   2.443 187.093  0.00  0.00    +0.000 C 
BRANCH  14  15
ATOM     15  C   UNL     1      21.179   2.994 185.687  0.00  0.00    +0.000 C 
ATOM     16  C   UNL     1      21.428   3.546 184.279  0.00  0.00    +0.000 C 
BRANCH  16  19
ATOM     17  O   UNL     1      20.903   3.785 182.038  0.00  0.00    +0.000 OA
ATOM     18  N   UNL     1      22.752   4.876 182.819  0.00  0.00    +0.000 N 
ATOM     19  C   UNL     1      21.660   4.066 182.959  0.00  0.00    +0.000 C 
ATOM     20  H   UNL     1      23.365   5.151 183.577  0.00  0.00    +0.000 HD
BRANCH  18  21
ATOM     21  O   UNL     1      22.996   5.433 181.545  0.00  0.00    +0.000 OA
ATOM     22  H   UNL     1      23.971   5.358 181.459  0.00  0.00    +0.000 HD
ENDBRANCH  18  21
ENDBRANCH  16  19
ENDBRANCH  14  15
ENDBRANCH   1  13
TORSDOF 6
ENDMDL
MODEL 2
REMARK VINA RESULT:      -6.4      3.677     11.693
REMARK  Name = Vorinostat.pdbqt.pdb
REMARK  6 active torsions:
REMARK  status: ('A' for Active; 'I' for Inactive)
REMARK    1  A    between atoms: C_1  and  C_2
REMARK    2  A    between atoms: C_3  and  C_4
REMARK    3  A    between atoms: C_5  and  C_8
REMARK    4  A    between atoms: N_7  and  O_10
REMARK    5  A    between atoms: C_12  and  C_15
REMARK    6  A    between atoms: N_14  and  C_17
REMARK                            x       y       z     vdW  Elec       q    Type
REMARK                         _______ _______ _______ _____ _____    ______ ____
ROOT
ATOM      1  C   UNL     1      19.037   1.781 191.137  0.00  0.00    +0.000 C 
ATOM      2  C   UNL     1      19.218   2.412 189.754  0.00  0.00    +0.000 C 
ENDROOT
BRANCH   2   5
ATOM      3  O   UNL     1      18.391   3.337 187.826  0.00  0.00    +0.000 OA
ATOM      4  N   UNL     1      20.701   3.133 188.057  0.00  0.00    +0.000 N 
ATOM      5  C   UNL     1      19.388   3.007 188.449  0.00  0.00    +0.000 C 
ATOM      6  H   UNL     1      21.411   2.805 188.700  0.00  0.00    +0.000 HD
BRANCH   4   7
ATOM      7  C   UNL     1      21.143   3.676 186.838  0.00  0.00    +0.000 A 
ATOM      8  C   UNL     1      21.889   4.855 186.884  0.00  0.00    +0.000 A 
ATOM      9  C   UNL     1      20.869   3.089 185.604  0.00  0.00    +0.000 A 
ATOM     10  C   UNL     1      22.354   5.441 185.709  0.00  0.00    +0.000 A 
ATOM     11  C   UNL     1      21.333   3.672 184.427  0.00  0.00    +0.000 A 
ATOM     12  C   UNL     1      22.076   4.849 184.480  0.00  0.00    +0.000 A 
ENDBRANCH   4   7
ENDBRANCH   2   5
BRANCH   1  13
ATOM     13  C   UNL     1      18.855   1.152 192.522  0.00  0.00    +0.000 C 
ATOM     14  C   UNL     1      18.674   0.524 193.907  0.00  0.00    +0.000 C 
BRANCH  14  15
ATOM     15  C   UNL     1      18.493  -0.105 195.292  0.00  0.00    +0.000 C 
ATOM     16  C   UNL     1      18.314  -0.734 196.677  0.00  0.00    +0.000 C 
BRANCH  16  19
ATOM     17  O   UNL     1      17.785  -0.644 198.929  0.00  0.00    +0.000 OA
ATOM     18  N   UNL     1      18.412  -2.663 198.064  0.00  0.00    +0.000 N 
ATOM     19  C   UNL     1      18.148  -1.325 197.977  0.00  0.00    +0.000 C 
ATOM     20  H   UNL     1      18.674  -3.250 197.281  0.00  0.00    +0.000 HD
BRANCH  18  21
ATOM     21  O   UNL     1      18.228  -3.287 199.317  0.00  0.00    +0.000 OA
ATOM     22  H   UNL     1      17.464  -2.797 199.692  0.00  0.00    +0.000 HD
ENDBRANCH  18  21
ENDBRANCH  16  19
ENDBRANCH  14  15
ENDBRANCH   1  13
TORSDOF 6
ENDMDL
MODEL 3
REMARK VINA RESULT:      -6.2      3.615     11.697
REMARK  Name = Vorinostat.pdbqt.pdb
REMARK  6 active torsions:
REMARK  status: ('A' for Active; 'I' for Inactive)
REMARK    1  A    between atoms: C_1  and  C_2
REMARK    2  A    between atoms: C_3  and  C_4
REMARK    3  A    between atoms: C_5  and  C_8
REMARK    4  A    between atoms: N_7  and  O_10
REMARK    5  A    between atoms: C_12  and  C_15
REMARK    6  A    between atoms: N_14  and  C_17
REMARK                            x       y       z     vdW  Elec       q    Type
REMARK                         _______ _______ _______ _____ _____    ______ ____
ROOT
ATOM      1  C   UNL     1      20.083   1.406 191.719  0.00  0.00    +0.000 C 
ATOM      2  C   UNL     1      20.641   1.665 190.316  0.00  0.00    +0.000 C 
ENDROOT
BRANCH   2   5
ATOM      3  O   UNL     1      21.857   1.045 188.474  0.00  0.00    +0.000 OA
ATOM      4  N   UNL     1      20.818   3.132 188.468  0.00  0.00    +0.000 N 
ATOM      5  C   UNL     1      21.169   1.910 188.994  0.00  0.00    +0.000 C 
ATOM      6  H   UNL     1      20.237   3.734 189.039  0.00  0.00    +0.000 HD
BRANCH   4   7
ATOM      7  C   UNL     1      21.196   3.619 187.205  0.00  0.00    +0.000 A 
ATOM      8  C   UNL     1      22.121   4.663 187.161  0.00  0.00    +0.000 A 
ATOM      9  C   UNL     1      20.689   3.103 186.013  0.00  0.00    +0.000 A 
ATOM     10  C   UNL     1      22.533   5.188 185.938  0.00  0.00    +0.000 A 
ATOM     11  C   UNL     1      21.101   3.626 184.788  0.00  0.00    +0.000 A 
ATOM     12  C   UNL     1      22.023   4.668 184.751  0.00  0.00    +0.000 A 
ENDBRANCH   4   7
ENDBRANCH   2   5
BRANCH   1  13
ATOM     13  C   UNL     1      19.526   1.146 193.121  0.00  0.00    +0.000 C 
ATOM     14  C   UNL     1      18.968   0.886 194.524  0.00  0.00    +0.000 C 
BRANCH  14  15
ATOM     15  C   UNL     1      18.411   0.627 195.926  0.00  0.00    +0.000 C 
ATOM     16  C   UNL     1      17.854   0.368 197.330  0.00  0.00    +0.000 C 
BRANCH  16  19
ATOM     17  O   UNL     1      17.633  -0.897 199.256  0.00  0.00    +0.000 OA
ATOM     18  N   UNL     1      16.512   1.092 199.155  0.00  0.00    +0.000 N 
ATOM     19  C   UNL     1      17.334   0.124 198.649  0.00  0.00    +0.000 C 
ATOM     20  H   UNL     1      16.286   1.959 198.684  0.00  0.00    +0.000 HD
BRANCH  18  21
ATOM     21  O   UNL     1      16.008   0.904 200.460  0.00  0.00    +0.000 OA
ATOM     22  H   UNL     1      16.639   0.258 200.845  0.00  0.00    +0.000 HD
ENDBRANCH  18  21
ENDBRANCH  16  19
ENDBRANCH  14  15
ENDBRANCH   1  13
TORSDOF 6
ENDMDL
MODEL 4
REMARK VINA RESULT:      -6.0      8.674     11.184
REMARK  Name = Vorinostat.pdbqt.pdb
REMARK  6 active torsions:
REMARK  status: ('A' for Active; 'I' for Inactive)
REMARK    1  A    between atoms: C_1  and  C_2
REMARK    2  A    between atoms: C_3  and  C_4
REMARK    3  A    between atoms: C_5  and  C_8
REMARK    4  A    between atoms: N_7  and  O_10
REMARK    5  A    between atoms: C_12  and  C_15
REMARK    6  A    between atoms: N_14  and  C_17
REMARK                            x       y       z     vdW  Elec       q    Type
REMARK                         _______ _______ _______ _____ _____    ______ ____
ROOT
ATOM      1  C   UNL     1      26.869   1.937 189.133  0.00  0.00    +0.000 C 
ATOM      2  C   UNL     1      25.514   2.536 188.746  0.00  0.00    +0.000 C 
ENDROOT
BRANCH   2   5
ATOM      3  O   UNL     1      23.924   4.185 188.850  0.00  0.00    +0.000 OA
ATOM      4  N   UNL     1      23.505   2.321 187.515  0.00  0.00    +0.000 N 
ATOM      5  C   UNL     1      24.236   3.102 188.380  0.00  0.00    +0.000 C 
ATOM      6  H   UNL     1      23.915   1.444 187.221  0.00  0.00    +0.000 HD
BRANCH   4   7
ATOM      7  C   UNL     1      22.234   2.636 187.003  0.00  0.00    +0.000 A 
ATOM      8  C   UNL     1      21.122   2.077 187.634  0.00  0.00    +0.000 A 
ATOM      9  C   UNL     1      22.047   3.474 185.905  0.00  0.00    +0.000 A 
ATOM     10  C   UNL     1      19.837   2.352 187.172  0.00  0.00    +0.000 A 
ATOM     11  C   UNL     1      20.763   3.752 185.441  0.00  0.00    +0.000 A 
ATOM     12  C   UNL     1      19.658   3.191 186.075  0.00  0.00    +0.000 A 
ENDBRANCH   4   7
ENDBRANCH   2   5
BRANCH   1  13
ATOM     13  C   UNL     1      28.224   1.336 189.518  0.00  0.00    +0.000 C 
ATOM     14  C   UNL     1      29.579   0.734 189.903  0.00  0.00    +0.000 C 
BRANCH  14  15
ATOM     15  C   UNL     1      30.933   0.133 190.288  0.00  0.00    +0.000 C 
ATOM     16  C   UNL     1      32.287  -0.470 190.675  0.00  0.00    +0.000 C 
BRANCH  16  19
ATOM     17  O   UNL     1      33.620  -2.151 191.546  0.00  0.00    +0.000 OA
ATOM     18  N   UNL     1      34.654  -0.263 190.780  0.00  0.00    +0.000 N 
ATOM     19  C   UNL     1      33.558  -1.037 191.040  0.00  0.00    +0.000 C 
ATOM     20  H   UNL     1      34.626   0.642 190.326  0.00  0.00    +0.000 HD
BRANCH  18  21
ATOM     21  O   UNL     1      35.923  -0.798 191.093  0.00  0.00    +0.000 OA
ATOM     22  H   UNL     1      35.705  -1.502 191.743  0.00  0.00    +0.000 HD
ENDBRANCH  18  21
ENDBRANCH  16  19
ENDBRANCH  14  15
ENDBRANCH   1  13
TORSDOF 6
ENDMDL
MODEL 5
REMARK VINA RESULT:      -5.9      7.885      9.488
REMARK  Name = Vorinostat.pdbqt.pdb
REMARK  6 active torsions:
REMARK  status: ('A' for Active; 'I' for Inactive)
REMARK    1  A    between atoms: C_1  and  C_2
REMARK    2  A    between atoms: C_3  and  C_4
REMARK    3  A    between atoms: C_5  and  C_8
REMARK    4  A    between atoms: N_7  and  O_10
REMARK    5  A    between atoms: C_12  and  C_15
REMARK    6  A    between atoms: N_14  and  C_17
REMARK                            x       y       z     vdW  Elec       q    Type
REMARK                         _______ _______ _______ _____ _____    ______ ____
ROOT
ATOM      1  C   UNL     1      25.862   2.673 188.896  0.00  0.00    +0.000 C 
ATOM      2  C   UNL     1      24.421   2.198 188.686  0.00  0.00    +0.000 C 
ENDROOT
BRANCH   2   5
ATOM      3  O   UNL     1      22.869   0.568 188.251  0.00  0.00    +0.000 OA
ATOM      4  N   UNL     1      22.121   2.747 188.602  0.00  0.00    +0.000 N 
ATOM      5  C   UNL     1      23.062   1.749 188.490  0.00  0.00    +0.000 C 
ATOM      6  H   UNL     1      22.455   3.681 188.806  0.00  0.00    +0.000 HD
BRANCH   4   7
ATOM      7  C   UNL     1      20.732   2.583 188.457  0.00  0.00    +0.000 A 
ATOM      8  C   UNL     1      20.154   2.969 187.247  0.00  0.00    +0.000 A 
ATOM      9  C   UNL     1      19.924   2.055 189.463  0.00  0.00    +0.000 A 
ATOM     10  C   UNL     1      18.783   2.830 187.045  0.00  0.00    +0.000 A 
ATOM     11  C   UNL     1      18.552   1.914 189.263  0.00  0.00    +0.000 A 
ATOM     12  C   UNL     1      17.982   2.302 188.054  0.00  0.00    +0.000 A 
ENDBRANCH   4   7
ENDBRANCH   2   5
BRANCH   1  13
ATOM     13  C   UNL     1      27.302   3.148 189.108  0.00  0.00    +0.000 C 
ATOM     14  C   UNL     1      28.743   3.622 189.320  0.00  0.00    +0.000 C 
BRANCH  14  15
ATOM     15  C   UNL     1      30.183   4.097 189.533  0.00  0.00    +0.000 C 
ATOM     16  C   UNL     1      31.624   4.572 189.745  0.00  0.00    +0.000 C 
BRANCH  16  19
ATOM     17  O   UNL     1      33.828   4.252 190.375  0.00  0.00    +0.000 OA
ATOM     18  N   UNL     1      33.231   6.320 189.611  0.00  0.00    +0.000 N 
ATOM     19  C   UNL     1      32.977   5.018 189.941  0.00  0.00    +0.000 C 
ATOM     20  H   UNL     1      32.551   6.956 189.213  0.00  0.00    +0.000 HD
BRANCH  18  21
ATOM     21  O   UNL     1      34.555   6.787 189.758  0.00  0.00    +0.000 OA
ATOM     22  H   UNL     1      34.546   7.627 189.250  0.00  0.00    +0.000 HD
ENDBRANCH  18  21
ENDBRANCH  16  19
ENDBRANCH  14  15
ENDBRANCH   1  13
TORSDOF 6
ENDMDL
MODEL 6
REMARK VINA RESULT:      -5.7      8.754     10.629
REMARK  Name = Vorinostat.pdbqt.pdb
REMARK  6 active torsions:
REMARK  status: ('A' for Active; 'I' for Inactive)
REMARK    1  A    between atoms: C_1  and  C_2
REMARK    2  A    between atoms: C_3  and  C_4
REMARK    3  A    between atoms: C_5  and  C_8
REMARK    4  A    between atoms: N_7  and  O_10
REMARK    5  A    between atoms: C_12  and  C_15
REMARK    6  A    between atoms: N_14  and  C_17
REMARK                            x       y       z     vdW  Elec       q    Type
REMARK                         _______ _______ _______ _____ _____    ______ ____
ROOT
ATOM      1  C   UNL     1      26.610   1.183 189.277  0.00  0.00    +0.000 C 
ATOM      2  C   UNL     1      25.201   1.651 188.900  0.00  0.00    +0.000 C 
ENDROOT
BRANCH   2   5
ATOM      3  O   UNL     1      23.233   1.424 187.747  0.00  0.00    +0.000 OA
ATOM      4  N   UNL     1      23.478   3.249 189.176  0.00  0.00    +0.000 N 
ATOM      5  C   UNL     1      23.872   2.091 188.546  0.00  0.00    +0.000 C 
ATOM      6  H   UNL     1      24.137   3.678 189.814  0.00  0.00    +0.000 HD
BRANCH   4   7
ATOM      7  C   UNL     1      22.239   3.890 189.011  0.00  0.00    +0.000 A 
ATOM      8  C   UNL     1      22.211   5.072 188.269  0.00  0.00    +0.000 A 
ATOM      9  C   UNL     1      21.053   3.395 189.552  0.00  0.00    +0.000 A 
ATOM     10  C   UNL     1      21.012   5.753 188.072  0.00  0.00    +0.000 A 
ATOM     11  C   UNL     1      19.851   4.073 189.355  0.00  0.00    +0.000 A 
ATOM     12  C   UNL     1      19.831   5.252 188.615  0.00  0.00    +0.000 A 
ENDBRANCH   4   7
ENDBRANCH   2   5
BRANCH   1  13
ATOM     13  C   UNL     1      28.018   0.714 189.654  0.00  0.00    +0.000 C 
ATOM     14  C   UNL     1      29.427   0.245 190.033  0.00  0.00    +0.000 C 
BRANCH  14  15
ATOM     15  C   UNL     1      30.834  -0.222 190.412  0.00  0.00    +0.000 C 
ATOM     16  C   UNL     1      32.243  -0.690 190.792  0.00  0.00    +0.000 C 
BRANCH  16  19
ATOM     17  O   UNL     1      33.724  -2.167 191.784  0.00  0.00    +0.000 OA
ATOM     18  N   UNL     1      34.593  -0.334 190.733  0.00  0.00    +0.000 N 
ATOM     19  C   UNL     1      33.564  -1.132 191.149  0.00  0.00    +0.000 C 
ATOM     20  H   UNL     1      34.484   0.502 190.173  0.00  0.00    +0.000 HD
BRANCH  18  21
ATOM     21  O   UNL     1      35.908  -0.751 191.036  0.00  0.00    +0.000 OA
ATOM     22  H   UNL     1      36.143  -0.184 191.803  0.00  0.00    +0.000 HD
ENDBRANCH  18  21
ENDBRANCH  16  19
ENDBRANCH  14  15
ENDBRANCH   1  13
TORSDOF 6
ENDMDL
MODEL 7
REMARK VINA RESULT:      -5.5      7.038     12.514
REMARK  Name = Vorinostat.pdbqt.pdb
REMARK  6 active torsions:
REMARK  status: ('A' for Active; 'I' for Inactive)
REMARK    1  A    between atoms: C_1  and  C_2
REMARK    2  A    between atoms: C_3  and  C_4
REMARK    3  A    between atoms: C_5  and  C_8
REMARK    4  A    between atoms: N_7  and  O_10
REMARK    5  A    between atoms: C_12  and  C_15
REMARK    6  A    between atoms: N_14  and  C_17
REMARK                            x       y       z     vdW  Elec       q    Type
REMARK                         _______ _______ _______ _____ _____    ______ ____
ROOT
ATOM      1  C   UNL     1      25.584  -0.613 192.169  0.00  0.00    +0.000 C 
ATOM      2  C   UNL     1      25.208   0.350 191.039  0.00  0.00    +0.000 C 
ENDROOT
BRANCH   2   5
ATOM      3  O   UNL     1      24.532   0.787 188.893  0.00  0.00    +0.000 OA
ATOM      4  N   UNL     1      24.918   2.586 190.324  0.00  0.00    +0.000 N 
ATOM      5  C   UNL     1      24.851   1.257 189.974  0.00  0.00    +0.000 C 
ATOM      6  H   UNL     1      25.204   2.804 191.271  0.00  0.00    +0.000 HD
BRANCH   4   7
ATOM      7  C   UNL     1      24.624   3.671 189.479  0.00  0.00    +0.000 A 
ATOM      8  C   UNL     1      25.593   4.053 188.550  0.00  0.00    +0.000 A 
ATOM      9  C   UNL     1      23.418   4.368 189.536  0.00  0.00    +0.000 A 
ATOM     10  C   UNL     1      25.358   5.121 187.687  0.00  0.00    +0.000 A 
ATOM     11  C   UNL     1      23.180   5.436 188.673  0.00  0.00    +0.000 A 
ATOM     12  C   UNL     1      24.151   5.812 187.748  0.00  0.00    +0.000 A 
ENDBRANCH   4   7
ENDBRANCH   2   5
BRANCH   1  13
ATOM     13  C   UNL     1      25.959  -1.575 193.300  0.00  0.00    +0.000 C 
ATOM     14  C   UNL     1      26.336  -2.537 194.432  0.00  0.00    +0.000 C 
BRANCH  14  15
ATOM     15  C   UNL     1      26.712  -3.498 195.562  0.00  0.00    +0.000 C 
ATOM     16  C   UNL     1      27.087  -4.461 196.694  0.00  0.00    +0.000 C 
BRANCH  16  19
ATOM     17  O   UNL     1      28.522  -5.273 198.319  0.00  0.00    +0.000 OA
ATOM     18  N   UNL     1      26.495  -6.300 198.080  0.00  0.00    +0.000 N 
ATOM     19  C   UNL     1      27.438  -5.365 197.756  0.00  0.00    +0.000 C 
ATOM     20  H   UNL     1      25.579  -6.365 197.653  0.00  0.00    +0.000 HD
BRANCH  18  21
ATOM     21  O   UNL     1      26.788  -7.185 199.140  0.00  0.00    +0.000 OA
ATOM     22  H   UNL     1      26.601  -6.639 199.935  0.00  0.00    +0.000 HD
ENDBRANCH  18  21
ENDBRANCH  16  19
ENDBRANCH  14  15
ENDBRANCH   1  13
TORSDOF 6
ENDMDL
MODEL 8
REMARK VINA RESULT:      -5.5     36.704     39.046
REMARK  Name = Vorinostat.pdbqt.pdb
REMARK  6 active torsions:
REMARK  status: ('A' for Active; 'I' for Inactive)
REMARK    1  A    between atoms: C_1  and  C_2
REMARK    2  A    between atoms: C_3  and  C_4
REMARK    3  A    between atoms: C_5  and  C_8
REMARK    4  A    between atoms: N_7  and  O_10
REMARK    5  A    between atoms: C_12  and  C_15
REMARK    6  A    between atoms: N_14  and  C_17
REMARK                            x       y       z     vdW  Elec       q    Type
REMARK                         _______ _______ _______ _____ _____    ______ ____
ROOT
ATOM      1  C   UNL     1      46.869 -20.216 172.973  0.00  0.00    +0.000 C 
ATOM      2  C   UNL     1      45.360 -20.032 172.791  0.00  0.00    +0.000 C 
ENDROOT
BRANCH   2   5
ATOM      3  O   UNL     1      43.540 -19.217 171.659  0.00  0.00    +0.000 OA
ATOM      4  N   UNL     1      43.177 -20.458 173.598  0.00  0.00    +0.000 N 
ATOM      5  C   UNL     1      43.936 -19.857 172.620  0.00  0.00    +0.000 C 
ATOM      6  H   UNL     1      43.670 -20.954 174.330  0.00  0.00    +0.000 HD
BRANCH   4   7
ATOM      7  C   UNL     1      41.773 -20.442 173.670  0.00  0.00    +0.000 A 
ATOM      8  C   UNL     1      41.184 -19.762 174.737  0.00  0.00    +0.000 A 
ATOM      9  C   UNL     1      40.960 -21.070 172.727  0.00  0.00    +0.000 A 
ATOM     10  C   UNL     1      39.797 -19.712 174.861  0.00  0.00    +0.000 A 
ATOM     11  C   UNL     1      39.573 -21.021 172.849  0.00  0.00    +0.000 A 
ATOM     12  C   UNL     1      38.992 -20.341 173.916  0.00  0.00    +0.000 A 
ENDBRANCH   4   7
ENDBRANCH   2   5
BRANCH   1  13
ATOM     13  C   UNL     1      48.379 -20.398 173.154  0.00  0.00    +0.000 C 
ATOM     14  C   UNL     1      49.889 -20.579 173.333  0.00  0.00    +0.000 C 
BRANCH  14  15
ATOM     15  C   UNL     1      51.399 -20.761 173.513  0.00  0.00    +0.000 C 
ATOM     16  C   UNL     1      52.910 -20.943 173.693  0.00  0.00    +0.000 C 
BRANCH  16  19
ATOM     17  O   UNL     1      54.808 -22.232 173.993  0.00  0.00    +0.000 OA
ATOM     18  N   UNL     1      55.071 -19.966 173.867  0.00  0.00    +0.000 N 
ATOM     19  C   UNL     1      54.327 -21.113 173.865  0.00  0.00    +0.000 C 
ATOM     20  H   UNL     1      54.696 -19.037 173.722  0.00  0.00    +0.000 HD
BRANCH  18  21
ATOM     21  O   UNL     1      56.471 -20.094 174.000  0.00  0.00    +0.000 OA
ATOM     22  H   UNL     1      56.730 -19.232 174.394  0.00  0.00    +0.000 HD
ENDBRANCH  18  21
ENDBRANCH  16  19
ENDBRANCH  14  15
ENDBRANCH   1  13
TORSDOF 6
ENDMDL
MODEL 9
REMARK VINA RESULT:      -5.4      5.666     11.621
REMARK  Name = Vorinostat.pdbqt.pdb
REMARK  6 active torsions:
REMARK  status: ('A' for Active; 'I' for Inactive)
REMARK    1  A    between atoms: C_1  and  C_2
REMARK    2  A    between atoms: C_3  and  C_4
REMARK    3  A    between atoms: C_5  and  C_8
REMARK    4  A    between atoms: N_7  and  O_10
REMARK    5  A    between atoms: C_12  and  C_15
REMARK    6  A    between atoms: N_14  and  C_17
REMARK                            x       y       z     vdW  Elec       q    Type
REMARK                         _______ _______ _______ _____ _____    ______ ____
ROOT
ATOM      1  C   UNL     1      23.552   0.321 192.432  0.00  0.00    +0.000 C 
ATOM      2  C   UNL     1      22.810   1.228 191.445  0.00  0.00    +0.000 C 
ENDROOT
BRANCH   2   5
ATOM      3  O   UNL     1      21.993   3.267 190.788  0.00  0.00    +0.000 OA
ATOM      4  N   UNL     1      21.651   1.431 189.393  0.00  0.00    +0.000 N 
ATOM      5  C   UNL     1      22.111   2.083 190.514  0.00  0.00    +0.000 C 
ATOM      6  H   UNL     1      21.836   0.438 189.323  0.00  0.00    +0.000 HD
BRANCH   4   7
ATOM      7  C   UNL     1      20.942   2.025 188.334  0.00  0.00    +0.000 A 
ATOM      8  C   UNL     1      19.593   2.320 188.538  0.00  0.00    +0.000 A 
ATOM      9  C   UNL     1      21.529   2.326 187.106  0.00  0.00    +0.000 A 
ATOM     10  C   UNL     1      18.839   2.908 187.525  0.00  0.00    +0.000 A 
ATOM     11  C   UNL     1      20.778   2.915 186.091  0.00  0.00    +0.000 A 
ATOM     12  C   UNL     1      19.432   3.206 186.301  0.00  0.00    +0.000 A 
ENDBRANCH   4   7
ENDBRANCH   2   5
BRANCH   1  13
ATOM     13  C   UNL     1      24.293  -0.587 193.417  0.00  0.00    +0.000 C 
ATOM     14  C   UNL     1      25.033  -1.496 194.403  0.00  0.00    +0.000 C 
BRANCH  14  15
ATOM     15  C   UNL     1      25.773  -2.403 195.389  0.00  0.00    +0.000 C 
ATOM     16  C   UNL     1      26.515  -3.312 196.375  0.00  0.00    +0.000 C 
BRANCH  16  19
ATOM     17  O   UNL     1      27.899  -3.685 198.192  0.00  0.00    +0.000 OA
ATOM     18  N   UNL     1      27.047  -5.510 197.112  0.00  0.00    +0.000 N 
ATOM     19  C   UNL     1      27.212  -4.166 197.299  0.00  0.00    +0.000 C 
ATOM     20  H   UNL     1      26.452  -5.924 196.406  0.00  0.00    +0.000 HD
BRANCH  18  21
ATOM     21  O   UNL     1      27.689  -6.380 198.020  0.00  0.00    +0.000 OA
ATOM     22  H   UNL     1      27.208  -7.226 197.884  0.00  0.00    +0.000 HD
ENDBRANCH  18  21
ENDBRANCH  16  19
ENDBRANCH  14  15
ENDBRANCH   1  13
TORSDOF 6
ENDMDL
