MODEL 1
REMARK VINA RESULT:      -7.1      0.000      0.000
REMARK  Name = 10074640_Masitinib.pdbqt.pdb
REMARK  6 active torsions:
REMARK  status: ('A' for Active; 'I' for Inactive)
REMARK    1  A    between atoms: C_1  and  N_22
REMARK    2  A    between atoms: C_2  and  N_9
REMARK    3  A    between atoms: C_12  and  C_16
REMARK    4  A    between atoms: C_23  and  C_30
REMARK    5  A    between atoms: C_25  and  C_31
REMARK    6  A    between atoms: C_31  and  N_32
REMARK                            x       y       z     vdW  Elec       q    Type
REMARK                         _______ _______ _______ _____ _____    ______ ____
ROOT
ATOM      1  C   UNL     1      55.000  39.343  72.225  0.00  0.00    +0.000 A 
ATOM      2  C   UNL     1      57.347  39.096  71.570  0.00  0.00    +0.000 A 
ATOM      3  C   UNL     1      56.095  39.713  71.442  0.00  0.00    +0.000 A 
ATOM      4  C   UNL     1      57.464  38.073  72.531  0.00  0.00    +0.000 A 
ATOM      5  C   UNL     1      55.156  38.344  73.183  0.00  0.00    +0.000 A 
ATOM      6  C   UNL     1      56.383  37.702  73.330  0.00  0.00    +0.000 A 
ATOM      7  C   UNL     1      58.779  37.345  72.726  0.00  0.00    +0.000 C 
ENDROOT
BRANCH   2   9
ATOM      8  S   UNL     1      60.316  39.588  68.880  0.00  0.00    +0.000 S 
ATOM      9  N   UNL     1      58.465  39.503  70.804  0.00  0.00    +0.000 N 
ATOM     10  N   UNL     1      58.139  38.231  68.820  0.00  0.00    +0.000 NA
ATOM     11  C   UNL     1      58.828  39.051  69.583  0.00  0.00    +0.000 A 
ATOM     12  C   UNL     1      58.806  37.968  67.639  0.00  0.00    +0.000 A 
ATOM     13  C   UNL     1      60.005  38.627  67.517  0.00  0.00    +0.000 A 
ATOM     14  H   UNL     1      59.020  40.232  71.247  0.00  0.00    +0.000 HD
BRANCH  12  16
ATOM     15  N   UNL     1      56.492  35.569  65.955  0.00  0.00    +0.000 NA
ATOM     16  C   UNL     1      58.258  37.088  66.632  0.00  0.00    +0.000 A 
ATOM     17  C   UNL     1      58.870  36.915  65.393  0.00  0.00    +0.000 A 
ATOM     18  C   UNL     1      57.081  36.389  66.862  0.00  0.00    +0.000 A 
ATOM     19  C   UNL     1      58.306  36.073  64.441  0.00  0.00    +0.000 A 
ATOM     20  C   UNL     1      57.125  35.430  64.772  0.00  0.00    +0.000 A 
ENDBRANCH  12  16
ENDBRANCH   2   9
BRANCH   1  22
ATOM     21  O   UNL     1      54.214  42.001  73.097  0.00  0.00    +0.000 OA
ATOM     22  N   UNL     1      53.736  39.955  72.109  0.00  0.00    +0.000 N 
ATOM     23  C   UNL     1      53.419  41.216  72.593  0.00  0.00    +0.000 C 
ATOM     24  H   UNL     1      53.030  39.430  71.607  0.00  0.00    +0.000 HD
BRANCH  23  30
ATOM     25  C   UNL     1      49.318  42.350  72.237  0.00  0.00    +0.000 A 
ATOM     26  C   UNL     1      50.270  42.983  71.441  0.00  0.00    +0.000 A 
ATOM     27  C   UNL     1      49.702  41.362  73.140  0.00  0.00    +0.000 A 
ATOM     28  C   UNL     1      51.612  42.626  71.549  0.00  0.00    +0.000 A 
ATOM     29  C   UNL     1      51.044  41.007  73.247  0.00  0.00    +0.000 A 
ATOM     30  C   UNL     1      52.005  41.639  72.453  0.00  0.00    +0.000 A 
BRANCH  25  31
ATOM     31  C   UNL     1      47.944  42.714  72.125  0.00  0.00    +0.000 C 
BRANCH  31  32
ATOM     32  N   UNL     1      46.538  43.084  72.010  0.00  0.00    +0.000 N 
ATOM     33  N   UNL     1      44.909  41.982  69.055  0.00  0.00    +0.000 N 
ATOM     34  C   UNL     1      46.366  43.713  70.671  0.00  0.00    +0.000 C 
ATOM     35  C   UNL     1      45.789  41.837  71.689  0.00  0.00    +0.000 C 
ATOM     36  C   UNL     1      45.645  43.234  69.379  0.00  0.00    +0.000 C 
ATOM     37  C   UNL     1      45.068  41.358  70.397  0.00  0.00    +0.000 C 
ATOM     38  C   UNL     1      43.504  42.337  68.914  0.00  0.00    +0.000 C 
ENDBRANCH  31  32
ENDBRANCH  25  31
ENDBRANCH  23  30
ENDBRANCH   1  22
TORSDOF 6
ENDMDL
MODEL 2
REMARK VINA RESULT:      -6.6     24.370     28.263
REMARK  Name = 10074640_Masitinib.pdbqt.pdb
REMARK  6 active torsions:
REMARK  status: ('A' for Active; 'I' for Inactive)
REMARK    1  A    between atoms: C_1  and  N_22
REMARK    2  A    between atoms: C_2  and  N_9
REMARK    3  A    between atoms: C_12  and  C_16
REMARK    4  A    between atoms: C_23  and  C_30
REMARK    5  A    between atoms: C_25  and  C_31
REMARK    6  A    between atoms: C_31  and  N_32
REMARK                            x       y       z     vdW  Elec       q    Type
REMARK                         _______ _______ _______ _____ _____    ______ ____
ROOT
ATOM      1  C   UNL     1      68.908  61.042  64.799  0.00  0.00    +0.000 A 
ATOM      2  C   UNL     1      69.693  63.362  64.786  0.00  0.00    +0.000 A 
ATOM      3  C   UNL     1      69.930  61.986  64.676  0.00  0.00    +0.000 A 
ATOM      4  C   UNL     1      68.366  63.768  65.031  0.00  0.00    +0.000 A 
ATOM      5  C   UNL     1      67.603  61.478  65.017  0.00  0.00    +0.000 A 
ATOM      6  C   UNL     1      67.333  62.838  65.143  0.00  0.00    +0.000 A 
ATOM      7  C   UNL     1      68.023  65.237  65.176  0.00  0.00    +0.000 C 
ENDROOT
BRANCH   2   9
ATOM      8  S   UNL     1      72.774  65.944  65.151  0.00  0.00    +0.000 S 
ATOM      9  N   UNL     1      70.724  64.316  64.618  0.00  0.00    +0.000 N 
ATOM     10  N   UNL     1      71.920  64.050  66.658  0.00  0.00    +0.000 NA
ATOM     11  C   UNL     1      71.687  64.645  65.509  0.00  0.00    +0.000 A 
ATOM     12  C   UNL     1      72.974  64.646  67.324  0.00  0.00    +0.000 A 
ATOM     13  C   UNL     1      73.546  65.691  66.641  0.00  0.00    +0.000 A 
ATOM     14  H   UNL     1      70.717  64.769  63.707  0.00  0.00    +0.000 HD
BRANCH  12  16
ATOM     15  N   UNL     1      75.189  64.077  70.275  0.00  0.00    +0.000 NA
ATOM     16  C   UNL     1      73.424  64.178  68.616  0.00  0.00    +0.000 A 
ATOM     17  C   UNL     1      72.595  63.449  69.464  0.00  0.00    +0.000 A 
ATOM     18  C   UNL     1      74.707  64.456  69.066  0.00  0.00    +0.000 A 
ATOM     19  C   UNL     1      73.055  63.029  70.707  0.00  0.00    +0.000 A 
ATOM     20  C   UNL     1      74.350  63.369  71.060  0.00  0.00    +0.000 A 
ENDBRANCH  12  16
ENDBRANCH   2   9
BRANCH   1  22
ATOM     21  O   UNL     1      69.736  59.193  66.880  0.00  0.00    +0.000 OA
ATOM     22  N   UNL     1      69.131  59.655  64.688  0.00  0.00    +0.000 N 
ATOM     23  C   UNL     1      69.573  58.839  65.719  0.00  0.00    +0.000 C 
ATOM     24  H   UNL     1      68.919  59.239  63.788  0.00  0.00    +0.000 HD
BRANCH  23  30
ATOM     25  C   UNL     1      70.287  54.773  64.630  0.00  0.00    +0.000 A 
ATOM     26  C   UNL     1      70.431  55.155  65.961  0.00  0.00    +0.000 A 
ATOM     27  C   UNL     1      69.919  55.708  63.666  0.00  0.00    +0.000 A 
ATOM     28  C   UNL     1      70.205  56.479  66.330  0.00  0.00    +0.000 A 
ATOM     29  C   UNL     1      69.694  57.031  64.037  0.00  0.00    +0.000 A 
ATOM     30  C   UNL     1      69.838  57.422  65.370  0.00  0.00    +0.000 A 
BRANCH  25  31
ATOM     31  C   UNL     1      70.516  53.417  64.251  0.00  0.00    +0.000 C 
BRANCH  31  32
ATOM     32  N   UNL     1      70.753  52.032  63.866  0.00  0.00    +0.000 N 
ATOM     33  N   UNL     1      69.699  51.158  60.590  0.00  0.00    +0.000 N 
ATOM     34  C   UNL     1      69.464  51.503  63.340  0.00  0.00    +0.000 C 
ATOM     35  C   UNL     1      71.452  52.063  62.550  0.00  0.00    +0.000 C 
ATOM     36  C   UNL     1      69.005  51.112  61.906  0.00  0.00    +0.000 C 
ATOM     37  C   UNL     1      70.993  51.673  61.116  0.00  0.00    +0.000 C 
ATOM     38  C   UNL     1      69.924  49.780  60.178  0.00  0.00    +0.000 C 
ENDBRANCH  31  32
ENDBRANCH  25  31
ENDBRANCH  23  30
ENDBRANCH   1  22
TORSDOF 6
ENDMDL
MODEL 3
REMARK VINA RESULT:      -6.5     20.174     24.582
REMARK  Name = 10074640_Masitinib.pdbqt.pdb
REMARK  6 active torsions:
REMARK  status: ('A' for Active; 'I' for Inactive)
REMARK    1  A    between atoms: C_1  and  N_22
REMARK    2  A    between atoms: C_2  and  N_9
REMARK    3  A    between atoms: C_12  and  C_16
REMARK    4  A    between atoms: C_23  and  C_30
REMARK    5  A    between atoms: C_25  and  C_31
REMARK    6  A    between atoms: C_31  and  N_32
REMARK                            x       y       z     vdW  Elec       q    Type
REMARK                         _______ _______ _______ _____ _____    ______ ____
ROOT
ATOM      1  C   UNL     1      66.786  54.119  60.444  0.00  0.00    +0.000 A 
ATOM      2  C   UNL     1      66.703  56.558  60.236  0.00  0.00    +0.000 A 
ATOM      3  C   UNL     1      67.417  55.353  60.279  0.00  0.00    +0.000 A 
ATOM      4  C   UNL     1      65.303  56.480  60.367  0.00  0.00    +0.000 A 
ATOM      5  C   UNL     1      65.397  54.075  60.547  0.00  0.00    +0.000 A 
ATOM      6  C   UNL     1      64.656  55.253  60.518  0.00  0.00    +0.000 A 
ATOM      7  C   UNL     1      64.455  57.735  60.343  0.00  0.00    +0.000 C 
ENDROOT
BRANCH   2   9
ATOM      8  S   UNL     1      68.557  60.133  60.503  0.00  0.00    +0.000 S 
ATOM      9  N   UNL     1      67.345  57.802  60.026  0.00  0.00    +0.000 N 
ATOM     10  N   UNL     1      68.171  58.256  62.210  0.00  0.00    +0.000 NA
ATOM     11  C   UNL     1      67.953  58.575  60.953  0.00  0.00    +0.000 A 
ATOM     12  C   UNL     1      68.810  59.281  62.881  0.00  0.00    +0.000 A 
ATOM     13  C   UNL     1      69.089  60.373  62.096  0.00  0.00    +0.000 A 
ATOM     14  H   UNL     1      67.342  58.104  59.054  0.00  0.00    +0.000 HD
BRANCH  12  16
ATOM     15  N   UNL     1      69.327  60.249  66.450  0.00  0.00    +0.000 NA
ATOM     16  C   UNL     1      69.157  59.178  64.281  0.00  0.00    +0.000 A 
ATOM     17  C   UNL     1      69.595  57.983  64.845  0.00  0.00    +0.000 A 
ATOM     18  C   UNL     1      69.048  60.276  65.123  0.00  0.00    +0.000 A 
ATOM     19  C   UNL     1      69.904  57.916  66.199  0.00  0.00    +0.000 A 
ATOM     20  C   UNL     1      69.752  59.069  66.950  0.00  0.00    +0.000 A 
ENDBRANCH  12  16
ENDBRANCH   2   9
BRANCH   1  22
ATOM     21  O   UNL     1      68.627  53.191  62.490  0.00  0.00    +0.000 OA
ATOM     22  N   UNL     1      67.491  52.899  60.488  0.00  0.00    +0.000 N 
ATOM     23  C   UNL     1      68.394  52.542  61.478  0.00  0.00    +0.000 C 
ATOM     24  H   UNL     1      67.286  52.238  59.747  0.00  0.00    +0.000 HD
BRANCH  23  30
ATOM     25  C   UNL     1      70.478  48.843  61.021  0.00  0.00    +0.000 A 
ATOM     26  C   UNL     1      69.904  49.442  59.903  0.00  0.00    +0.000 A 
ATOM     27  C   UNL     1      70.370  49.442  62.273  0.00  0.00    +0.000 A 
ATOM     28  C   UNL     1      69.218  50.647  60.037  0.00  0.00    +0.000 A 
ATOM     29  C   UNL     1      69.682  50.646  62.406  0.00  0.00    +0.000 A 
ATOM     30  C   UNL     1      69.103  51.253  61.289  0.00  0.00    +0.000 A 
BRANCH  25  31
ATOM     31  C   UNL     1      71.182  47.610  60.884  0.00  0.00    +0.000 C 
BRANCH  31  32
ATOM     32  N   UNL     1      71.903  46.351  60.745  0.00  0.00    +0.000 N 
ATOM     33  N   UNL     1      70.403  43.552  62.331  0.00  0.00    +0.000 N 
ATOM     34  C   UNL     1      72.048  45.784  62.114  0.00  0.00    +0.000 C 
ATOM     35  C   UNL     1      70.919  45.341  60.265  0.00  0.00    +0.000 C 
ATOM     36  C   UNL     1      71.397  44.552  62.806  0.00  0.00    +0.000 C 
ATOM     37  C   UNL     1      70.268  44.110  60.958  0.00  0.00    +0.000 C 
ATOM     38  C   UNL     1      71.102  42.280  62.208  0.00  0.00    +0.000 C 
ENDBRANCH  31  32
ENDBRANCH  25  31
ENDBRANCH  23  30
ENDBRANCH   1  22
TORSDOF 6
ENDMDL
MODEL 4
REMARK VINA RESULT:      -6.4      2.334      3.100
REMARK  Name = 10074640_Masitinib.pdbqt.pdb
REMARK  6 active torsions:
REMARK  status: ('A' for Active; 'I' for Inactive)
REMARK    1  A    between atoms: C_1  and  N_22
REMARK    2  A    between atoms: C_2  and  N_9
REMARK    3  A    between atoms: C_12  and  C_16
REMARK    4  A    between atoms: C_23  and  C_30
REMARK    5  A    between atoms: C_25  and  C_31
REMARK    6  A    between atoms: C_31  and  N_32
REMARK                            x       y       z     vdW  Elec       q    Type
REMARK                         _______ _______ _______ _____ _____    ______ ____
ROOT
ATOM      1  C   UNL     1      54.634  38.472  73.353  0.00  0.00    +0.000 A 
ATOM      2  C   UNL     1      56.344  36.814  72.778  0.00  0.00    +0.000 A 
ATOM      3  C   UNL     1      55.194  37.552  72.464  0.00  0.00    +0.000 A 
ATOM      4  C   UNL     1      56.924  37.036  74.043  0.00  0.00    +0.000 A 
ATOM      5  C   UNL     1      55.246  38.684  74.586  0.00  0.00    +0.000 A 
ATOM      6  C   UNL     1      56.384  37.961  74.936  0.00  0.00    +0.000 A 
ATOM      7  C   UNL     1      58.162  36.272  74.468  0.00  0.00    +0.000 C 
ENDROOT
BRANCH   2   9
ATOM      8  S   UNL     1      58.393  34.966  69.833  0.00  0.00    +0.000 S 
ATOM      9  N   UNL     1      56.932  35.916  71.857  0.00  0.00    +0.000 N 
ATOM     10  N   UNL     1      58.594  37.304  70.872  0.00  0.00    +0.000 NA
ATOM     11  C   UNL     1      57.913  36.183  70.966  0.00  0.00    +0.000 A 
ATOM     12  C   UNL     1      59.518  37.242  69.847  0.00  0.00    +0.000 A 
ATOM     13  C   UNL     1      59.534  36.040  69.182  0.00  0.00    +0.000 A 
ATOM     14  H   UNL     1      56.561  34.970  71.916  0.00  0.00    +0.000 HD
BRANCH  12  16
ATOM     15  N   UNL     1      61.296  40.509  70.176  0.00  0.00    +0.000 NA
ATOM     16  C   UNL     1      60.388  38.353  69.535  0.00  0.00    +0.000 A 
ATOM     17  C   UNL     1      61.176  38.371  68.387  0.00  0.00    +0.000 A 
ATOM     18  C   UNL     1      60.482  39.445  70.387  0.00  0.00    +0.000 A 
ATOM     19  C   UNL     1      62.015  39.449  68.126  0.00  0.00    +0.000 A 
ATOM     20  C   UNL     1      62.037  40.483  69.048  0.00  0.00    +0.000 A 
ENDBRANCH  12  16
ENDBRANCH   2   9
BRANCH   1  22
ATOM     21  O   UNL     1      54.482  41.191  72.344  0.00  0.00    +0.000 OA
ATOM     22  N   UNL     1      53.480  39.221  73.051  0.00  0.00    +0.000 N 
ATOM     23  C   UNL     1      53.482  40.538  72.615  0.00  0.00    +0.000 C 
ATOM     24  H   UNL     1      52.595  38.734  73.138  0.00  0.00    +0.000 HD
BRANCH  23  30
ATOM     25  C   UNL     1      49.619  42.300  72.165  0.00  0.00    +0.000 A 
ATOM     26  C   UNL     1      50.685  42.802  71.422  0.00  0.00    +0.000 A 
ATOM     27  C   UNL     1      49.813  41.241  73.046  0.00  0.00    +0.000 A 
ATOM     28  C   UNL     1      51.952  42.239  71.561  0.00  0.00    +0.000 A 
ATOM     29  C   UNL     1      51.080  40.680  73.185  0.00  0.00    +0.000 A 
ATOM     30  C   UNL     1      52.155  41.178  72.444  0.00  0.00    +0.000 A 
BRANCH  25  31
ATOM     31  C   UNL     1      48.322  42.875  72.021  0.00  0.00    +0.000 C 
BRANCH  31  32
ATOM     32  N   UNL     1      46.996  43.461  71.873  0.00  0.00    +0.000 N 
ATOM     33  N   UNL     1      44.891  41.887  69.485  0.00  0.00    +0.000 N 
ATOM     34  C   UNL     1      46.788  43.696  70.417  0.00  0.00    +0.000 C 
ATOM     35  C   UNL     1      46.015  42.345  71.988  0.00  0.00    +0.000 C 
ATOM     36  C   UNL     1      45.860  43.012  69.373  0.00  0.00    +0.000 C 
ATOM     37  C   UNL     1      45.087  41.661  70.944  0.00  0.00    +0.000 C 
ATOM     38  C   UNL     1      43.560  42.452  69.317  0.00  0.00    +0.000 C 
ENDBRANCH  31  32
ENDBRANCH  25  31
ENDBRANCH  23  30
ENDBRANCH   1  22
TORSDOF 6
ENDMDL
MODEL 5
REMARK VINA RESULT:      -6.2     21.498     25.011
REMARK  Name = 10074640_Masitinib.pdbqt.pdb
REMARK  6 active torsions:
REMARK  status: ('A' for Active; 'I' for Inactive)
REMARK    1  A    between atoms: C_1  and  N_22
REMARK    2  A    between atoms: C_2  and  N_9
REMARK    3  A    between atoms: C_12  and  C_16
REMARK    4  A    between atoms: C_23  and  C_30
REMARK    5  A    between atoms: C_25  and  C_31
REMARK    6  A    between atoms: C_31  and  N_32
REMARK                            x       y       z     vdW  Elec       q    Type
REMARK                         _______ _______ _______ _____ _____    ______ ____
ROOT
ATOM      1  C   UNL     1      64.633  58.443  59.709  0.00  0.00    +0.000 A 
ATOM      2  C   UNL     1      62.874  56.956  58.878  0.00  0.00    +0.000 A 
ATOM      3  C   UNL     1      63.680  57.444  59.915  0.00  0.00    +0.000 A 
ATOM      4  C   UNL     1      63.062  57.517  57.599  0.00  0.00    +0.000 A 
ATOM      5  C   UNL     1      64.777  58.993  58.438  0.00  0.00    +0.000 A 
ATOM      6  C   UNL     1      64.001  58.525  57.381  0.00  0.00    +0.000 A 
ATOM      7  C   UNL     1      62.240  57.039  56.419  0.00  0.00    +0.000 C 
ENDROOT
BRANCH   2   9
ATOM      8  S   UNL     1      60.670  53.601  59.301  0.00  0.00    +0.000 S 
ATOM      9  N   UNL     1      61.880  55.974  59.100  0.00  0.00    +0.000 N 
ATOM     10  N   UNL     1      63.200  53.995  59.129  0.00  0.00    +0.000 NA
ATOM     11  C   UNL     1      62.051  54.634  59.153  0.00  0.00    +0.000 A 
ATOM     12  C   UNL     1      63.013  52.628  59.192  0.00  0.00    +0.000 A 
ATOM     13  C   UNL     1      61.696  52.249  59.287  0.00  0.00    +0.000 A 
ATOM     14  H   UNL     1      60.950  56.360  59.251  0.00  0.00    +0.000 HD
BRANCH  12  16
ATOM     15  N   UNL     1      66.524  51.358  59.189  0.00  0.00    +0.000 NA
ATOM     16  C   UNL     1      64.124  51.703  59.176  0.00  0.00    +0.000 A 
ATOM     17  C   UNL     1      63.933  50.324  59.177  0.00  0.00    +0.000 A 
ATOM     18  C   UNL     1      65.433  52.163  59.174  0.00  0.00    +0.000 A 
ATOM     19  C   UNL     1      65.025  49.463  59.178  0.00  0.00    +0.000 A 
ATOM     20  C   UNL     1      66.289  50.028  59.184  0.00  0.00    +0.000 A 
ENDBRANCH  12  16
ENDBRANCH   2   9
BRANCH   1  22
ATOM     21  O   UNL     1      67.147  57.362  60.686  0.00  0.00    +0.000 OA
ATOM     22  N   UNL     1      65.450  58.945  60.742  0.00  0.00    +0.000 N 
ATOM     23  C   UNL     1      66.619  58.346  61.189  0.00  0.00    +0.000 C 
ATOM     24  H   UNL     1      65.158  59.823  61.156  0.00  0.00    +0.000 HD
BRANCH  23  30
ATOM     25  C   UNL     1      68.467  60.258  64.530  0.00  0.00    +0.000 A 
ATOM     26  C   UNL     1      69.108  59.180  63.924  0.00  0.00    +0.000 A 
ATOM     27  C   UNL     1      67.238  60.704  64.053  0.00  0.00    +0.000 A 
ATOM     28  C   UNL     1      68.514  58.544  62.835  0.00  0.00    +0.000 A 
ATOM     29  C   UNL     1      66.646  60.066  62.965  0.00  0.00    +0.000 A 
ATOM     30  C   UNL     1      67.281  58.983  62.353  0.00  0.00    +0.000 A 
BRANCH  25  31
ATOM     31  C   UNL     1      69.075  60.910  65.643  0.00  0.00    +0.000 C 
BRANCH  31  32
ATOM     32  N   UNL     1      69.693  61.578  66.782  0.00  0.00    +0.000 N 
ATOM     33  N   UNL     1      73.134  60.862  67.286  0.00  0.00    +0.000 N 
ATOM     34  C   UNL     1      70.388  60.526  67.574  0.00  0.00    +0.000 C 
ATOM     35  C   UNL     1      70.933  62.232  66.277  0.00  0.00    +0.000 C 
ATOM     36  C   UNL     1      71.895  60.218  67.802  0.00  0.00    +0.000 C 
ATOM     37  C   UNL     1      72.441  61.923  66.504  0.00  0.00    +0.000 C 
ATOM     38  C   UNL     1      73.777  61.516  68.416  0.00  0.00    +0.000 C 
ENDBRANCH  31  32
ENDBRANCH  25  31
ENDBRANCH  23  30
ENDBRANCH   1  22
TORSDOF 6
ENDMDL
MODEL 6
REMARK VINA RESULT:      -6.2     35.783     38.766
REMARK  Name = 10074640_Masitinib.pdbqt.pdb
REMARK  6 active torsions:
REMARK  status: ('A' for Active; 'I' for Inactive)
REMARK    1  A    between atoms: C_1  and  N_22
REMARK    2  A    between atoms: C_2  and  N_9
REMARK    3  A    between atoms: C_12  and  C_16
REMARK    4  A    between atoms: C_23  and  C_30
REMARK    5  A    between atoms: C_25  and  C_31
REMARK    6  A    between atoms: C_31  and  N_32
REMARK                            x       y       z     vdW  Elec       q    Type
REMARK                         _______ _______ _______ _____ _____    ______ ____
ROOT
ATOM      1  C   UNL     1      59.235  75.466  78.213  0.00  0.00    +0.000 A 
ATOM      2  C   UNL     1      60.337  77.511  77.434  0.00  0.00    +0.000 A 
ATOM      3  C   UNL     1      60.092  76.548  78.423  0.00  0.00    +0.000 A 
ATOM      4  C   UNL     1      59.676  77.347  76.201  0.00  0.00    +0.000 A 
ATOM      5  C   UNL     1      58.616  75.320  76.974  0.00  0.00    +0.000 A 
ATOM      6  C   UNL     1      58.827  76.263  75.971  0.00  0.00    +0.000 A 
ATOM      7  C   UNL     1      59.874  78.348  75.080  0.00  0.00    +0.000 C 
ENDROOT
BRANCH   2   9
ATOM      8  S   UNL     1      62.547  80.599  78.799  0.00  0.00    +0.000 S 
ATOM      9  N   UNL     1      61.239  78.581  77.637  0.00  0.00    +0.000 N 
ATOM     10  N   UNL     1      61.062  78.879  79.990  0.00  0.00    +0.000 NA
ATOM     11  C   UNL     1      61.505  79.218  78.800  0.00  0.00    +0.000 A 
ATOM     12  C   UNL     1      61.520  79.750  80.960  0.00  0.00    +0.000 A 
ATOM     13  C   UNL     1      62.337  80.743  80.477  0.00  0.00    +0.000 A 
ATOM     14  H   UNL     1      61.737  78.862  76.794  0.00  0.00    +0.000 HD
BRANCH  12  16
ATOM     15  N   UNL     1      60.643  80.641  84.478  0.00  0.00    +0.000 NA
ATOM     16  C   UNL     1      61.169  79.596  82.354  0.00  0.00    +0.000 A 
ATOM     17  C   UNL     1      60.969  78.344  82.928  0.00  0.00    +0.000 A 
ATOM     18  C   UNL     1      61.000  80.705  83.171  0.00  0.00    +0.000 A 
ATOM     19  C   UNL     1      60.615  78.234  84.268  0.00  0.00    +0.000 A 
ATOM     20  C   UNL     1      60.465  79.405  84.991  0.00  0.00    +0.000 A 
ENDBRANCH  12  16
ENDBRANCH   2   9
BRANCH   1  22
ATOM     21  O   UNL     1      57.826  75.792  80.732  0.00  0.00    +0.000 OA
ATOM     22  N   UNL     1      58.982  74.490  79.197  0.00  0.00    +0.000 N 
ATOM     23  C   UNL     1      58.340  74.730  80.404  0.00  0.00    +0.000 C 
ATOM     24  H   UNL     1      59.272  73.545  78.974  0.00  0.00    +0.000 HD
BRANCH  23  30
ATOM     25  C   UNL     1      58.119  71.499  83.187  0.00  0.00    +0.000 A 
ATOM     26  C   UNL     1      58.311  71.220  81.836  0.00  0.00    +0.000 A 
ATOM     27  C   UNL     1      57.996  72.816  83.622  0.00  0.00    +0.000 A 
ATOM     28  C   UNL     1      58.381  72.264  80.916  0.00  0.00    +0.000 A 
ATOM     29  C   UNL     1      58.066  73.858  82.701  0.00  0.00    +0.000 A 
ATOM     30  C   UNL     1      58.258  73.586  81.344  0.00  0.00    +0.000 A 
BRANCH  25  31
ATOM     31  C   UNL     1      58.048  70.431  84.129  0.00  0.00    +0.000 C 
BRANCH  31  32
ATOM     32  N   UNL     1      57.976  69.338  85.090  0.00  0.00    +0.000 N 
ATOM     33  N   UNL     1      58.860  70.178  88.425  0.00  0.00    +0.000 N 
ATOM     34  C   UNL     1      59.278  69.314  85.814  0.00  0.00    +0.000 C 
ATOM     35  C   UNL     1      57.170  69.829  86.244  0.00  0.00    +0.000 C 
ATOM     36  C   UNL     1      59.663  69.673  87.278  0.00  0.00    +0.000 C 
ATOM     37  C   UNL     1      57.556  70.189  87.706  0.00  0.00    +0.000 C 
ATOM     38  C   UNL     1      58.797  69.104  89.406  0.00  0.00    +0.000 C 
ENDBRANCH  31  32
ENDBRANCH  25  31
ENDBRANCH  23  30
ENDBRANCH   1  22
TORSDOF 6
ENDMDL
MODEL 7
REMARK VINA RESULT:      -6.2     30.138     33.304
REMARK  Name = 10074640_Masitinib.pdbqt.pdb
REMARK  6 active torsions:
REMARK  status: ('A' for Active; 'I' for Inactive)
REMARK    1  A    between atoms: C_1  and  N_22
REMARK    2  A    between atoms: C_2  and  N_9
REMARK    3  A    between atoms: C_12  and  C_16
REMARK    4  A    between atoms: C_23  and  C_30
REMARK    5  A    between atoms: C_25  and  C_31
REMARK    6  A    between atoms: C_31  and  N_32
REMARK                            x       y       z     vdW  Elec       q    Type
REMARK                         _______ _______ _______ _____ _____    ______ ____
ROOT
ATOM      1  C   UNL     1      76.757  61.985  83.282  0.00  0.00    +0.000 A 
ATOM      2  C   UNL     1      76.768  60.173  84.930  0.00  0.00    +0.000 A 
ATOM      3  C   UNL     1      76.891  60.635  83.613  0.00  0.00    +0.000 A 
ATOM      4  C   UNL     1      76.498  61.133  85.925  0.00  0.00    +0.000 A 
ATOM      5  C   UNL     1      76.514  62.911  84.293  0.00  0.00    +0.000 A 
ATOM      6  C   UNL     1      76.375  62.487  85.612  0.00  0.00    +0.000 A 
ATOM      7  C   UNL     1      76.337  60.719  87.374  0.00  0.00    +0.000 C 
ENDROOT
BRANCH   2   9
ATOM      8  S   UNL     1      76.494  56.192  85.535  0.00  0.00    +0.000 S 
ATOM      9  N   UNL     1      76.947  58.810  85.267  0.00  0.00    +0.000 N 
ATOM     10  N   UNL     1      75.167  57.808  84.049  0.00  0.00    +0.000 NA
ATOM     11  C   UNL     1      76.170  57.768  84.896  0.00  0.00    +0.000 A 
ATOM     12  C   UNL     1      74.585  56.563  83.904  0.00  0.00    +0.000 A 
ATOM     13  C   UNL     1      75.187  55.576  84.646  0.00  0.00    +0.000 A 
ATOM     14  H   UNL     1      77.773  58.635  85.835  0.00  0.00    +0.000 HD
BRANCH  12  16
ATOM     15  N   UNL     1      71.496  55.026  82.476  0.00  0.00    +0.000 NA
ATOM     16  C   UNL     1      73.454  56.345  83.029  0.00  0.00    +0.000 A 
ATOM     17  C   UNL     1      73.174  57.195  81.963  0.00  0.00    +0.000 A 
ATOM     18  C   UNL     1      72.591  55.278  83.235  0.00  0.00    +0.000 A 
ATOM     19  C   UNL     1      72.068  56.965  81.152  0.00  0.00    +0.000 A 
ATOM     20  C   UNL     1      71.268  55.875  81.451  0.00  0.00    +0.000 A 
ENDBRANCH  12  16
ENDBRANCH   2   9
BRANCH   1  22
ATOM     21  O   UNL     1      75.110  61.328  80.981  0.00  0.00    +0.000 OA
ATOM     22  N   UNL     1      76.881  62.464  81.962  0.00  0.00    +0.000 N 
ATOM     23  C   UNL     1      76.083  62.068  80.898  0.00  0.00    +0.000 C 
ATOM     24  H   UNL     1      77.592  63.169  81.808  0.00  0.00    +0.000 HD
BRANCH  23  30
ATOM     25  C   UNL     1      77.149  63.734  77.114  0.00  0.00    +0.000 A 
ATOM     26  C   UNL     1      76.175  62.740  77.169  0.00  0.00    +0.000 A 
ATOM     27  C   UNL     1      77.770  64.175  78.279  0.00  0.00    +0.000 A 
ATOM     28  C   UNL     1      75.820  62.185  78.396  0.00  0.00    +0.000 A 
ATOM     29  C   UNL     1      77.414  63.618  79.505  0.00  0.00    +0.000 A 
ATOM     30  C   UNL     1      76.439  62.620  79.568  0.00  0.00    +0.000 A 
BRANCH  25  31
ATOM     31  C   UNL     1      77.512  64.304  75.858  0.00  0.00    +0.000 C 
BRANCH  31  32
ATOM     32  N   UNL     1      77.883  64.888  74.575  0.00  0.00    +0.000 N 
ATOM     33  N   UNL     1      75.257  65.142  72.199  0.00  0.00    +0.000 N 
ATOM     34  C   UNL     1      77.398  63.956  73.520  0.00  0.00    +0.000 C 
ATOM     35  C   UNL     1      76.895  65.966  74.290  0.00  0.00    +0.000 C 
ATOM     36  C   UNL     1      76.254  64.071  72.473  0.00  0.00    +0.000 C 
ATOM     37  C   UNL     1      75.750  66.081  73.244  0.00  0.00    +0.000 C 
ATOM     38  C   UNL     1      75.600  65.723  70.909  0.00  0.00    +0.000 C 
ENDBRANCH  31  32
ENDBRANCH  25  31
ENDBRANCH  23  30
ENDBRANCH   1  22
TORSDOF 6
ENDMDL
MODEL 8
REMARK VINA RESULT:      -6.2     17.706     19.735
REMARK  Name = 10074640_Masitinib.pdbqt.pdb
REMARK  6 active torsions:
REMARK  status: ('A' for Active; 'I' for Inactive)
REMARK    1  A    between atoms: C_1  and  N_22
REMARK    2  A    between atoms: C_2  and  N_9
REMARK    3  A    between atoms: C_12  and  C_16
REMARK    4  A    between atoms: C_23  and  C_30
REMARK    5  A    between atoms: C_25  and  C_31
REMARK    6  A    between atoms: C_31  and  N_32
REMARK                            x       y       z     vdW  Elec       q    Type
REMARK                         _______ _______ _______ _____ _____    ______ ____
ROOT
ATOM      1  C   UNL     1      68.164  49.528  58.173  0.00  0.00    +0.000 A 
ATOM      2  C   UNL     1      70.402  49.278  59.136  0.00  0.00    +0.000 A 
ATOM      3  C   UNL     1      69.048  49.617  59.251  0.00  0.00    +0.000 A 
ATOM      4  C   UNL     1      70.850  48.838  57.874  0.00  0.00    +0.000 A 
ATOM      5  C   UNL     1      68.633  49.066  56.946  0.00  0.00    +0.000 A 
ATOM      6  C   UNL     1      69.976  48.731  56.792  0.00  0.00    +0.000 A 
ATOM      7  C   UNL     1      72.302  48.463  57.659  0.00  0.00    +0.000 C 
ENDROOT
BRANCH   2   9
ATOM      8  S   UNL     1      72.584  48.646  62.472  0.00  0.00    +0.000 S 
ATOM      9  N   UNL     1      71.284  49.330  60.241  0.00  0.00    +0.000 N 
ATOM     10  N   UNL     1      71.193  47.075  60.995  0.00  0.00    +0.000 NA
ATOM     11  C   UNL     1      71.579  48.327  61.099  0.00  0.00    +0.000 A 
ATOM     12  C   UNL     1      71.666  46.317  62.048  0.00  0.00    +0.000 A 
ATOM     13  C   UNL     1      72.437  47.021  62.940  0.00  0.00    +0.000 A 
ATOM     14  H   UNL     1      71.741  50.232  60.358  0.00  0.00    +0.000 HD
BRANCH  12  16
ATOM     15  N   UNL     1      71.642  42.838  63.405  0.00  0.00    +0.000 NA
ATOM     16  C   UNL     1      71.374  44.906  62.167  0.00  0.00    +0.000 A 
ATOM     17  C   UNL     1      70.552  44.246  61.257  0.00  0.00    +0.000 A 
ATOM     18  C   UNL     1      71.895  44.157  63.212  0.00  0.00    +0.000 A 
ATOM     19  C   UNL     1      70.278  42.891  61.411  0.00  0.00    +0.000 A 
ATOM     20  C   UNL     1      70.844  42.241  62.494  0.00  0.00    +0.000 A 
ENDBRANCH  12  16
ENDBRANCH   2   9
BRANCH   1  22
ATOM     21  O   UNL     1      66.939  51.540  59.873  0.00  0.00    +0.000 OA
ATOM     22  N   UNL     1      66.799  49.864  58.275  0.00  0.00    +0.000 N 
ATOM     23  C   UNL     1      66.278  50.808  59.147  0.00  0.00    +0.000 C 
ATOM     24  H   UNL     1      66.174  49.389  57.634  0.00  0.00    +0.000 HD
BRANCH  23  30
ATOM     25  C   UNL     1      62.037  51.295  59.227  0.00  0.00    +0.000 A 
ATOM     26  C   UNL     1      62.574  50.010  59.247  0.00  0.00    +0.000 A 
ATOM     27  C   UNL     1      62.874  52.406  59.178  0.00  0.00    +0.000 A 
ATOM     28  C   UNL     1      63.956  49.836  59.217  0.00  0.00    +0.000 A 
ATOM     29  C   UNL     1      64.256  52.230  59.147  0.00  0.00    +0.000 A 
ATOM     30  C   UNL     1      64.802  50.944  59.166  0.00  0.00    +0.000 A 
BRANCH  25  31
ATOM     31  C   UNL     1      60.623  51.474  59.258  0.00  0.00    +0.000 C 
BRANCH  31  32
ATOM     32  N   UNL     1      59.177  51.660  59.291  0.00  0.00    +0.000 N 
ATOM     33  N   UNL     1      57.791  53.341  56.488  0.00  0.00    +0.000 N 
ATOM     34  C   UNL     1      58.921  53.101  59.019  0.00  0.00    +0.000 C 
ATOM     35  C   UNL     1      58.648  51.163  57.990  0.00  0.00    +0.000 C 
ATOM     36  C   UNL     1      58.305  53.837  57.794  0.00  0.00    +0.000 C 
ATOM     37  C   UNL     1      58.034  51.899  56.765  0.00  0.00    +0.000 C 
ATOM     38  C   UNL     1      56.348  53.539  56.495  0.00  0.00    +0.000 C 
ENDBRANCH  31  32
ENDBRANCH  25  31
ENDBRANCH  23  30
ENDBRANCH   1  22
TORSDOF 6
ENDMDL
MODEL 9
REMARK VINA RESULT:      -6.2     30.666     33.888
REMARK  Name = 10074640_Masitinib.pdbqt.pdb
REMARK  6 active torsions:
REMARK  status: ('A' for Active; 'I' for Inactive)
REMARK    1  A    between atoms: C_1  and  N_22
REMARK    2  A    between atoms: C_2  and  N_9
REMARK    3  A    between atoms: C_12  and  C_16
REMARK    4  A    between atoms: C_23  and  C_30
REMARK    5  A    between atoms: C_25  and  C_31
REMARK    6  A    between atoms: C_31  and  N_32
REMARK                            x       y       z     vdW  Elec       q    Type
REMARK                         _______ _______ _______ _____ _____    ______ ____
ROOT
ATOM      1  C   UNL     1      55.080  68.173  80.200  0.00  0.00    +0.000 A 
ATOM      2  C   UNL     1      54.157  66.435  81.658  0.00  0.00    +0.000 A 
ATOM      3  C   UNL     1      54.952  67.571  81.453  0.00  0.00    +0.000 A 
ATOM      4  C   UNL     1      53.480  65.914  80.538  0.00  0.00    +0.000 A 
ATOM      5  C   UNL     1      54.378  67.647  79.118  0.00  0.00    +0.000 A 
ATOM      6  C   UNL     1      53.587  66.513  79.283  0.00  0.00    +0.000 A 
ATOM      7  C   UNL     1      52.607  64.682  80.668  0.00  0.00    +0.000 C 
ENDROOT
BRANCH   2   9
ATOM      8  S   UNL     1      54.461  65.157  85.474  0.00  0.00    +0.000 S 
ATOM      9  N   UNL     1      53.996  65.854  82.938  0.00  0.00    +0.000 N 
ATOM     10  N   UNL     1      55.693  66.985  84.162  0.00  0.00    +0.000 NA
ATOM     11  C   UNL     1      54.746  66.083  84.040  0.00  0.00    +0.000 A 
ATOM     12  C   UNL     1      56.262  66.945  85.420  0.00  0.00    +0.000 A 
ATOM     13  C   UNL     1      55.707  66.005  86.254  0.00  0.00    +0.000 A 
ATOM     14  H   UNL     1      53.208  65.213  83.000  0.00  0.00    +0.000 HD
BRANCH  12  16
ATOM     15  N   UNL     1      58.358  69.219  87.513  0.00  0.00    +0.000 NA
ATOM     16  C   UNL     1      57.334  67.837  85.804  0.00  0.00    +0.000 A 
ATOM     17  C   UNL     1      58.373  68.155  84.934  0.00  0.00    +0.000 A 
ATOM     18  C   UNL     1      57.372  68.399  87.072  0.00  0.00    +0.000 A 
ATOM     19  C   UNL     1      59.397  69.003  85.342  0.00  0.00    +0.000 A 
ATOM     20  C   UNL     1      59.341  69.502  86.632  0.00  0.00    +0.000 A 
ENDBRANCH  12  16
ENDBRANCH   2   9
BRANCH   1  22
ATOM     21  O   UNL     1      54.236  70.952  80.132  0.00  0.00    +0.000 OA
ATOM     22  N   UNL     1      55.875  69.316  79.979  0.00  0.00    +0.000 N 
ATOM     23  C   UNL     1      55.393  70.615  79.913  0.00  0.00    +0.000 C 
ATOM     24  H   UNL     1      56.872  69.156  79.894  0.00  0.00    +0.000 HD
BRANCH  23  30
ATOM     25  C   UNL     1      58.177  73.682  78.877  0.00  0.00    +0.000 A 
ATOM     26  C   UNL     1      58.627  72.564  79.574  0.00  0.00    +0.000 A 
ATOM     27  C   UNL     1      56.836  73.799  78.526  0.00  0.00    +0.000 A 
ATOM     28  C   UNL     1      57.729  71.557  79.922  0.00  0.00    +0.000 A 
ATOM     29  C   UNL     1      55.939  72.792  78.876  0.00  0.00    +0.000 A 
ATOM     30  C   UNL     1      56.382  71.668  79.577  0.00  0.00    +0.000 A 
BRANCH  25  31
ATOM     31  C   UNL     1      59.096  74.712  78.519  0.00  0.00    +0.000 C 
BRANCH  31  32
ATOM     32  N   UNL     1      60.035  75.767  78.155  0.00  0.00    +0.000 N 
ATOM     33  N   UNL     1      59.063  77.792  75.406  0.00  0.00    +0.000 N 
ATOM     34  C   UNL     1      60.276  75.644  76.691  0.00  0.00    +0.000 C 
ATOM     35  C   UNL     1      59.253  77.032  78.075  0.00  0.00    +0.000 C 
ATOM     36  C   UNL     1      59.858  76.536  75.487  0.00  0.00    +0.000 C 
ATOM     37  C   UNL     1      58.834  77.924  76.871  0.00  0.00    +0.000 C 
ATOM     38  C   UNL     1      59.983  78.854  75.022  0.00  0.00    +0.000 C 
ENDBRANCH  31  32
ENDBRANCH  25  31
ENDBRANCH  23  30
ENDBRANCH   1  22
TORSDOF 6
ENDMDL
