MODEL 1
REMARK VINA RESULT:      -6.9      0.000      0.000
REMARK  Name = 101808841_CandidaspongiolideA.pdbqt.pdb
REMARK  13 active torsions:
REMARK  status: ('A' for Active; 'I' for Inactive)
REMARK    1  A    between atoms: C_6  and  C_39
REMARK    2  A    between atoms: C_9  and  O_27
REMARK    3  A    between atoms: C_9  and  C_51
REMARK    4  A    between atoms: C_10  and  O_29
REMARK    5  A    between atoms: C_14  and  O_31
REMARK    6  A    between atoms: C_15  and  O_33
REMARK    7  A    between atoms: C_20  and  O_35
REMARK    8  A    between atoms: O_35  and  C_37
REMARK    9  A    between atoms: C_39  and  C_41
REMARK   10  A    between atoms: C_39  and  O_49
REMARK   11  A    between atoms: C_42  and  C_44
REMARK   12  A    between atoms: C_44  and  C_46
REMARK   13  A    between atoms: C_51  and  O_52
REMARK                            x       y       z     vdW  Elec       q    Type
REMARK                         _______ _______ _______ _____ _____    ______ ____
ROOT
ATOM      1  O   UNL     1      59.595  36.762  66.766  0.00  0.00    +0.000 OA
ATOM      2  O   UNL     1      61.450  37.087  70.472  0.00  0.00    +0.000 OA
ATOM      3  O   UNL     1      61.553  36.262  65.654  0.00  0.00    +0.000 OA
ATOM      4  O   UNL     1      56.051  40.819  71.129  0.00  0.00    +0.000 OA
ATOM      5  O   UNL     1      56.839  36.523  67.430  0.00  0.00    +0.000 OA
ATOM      6  C   UNL     1      60.874  38.378  68.589  0.00  0.00    +0.000 C 
ATOM      7  C   UNL     1      60.726  37.979  70.023  0.00  0.00    +0.000 C 
ATOM      8  C   UNL     1      60.231  37.566  67.613  0.00  0.00    +0.000 C 
ATOM      9  C   UNL     1      59.583  38.671  70.813  0.00  0.00    +0.000 C 
ATOM     10  C   UNL     1      58.233  38.106  70.405  0.00  0.00    +0.000 C 
ATOM     11  C   UNL     1      57.036  38.880  70.420  0.00  0.00    +0.000 C 
ATOM     12  C   UNL     1      60.366  36.080  65.886  0.00  0.00    +0.000 C 
ATOM     13  C   UNL     1      55.899  39.784  70.488  0.00  0.00    +0.000 C 
ATOM     14  C   UNL     1      59.599  34.996  65.230  0.00  0.00    +0.000 C 
ATOM     15  C   UNL     1      58.174  34.784  65.383  0.00  0.00    +0.000 C 
ATOM     16  C   UNL     1      54.616  39.433  69.797  0.00  0.00    +0.000 C 
ATOM     17  C   UNL     1      57.123  35.776  65.190  0.00  0.00    +0.000 C 
ATOM     18  C   UNL     1      54.814  36.195  66.193  0.00  0.00    +0.000 C 
ATOM     19  C   UNL     1      56.304  36.173  66.376  0.00  0.00    +0.000 C 
ATOM     20  C   UNL     1      53.988  36.906  67.171  0.00  0.00    +0.000 C 
ATOM     21  C   UNL     1      54.424  38.185  69.153  0.00  0.00    +0.000 C 
ATOM     22  C   UNL     1      54.266  37.032  68.584  0.00  0.00    +0.000 C 
ATOM     23  C   UNL     1      53.425  40.366  69.740  0.00  0.00    +0.000 C 
ATOM     24  C   UNL     1      57.300  36.828  64.094  0.00  0.00    +0.000 C 
ATOM     25  C   UNL     1      54.155  35.407  65.067  0.00  0.00    +0.000 C 
ATOM     26  C   UNL     1      54.562  35.831  69.447  0.00  0.00    +0.000 C 
ENDROOT
BRANCH   9  27
ATOM     27  O   UNL     1      59.592  40.069  70.520  0.00  0.00    +0.000 OA
ATOM     28  H   UNL     1      59.808  40.534  71.349  0.00  0.00    +0.000 HD
ENDBRANCH   9  27
BRANCH  10  29
ATOM     29  O   UNL     1      58.167  36.778  70.032  0.00  0.00    +0.000 OA
ATOM     30  H   UNL     1      58.333  36.625  69.082  0.00  0.00    +0.000 HD
ENDBRANCH  10  29
BRANCH  14  31
ATOM     31  O   UNL     1      60.280  34.077  64.452  0.00  0.00    +0.000 OA
ATOM     32  H   UNL     1      60.369  34.402  63.531  0.00  0.00    +0.000 HD
ENDBRANCH  14  31
BRANCH  15  33
ATOM     33  O   UNL     1      57.779  33.467  65.214  0.00  0.00    +0.000 OA
ATOM     34  C   UNL     1      57.706  32.817  66.455  0.00  0.00    +0.000 C 
ENDBRANCH  15  33
BRANCH  20  35
ATOM     35  O   UNL     1      52.641  37.208  66.835  0.00  0.00    +0.000 OA
BRANCH  35  37
ATOM     36  O   UNL     1      53.068  39.420  66.229  0.00  0.00    +0.000 OA
ATOM     37  C   UNL     1      52.383  38.535  66.703  0.00  0.00    +0.000 C 
ATOM     38  C   UNL     1      51.084  38.971  67.273  0.00  0.00    +0.000 C 
ENDBRANCH  35  37
ENDBRANCH  20  35
BRANCH   6  39
ATOM     39  C   UNL     1      61.729  39.488  68.218  0.00  0.00    +0.000 C 
BRANCH  39  41
ATOM     40  O   UNL     1      63.871  40.817  68.601  0.00  0.00    +0.000 OA
ATOM     41  C   UNL     1      63.149  39.562  68.664  0.00  0.00    +0.000 C 
ATOM     42  C   UNL     1      63.375  40.435  69.813  0.00  0.00    +0.000 C 
ATOM     43  C   UNL     1      64.117  38.411  68.223  0.00  0.00    +0.000 C 
BRANCH  42  44
ATOM     44  C   UNL     1      64.294  40.097  70.862  0.00  0.00    +0.000 C 
ATOM     45  C   UNL     1      65.363  41.076  71.275  0.00  0.00    +0.000 C 
BRANCH  44  46
ATOM     46  C   UNL     1      63.890  39.159  71.850  0.00  0.00    +0.000 C 
ATOM     47  C   UNL     1      63.597  38.296  72.629  0.00  0.00    +0.000 C 
ATOM     48  C   UNL     1      63.265  37.094  73.525  0.00  0.00    +0.000 C 
ENDBRANCH  44  46
ENDBRANCH  42  44
ENDBRANCH  39  41
BRANCH  39  49
ATOM     49  O   UNL     1      61.257  40.266  67.171  0.00  0.00    +0.000 OA
ATOM     50  H   UNL     1      60.391  39.960  66.837  0.00  0.00    +0.000 HD
ENDBRANCH  39  49
ENDBRANCH   6  39
BRANCH   9  51
ATOM     51  C   UNL     1      59.763  38.483  72.272  0.00  0.00    +0.000 C 
BRANCH  51  52
ATOM     52  O   UNL     1      59.900  38.326  73.589  0.00  0.00    +0.000 OA
ATOM     53  H   UNL     1      59.041  38.427  74.039  0.00  0.00    +0.000 HD
ENDBRANCH  51  52
ENDBRANCH   9  51
TORSDOF 13
ENDMDL
MODEL 2
REMARK VINA RESULT:      -6.0      2.340      6.846
REMARK  Name = 101808841_CandidaspongiolideA.pdbqt.pdb
REMARK  13 active torsions:
REMARK  status: ('A' for Active; 'I' for Inactive)
REMARK    1  A    between atoms: C_6  and  C_39
REMARK    2  A    between atoms: C_9  and  O_27
REMARK    3  A    between atoms: C_9  and  C_51
REMARK    4  A    between atoms: C_10  and  O_29
REMARK    5  A    between atoms: C_14  and  O_31
REMARK    6  A    between atoms: C_15  and  O_33
REMARK    7  A    between atoms: C_20  and  O_35
REMARK    8  A    between atoms: O_35  and  C_37
REMARK    9  A    between atoms: C_39  and  C_41
REMARK   10  A    between atoms: C_39  and  O_49
REMARK   11  A    between atoms: C_42  and  C_44
REMARK   12  A    between atoms: C_44  and  C_46
REMARK   13  A    between atoms: C_51  and  O_52
REMARK                            x       y       z     vdW  Elec       q    Type
REMARK                         _______ _______ _______ _____ _____    ______ ____
ROOT
ATOM      1  O   UNL     1      56.028  38.915  70.322  0.00  0.00    +0.000 OA
ATOM      2  O   UNL     1      59.899  40.408  70.591  0.00  0.00    +0.000 OA
ATOM      3  O   UNL     1      55.183  40.389  71.883  0.00  0.00    +0.000 OA
ATOM      4  O   UNL     1      60.785  34.226  68.472  0.00  0.00    +0.000 OA
ATOM      5  O   UNL     1      56.068  37.417  67.904  0.00  0.00    +0.000 OA
ATOM      6  C   UNL     1      58.484  38.792  71.557  0.00  0.00    +0.000 C 
ATOM      7  C   UNL     1      59.651  39.207  70.718  0.00  0.00    +0.000 C 
ATOM      8  C   UNL     1      57.195  38.845  70.958  0.00  0.00    +0.000 C 
ATOM      9  C   UNL     1      60.409  38.066  69.986  0.00  0.00    +0.000 C 
ATOM     10  C   UNL     1      59.600  37.562  68.803  0.00  0.00    +0.000 C 
ATOM     11  C   UNL     1      59.658  36.212  68.348  0.00  0.00    +0.000 C 
ATOM     12  C   UNL     1      55.124  39.795  70.815  0.00  0.00    +0.000 C 
ATOM     13  C   UNL     1      59.820  34.811  67.994  0.00  0.00    +0.000 C 
ATOM     14  C   UNL     1      54.017  40.019  69.856  0.00  0.00    +0.000 C 
ATOM     15  C   UNL     1      53.832  39.283  68.623  0.00  0.00    +0.000 C 
ATOM     16  C   UNL     1      58.833  34.147  67.082  0.00  0.00    +0.000 C 
ATOM     17  C   UNL     1      53.797  37.833  68.474  0.00  0.00    +0.000 C 
ATOM     18  C   UNL     1      54.451  36.178  66.645  0.00  0.00    +0.000 C 
ATOM     19  C   UNL     1      54.881  37.180  67.676  0.00  0.00    +0.000 C 
ATOM     20  C   UNL     1      55.446  35.255  66.093  0.00  0.00    +0.000 C 
ATOM     21  C   UNL     1      57.785  34.866  66.453  0.00  0.00    +0.000 C 
ATOM     22  C   UNL     1      56.845  35.546  65.878  0.00  0.00    +0.000 C 
ATOM     23  C   UNL     1      58.878  32.671  66.747  0.00  0.00    +0.000 C 
ATOM     24  C   UNL     1      53.166  36.996  69.588  0.00  0.00    +0.000 C 
ATOM     25  C   UNL     1      53.028  36.181  66.099  0.00  0.00    +0.000 C 
ATOM     26  C   UNL     1      57.295  36.765  65.112  0.00  0.00    +0.000 C 
ENDROOT
BRANCH   9  27
ATOM     27  O   UNL     1      60.606  36.980  70.892  0.00  0.00    +0.000 OA
ATOM     28  H   UNL     1      59.933  36.307  70.682  0.00  0.00    +0.000 HD
ENDBRANCH   9  27
BRANCH  10  29
ATOM     29  O   UNL     1      58.799  38.461  68.127  0.00  0.00    +0.000 OA
ATOM     30  H   UNL     1      59.111  39.385  68.178  0.00  0.00    +0.000 HD
ENDBRANCH  10  29
BRANCH  14  31
ATOM     31  O   UNL     1      53.112  41.034  70.111  0.00  0.00    +0.000 OA
ATOM     32  H   UNL     1      52.239  40.664  70.363  0.00  0.00    +0.000 HD
ENDBRANCH  14  31
BRANCH  15  33
ATOM     33  O   UNL     1      53.165  39.992  67.638  0.00  0.00    +0.000 OA
ATOM     34  C   UNL     1      51.898  39.435  67.410  0.00  0.00    +0.000 C 
ENDBRANCH  15  33
BRANCH  20  35
ATOM     35  O   UNL     1      54.995  34.112  65.381  0.00  0.00    +0.000 OA
BRANCH  35  37
ATOM     36  O   UNL     1      54.764  35.014  63.241  0.00  0.00    +0.000 OA
ATOM     37  C   UNL     1      55.169  34.187  64.036  0.00  0.00    +0.000 C 
ATOM     38  C   UNL     1      55.928  33.056  63.448  0.00  0.00    +0.000 C 
ENDBRANCH  35  37
ENDBRANCH  20  35
BRANCH   6  39
ATOM     39  C   UNL     1      58.665  38.455  72.955  0.00  0.00    +0.000 C 
BRANCH  39  41
ATOM     40  O   UNL     1      57.943  37.122  75.005  0.00  0.00    +0.000 OA
ATOM     41  C   UNL     1      57.997  37.270  73.565  0.00  0.00    +0.000 C 
ATOM     42  C   UNL     1      56.827  37.591  74.377  0.00  0.00    +0.000 C 
ATOM     43  C   UNL     1      58.276  35.864  72.932  0.00  0.00    +0.000 C 
BRANCH  42  44
ATOM     44  C   UNL     1      55.644  36.779  74.370  0.00  0.00    +0.000 C 
ATOM     45  C   UNL     1      55.430  35.745  75.446  0.00  0.00    +0.000 C 
BRANCH  44  46
ATOM     46  C   UNL     1      54.471  37.283  73.747  0.00  0.00    +0.000 C 
ATOM     47  C   UNL     1      53.466  37.767  73.306  0.00  0.00    +0.000 C 
ATOM     48  C   UNL     1      52.154  38.438  72.874  0.00  0.00    +0.000 C 
ENDBRANCH  44  46
ENDBRANCH  42  44
ENDBRANCH  39  41
BRANCH  39  49
ATOM     49  O   UNL     1      59.738  39.080  73.573  0.00  0.00    +0.000 OA
ATOM     50  H   UNL     1      59.619  40.047  73.642  0.00  0.00    +0.000 HD
ENDBRANCH  39  49
ENDBRANCH   6  39
BRANCH   9  51
ATOM     51  C   UNL     1      61.728  38.537  69.502  0.00  0.00    +0.000 C 
BRANCH  51  52
ATOM     52  O   UNL     1      62.903  38.981  69.055  0.00  0.00    +0.000 OA
ATOM     53  H   UNL     1      63.478  39.240  69.799  0.00  0.00    +0.000 HD
ENDBRANCH  51  52
ENDBRANCH   9  51
TORSDOF 13
ENDMDL
MODEL 3
REMARK VINA RESULT:      -5.8     19.163     23.045
REMARK  Name = 101808841_CandidaspongiolideA.pdbqt.pdb
REMARK  13 active torsions:
REMARK  status: ('A' for Active; 'I' for Inactive)
REMARK    1  A    between atoms: C_6  and  C_39
REMARK    2  A    between atoms: C_9  and  O_27
REMARK    3  A    between atoms: C_9  and  C_51
REMARK    4  A    between atoms: C_10  and  O_29
REMARK    5  A    between atoms: C_14  and  O_31
REMARK    6  A    between atoms: C_15  and  O_33
REMARK    7  A    between atoms: C_20  and  O_35
REMARK    8  A    between atoms: O_35  and  C_37
REMARK    9  A    between atoms: C_39  and  C_41
REMARK   10  A    between atoms: C_39  and  O_49
REMARK   11  A    between atoms: C_42  and  C_44
REMARK   12  A    between atoms: C_44  and  C_46
REMARK   13  A    between atoms: C_51  and  O_52
REMARK                            x       y       z     vdW  Elec       q    Type
REMARK                         _______ _______ _______ _____ _____    ______ ____
ROOT
ATOM      1  O   UNL     1      54.997  47.673  85.927  0.00  0.00    +0.000 OA
ATOM      2  O   UNL     1      51.965  47.020  83.159  0.00  0.00    +0.000 OA
ATOM      3  O   UNL     1      55.443  45.426  86.204  0.00  0.00    +0.000 OA
ATOM      4  O   UNL     1      50.445  52.897  85.737  0.00  0.00    +0.000 OA
ATOM      5  O   UNL     1      55.609  50.431  85.593  0.00  0.00    +0.000 OA
ATOM      6  C   UNL     1      52.319  47.232  85.478  0.00  0.00    +0.000 C 
ATOM      7  C   UNL     1      51.796  47.716  84.162  0.00  0.00    +0.000 C 
ATOM      8  C   UNL     1      53.700  47.437  85.748  0.00  0.00    +0.000 C 
ATOM      9  C   UNL     1      51.154  49.130  84.158  0.00  0.00    +0.000 C 
ATOM     10  C   UNL     1      52.226  50.203  84.248  0.00  0.00    +0.000 C 
ATOM     11  C   UNL     1      52.007  51.461  84.882  0.00  0.00    +0.000 C 
ATOM     12  C   UNL     1      55.797  46.587  86.049  0.00  0.00    +0.000 C 
ATOM     13  C   UNL     1      51.642  52.697  85.555  0.00  0.00    +0.000 C 
ATOM     14  C   UNL     1      57.226  46.957  85.917  0.00  0.00    +0.000 C 
ATOM     15  C   UNL     1      57.722  48.315  85.828  0.00  0.00    +0.000 C 
ATOM     16  C   UNL     1      52.705  53.660  85.989  0.00  0.00    +0.000 C 
ATOM     17  C   UNL     1      57.422  49.409  86.744  0.00  0.00    +0.000 C 
ATOM     18  C   UNL     1      57.208  51.944  86.536  0.00  0.00    +0.000 C 
ATOM     19  C   UNL     1      56.663  50.584  86.213  0.00  0.00    +0.000 C 
ATOM     20  C   UNL     1      56.343  53.114  86.367  0.00  0.00    +0.000 C 
ATOM     21  C   UNL     1      54.074  53.464  85.675  0.00  0.00    +0.000 C 
ATOM     22  C   UNL     1      55.316  53.272  85.363  0.00  0.00    +0.000 C 
ATOM     23  C   UNL     1      52.411  54.917  86.781  0.00  0.00    +0.000 C 
ATOM     24  C   UNL     1      57.251  49.096  88.231  0.00  0.00    +0.000 C 
ATOM     25  C   UNL     1      58.667  52.125  86.937  0.00  0.00    +0.000 C 
ATOM     26  C   UNL     1      55.594  53.048  83.898  0.00  0.00    +0.000 C 
ENDROOT
BRANCH   9  27
ATOM     27  O   UNL     1      50.295  49.256  85.291  0.00  0.00    +0.000 OA
ATOM     28  H   UNL     1      49.447  49.614  84.969  0.00  0.00    +0.000 HD
ENDBRANCH   9  27
BRANCH  10  29
ATOM     29  O   UNL     1      53.452  49.952  83.665  0.00  0.00    +0.000 OA
ATOM     30  H   UNL     1      53.988  50.753  83.510  0.00  0.00    +0.000 HD
ENDBRANCH  10  29
BRANCH  14  31
ATOM     31  O   UNL     1      58.167  45.948  85.817  0.00  0.00    +0.000 OA
ATOM     32  H   UNL     1      58.695  46.048  84.996  0.00  0.00    +0.000 HD
ENDBRANCH  14  31
BRANCH  15  33
ATOM     33  O   UNL     1      58.916  48.435  85.138  0.00  0.00    +0.000 OA
ATOM     34  C   UNL     1      58.672  48.760  83.795  0.00  0.00    +0.000 C 
ENDBRANCH  15  33
BRANCH  20  35
ATOM     35  O   UNL     1      56.730  54.341  86.971  0.00  0.00    +0.000 OA
BRANCH  35  37
ATOM     36  O   UNL     1      56.502  53.764  89.221  0.00  0.00    +0.000 OA
ATOM     37  C   UNL     1      56.318  54.483  88.258  0.00  0.00    +0.000 C 
ATOM     38  C   UNL     1      55.472  55.676  88.507  0.00  0.00    +0.000 C 
ENDBRANCH  35  37
ENDBRANCH  20  35
BRANCH   6  39
ATOM     39  C   UNL     1      51.463  46.492  86.383  0.00  0.00    +0.000 C 
BRANCH  39  41
ATOM     40  O   UNL     1      51.513  45.819  88.842  0.00  0.00    +0.000 OA
ATOM     41  C   UNL     1      51.365  46.843  87.828  0.00  0.00    +0.000 C 
ATOM     42  C   UNL     1      52.592  46.614  88.587  0.00  0.00    +0.000 C 
ATOM     43  C   UNL     1      50.219  47.817  88.271  0.00  0.00    +0.000 C 
BRANCH  42  44
ATOM     44  C   UNL     1      53.041  47.519  89.607  0.00  0.00    +0.000 C 
ATOM     45  C   UNL     1      53.609  46.983  90.896  0.00  0.00    +0.000 C 
BRANCH  44  46
ATOM     46  C   UNL     1      53.471  48.819  89.227  0.00  0.00    +0.000 C 
ATOM     47  C   UNL     1      53.767  49.954  88.976  0.00  0.00    +0.000 C 
ATOM     48  C   UNL     1      54.030  51.447  88.732  0.00  0.00    +0.000 C 
ENDBRANCH  44  46
ENDBRANCH  42  44
ENDBRANCH  39  41
BRANCH  39  49
ATOM     49  O   UNL     1      50.512  45.692  85.766  0.00  0.00    +0.000 OA
ATOM     50  H   UNL     1      49.774  46.210  85.390  0.00  0.00    +0.000 HD
ENDBRANCH  39  49
ENDBRANCH   6  39
BRANCH   9  51
ATOM     51  C   UNL     1      50.361  49.344  82.925  0.00  0.00    +0.000 C 
BRANCH  51  52
ATOM     52  O   UNL     1      49.668  49.549  81.804  0.00  0.00    +0.000 OA
ATOM     53  H   UNL     1      50.270  49.692  81.049  0.00  0.00    +0.000 HD
ENDBRANCH  51  52
ENDBRANCH   9  51
TORSDOF 13
ENDMDL
MODEL 4
REMARK VINA RESULT:      -5.8      2.286      6.289
REMARK  Name = 101808841_CandidaspongiolideA.pdbqt.pdb
REMARK  13 active torsions:
REMARK  status: ('A' for Active; 'I' for Inactive)
REMARK    1  A    between atoms: C_6  and  C_39
REMARK    2  A    between atoms: C_9  and  O_27
REMARK    3  A    between atoms: C_9  and  C_51
REMARK    4  A    between atoms: C_10  and  O_29
REMARK    5  A    between atoms: C_14  and  O_31
REMARK    6  A    between atoms: C_15  and  O_33
REMARK    7  A    between atoms: C_20  and  O_35
REMARK    8  A    between atoms: O_35  and  C_37
REMARK    9  A    between atoms: C_39  and  C_41
REMARK   10  A    between atoms: C_39  and  O_49
REMARK   11  A    between atoms: C_42  and  C_44
REMARK   12  A    between atoms: C_44  and  C_46
REMARK   13  A    between atoms: C_51  and  O_52
REMARK                            x       y       z     vdW  Elec       q    Type
REMARK                         _______ _______ _______ _____ _____    ______ ____
ROOT
ATOM      1  O   UNL     1      56.322  38.942  69.708  0.00  0.00    +0.000 OA
ATOM      2  O   UNL     1      59.737  40.544  67.961  0.00  0.00    +0.000 OA
ATOM      3  O   UNL     1      55.870  40.841  70.937  0.00  0.00    +0.000 OA
ATOM      4  O   UNL     1      60.783  34.038  67.684  0.00  0.00    +0.000 OA
ATOM      5  O   UNL     1      55.731  36.701  68.059  0.00  0.00    +0.000 OA
ATOM      6  C   UNL     1      59.043  39.324  69.852  0.00  0.00    +0.000 C 
ATOM      7  C   UNL     1      59.748  39.456  68.538  0.00  0.00    +0.000 C 
ATOM      8  C   UNL     1      57.634  39.129  69.822  0.00  0.00    +0.000 C 
ATOM      9  C   UNL     1      60.365  38.154  67.958  0.00  0.00    +0.000 C 
ATOM     10  C   UNL     1      59.277  37.248  67.407  0.00  0.00    +0.000 C 
ATOM     11  C   UNL     1      59.383  35.826  67.406  0.00  0.00    +0.000 C 
ATOM     12  C   UNL     1      55.527  39.912  70.219  0.00  0.00    +0.000 C 
ATOM     13  C   UNL     1      59.630  34.394  67.468  0.00  0.00    +0.000 C 
ATOM     14  C   UNL     1      54.129  39.759  69.753  0.00  0.00    +0.000 C 
ATOM     15  C   UNL     1      53.634  38.636  68.984  0.00  0.00    +0.000 C 
ATOM     16  C   UNL     1      58.501  33.428  67.270  0.00  0.00    +0.000 C 
ATOM     17  C   UNL     1      53.780  37.224  69.316  0.00  0.00    +0.000 C 
ATOM     18  C   UNL     1      53.990  35.057  67.985  0.00  0.00    +0.000 C 
ATOM     19  C   UNL     1      54.595  36.366  68.400  0.00  0.00    +0.000 C 
ATOM     20  C   UNL     1      54.855  34.029  67.401  0.00  0.00    +0.000 C 
ATOM     21  C   UNL     1      57.197  33.854  66.915  0.00  0.00    +0.000 C 
ATOM     22  C   UNL     1      56.017  34.267  66.575  0.00  0.00    +0.000 C 
ATOM     23  C   UNL     1      58.659  31.929  67.417  0.00  0.00    +0.000 C 
ATOM     24  C   UNL     1      53.735  36.808  70.787  0.00  0.00    +0.000 C 
ATOM     25  C   UNL     1      52.485  34.830  68.070  0.00  0.00    +0.000 C 
ATOM     26  C   UNL     1      55.960  35.157  65.359  0.00  0.00    +0.000 C 
ENDROOT
BRANCH   9  27
ATOM     27  O   UNL     1      61.046  37.454  69.001  0.00  0.00    +0.000 OA
ATOM     28  H   UNL     1      60.744  37.836  69.846  0.00  0.00    +0.000 HD
ENDBRANCH   9  27
BRANCH  10  29
ATOM     29  O   UNL     1      58.154  37.834  66.858  0.00  0.00    +0.000 OA
ATOM     30  H   UNL     1      58.198  38.808  66.815  0.00  0.00    +0.000 HD
ENDBRANCH  10  29
BRANCH  14  31
ATOM     31  O   UNL     1      53.226  40.773  70.016  0.00  0.00    +0.000 OA
ATOM     32  H   UNL     1      52.356  40.576  69.609  0.00  0.00    +0.000 HD
ENDBRANCH  14  31
BRANCH  15  33
ATOM     33  O   UNL     1      52.553  38.941  68.174  0.00  0.00    +0.000 OA
ATOM     34  C   UNL     1      52.978  39.160  66.855  0.00  0.00    +0.000 C 
ENDBRANCH  15  33
BRANCH  20  35
ATOM     35  O   UNL     1      54.368  32.697  67.314  0.00  0.00    +0.000 OA
BRANCH  35  37
ATOM     36  O   UNL     1      53.203  32.786  65.294  0.00  0.00    +0.000 OA
ATOM     37  C   UNL     1      54.020  32.311  66.058  0.00  0.00    +0.000 C 
ATOM     38  C   UNL     1      54.713  31.092  65.574  0.00  0.00    +0.000 C 
ENDBRANCH  35  37
ENDBRANCH  20  35
BRANCH   6  39
ATOM     39  C   UNL     1      59.766  39.498  71.096  0.00  0.00    +0.000 C 
BRANCH  39  41
ATOM     40  O   UNL     1      59.463  38.952  73.568  0.00  0.00    +0.000 OA
ATOM     41  C   UNL     1      59.662  38.506  72.204  0.00  0.00    +0.000 C 
ATOM     42  C   UNL     1      58.371  38.500  72.887  0.00  0.00    +0.000 C 
ATOM     43  C   UNL     1      60.675  37.310  72.216  0.00  0.00    +0.000 C 
BRANCH  42  44
ATOM     44  C   UNL     1      57.740  37.285  73.318  0.00  0.00    +0.000 C 
ATOM     45  C   UNL     1      57.002  37.242  74.633  0.00  0.00    +0.000 C 
BRANCH  44  46
ATOM     46  C   UNL     1      57.324  36.344  72.338  0.00  0.00    +0.000 C 
ATOM     47  C   UNL     1      57.063  35.500  71.527  0.00  0.00    +0.000 C 
ATOM     48  C   UNL     1      56.867  34.377  70.499  0.00  0.00    +0.000 C 
ENDBRANCH  44  46
ENDBRANCH  42  44
ENDBRANCH  39  41
BRANCH  39  49
ATOM     49  O   UNL     1      60.794  40.428  71.051  0.00  0.00    +0.000 OA
ATOM     50  H   UNL     1      61.676  40.010  71.012  0.00  0.00    +0.000 HD
ENDBRANCH  39  49
ENDBRANCH   6  39
BRANCH   9  51
ATOM     51  C   UNL     1      61.328  38.464  66.876  0.00  0.00    +0.000 C 
BRANCH  51  52
ATOM     52  O   UNL     1      62.211  38.757  65.921  0.00  0.00    +0.000 OA
ATOM     53  H   UNL     1      62.584  39.648  66.058  0.00  0.00    +0.000 HD
ENDBRANCH  51  52
ENDBRANCH   9  51
TORSDOF 13
ENDMDL
MODEL 5
REMARK VINA RESULT:      -5.6      3.510      6.489
REMARK  Name = 101808841_CandidaspongiolideA.pdbqt.pdb
REMARK  13 active torsions:
REMARK  status: ('A' for Active; 'I' for Inactive)
REMARK    1  A    between atoms: C_6  and  C_39
REMARK    2  A    between atoms: C_9  and  O_27
REMARK    3  A    between atoms: C_9  and  C_51
REMARK    4  A    between atoms: C_10  and  O_29
REMARK    5  A    between atoms: C_14  and  O_31
REMARK    6  A    between atoms: C_15  and  O_33
REMARK    7  A    between atoms: C_20  and  O_35
REMARK    8  A    between atoms: O_35  and  C_37
REMARK    9  A    between atoms: C_39  and  C_41
REMARK   10  A    between atoms: C_39  and  O_49
REMARK   11  A    between atoms: C_42  and  C_44
REMARK   12  A    between atoms: C_44  and  C_46
REMARK   13  A    between atoms: C_51  and  O_52
REMARK                            x       y       z     vdW  Elec       q    Type
REMARK                         _______ _______ _______ _____ _____    ______ ____
ROOT
ATOM      1  O   UNL     1      56.747  39.140  70.489  0.00  0.00    +0.000 OA
ATOM      2  O   UNL     1      59.826  36.982  68.716  0.00  0.00    +0.000 OA
ATOM      3  O   UNL     1      56.738  40.770  68.857  0.00  0.00    +0.000 OA
ATOM      4  O   UNL     1      60.221  35.271  75.073  0.00  0.00    +0.000 OA
ATOM      5  O   UNL     1      55.620  37.285  72.328  0.00  0.00    +0.000 OA
ATOM      6  C   UNL     1      59.457  38.723  70.259  0.00  0.00    +0.000 C 
ATOM      7  C   UNL     1      59.868  37.330  69.897  0.00  0.00    +0.000 C 
ATOM      8  C   UNL     1      58.064  38.982  70.384  0.00  0.00    +0.000 C 
ATOM      9  C   UNL     1      60.229  36.393  71.082  0.00  0.00    +0.000 C 
ATOM     10  C   UNL     1      58.974  35.948  71.812  0.00  0.00    +0.000 C 
ATOM     11  C   UNL     1      58.954  35.659  73.209  0.00  0.00    +0.000 C 
ATOM     12  C   UNL     1      56.169  39.990  69.608  0.00  0.00    +0.000 C 
ATOM     13  C   UNL     1      59.084  35.396  74.633  0.00  0.00    +0.000 C 
ATOM     14  C   UNL     1      54.695  39.838  69.606  0.00  0.00    +0.000 C 
ATOM     15  C   UNL     1      53.949  39.009  70.530  0.00  0.00    +0.000 C 
ATOM     16  C   UNL     1      57.860  35.287  75.491  0.00  0.00    +0.000 C 
ATOM     17  C   UNL     1      54.042  39.031  71.985  0.00  0.00    +0.000 C 
ATOM     18  C   UNL     1      53.770  37.309  73.849  0.00  0.00    +0.000 C 
ATOM     19  C   UNL     1      54.561  37.810  72.676  0.00  0.00    +0.000 C 
ATOM     20  C   UNL     1      54.395  36.362  74.775  0.00  0.00    +0.000 C 
ATOM     21  C   UNL     1      56.551  35.327  74.948  0.00  0.00    +0.000 C 
ATOM     22  C   UNL     1      55.366  35.350  74.426  0.00  0.00    +0.000 C 
ATOM     23  C   UNL     1      57.916  35.114  76.994  0.00  0.00    +0.000 C 
ATOM     24  C   UNL     1      54.282  40.370  72.685  0.00  0.00    +0.000 C 
ATOM     25  C   UNL     1      52.306  37.695  74.025  0.00  0.00    +0.000 C 
ATOM     26  C   UNL     1      55.123  34.366  73.309  0.00  0.00    +0.000 C 
ENDROOT
BRANCH   9  27
ATOM     27  O   UNL     1      61.058  37.103  72.004  0.00  0.00    +0.000 OA
ATOM     28  H   UNL     1      60.870  36.746  72.891  0.00  0.00    +0.000 HD
ENDBRANCH   9  27
BRANCH  10  29
ATOM     29  O   UNL     1      57.813  35.791  71.081  0.00  0.00    +0.000 OA
ATOM     30  H   UNL     1      57.896  35.164  70.337  0.00  0.00    +0.000 HD
ENDBRANCH  10  29
BRANCH  14  31
ATOM     31  O   UNL     1      53.961  40.486  68.627  0.00  0.00    +0.000 OA
ATOM     32  H   UNL     1      54.087  41.456  68.686  0.00  0.00    +0.000 HD
ENDBRANCH  14  31
BRANCH  15  33
ATOM     33  O   UNL     1      52.748  38.540  70.024  0.00  0.00    +0.000 OA
ATOM     34  C   UNL     1      52.921  37.268  69.460  0.00  0.00    +0.000 C 
ENDBRANCH  15  33
BRANCH  20  35
ATOM     35  O   UNL     1      53.787  36.144  76.041  0.00  0.00    +0.000 OA
BRANCH  35  37
ATOM     36  O   UNL     1      55.159  37.736  77.055  0.00  0.00    +0.000 OA
ATOM     37  C   UNL     1      54.183  37.012  77.007  0.00  0.00    +0.000 C 
ATOM     38  C   UNL     1      53.313  37.037  78.209  0.00  0.00    +0.000 C 
ENDBRANCH  35  37
ENDBRANCH  20  35
BRANCH   6  39
ATOM     39  C   UNL     1      60.445  39.777  70.368  0.00  0.00    +0.000 C 
BRANCH  39  41
ATOM     40  O   UNL     1      62.550  40.935  69.515  0.00  0.00    +0.000 OA
ATOM     41  C   UNL     1      61.447  40.022  69.293  0.00  0.00    +0.000 C 
ATOM     42  C   UNL     1      62.804  39.599  69.626  0.00  0.00    +0.000 C 
ATOM     43  C   UNL     1      60.919  40.231  67.832  0.00  0.00    +0.000 C 
BRANCH  42  44
ATOM     44  C   UNL     1      63.670  38.977  68.665  0.00  0.00    +0.000 C 
ATOM     45  C   UNL     1      65.121  39.378  68.584  0.00  0.00    +0.000 C 
BRANCH  44  46
ATOM     46  C   UNL     1      63.357  37.668  68.209  0.00  0.00    +0.000 C 
ATOM     47  C   UNL     1      63.174  36.572  67.759  0.00  0.00    +0.000 C 
ATOM     48  C   UNL     1      63.035  35.202  67.080  0.00  0.00    +0.000 C 
ENDBRANCH  44  46
ENDBRANCH  42  44
ENDBRANCH  39  41
BRANCH  39  49
ATOM     49  O   UNL     1      60.179  40.729  71.342  0.00  0.00    +0.000 OA
ATOM     50  H   UNL     1      59.456  41.334  71.087  0.00  0.00    +0.000 HD
ENDBRANCH  39  49
ENDBRANCH   6  39
BRANCH   9  51
ATOM     51  C   UNL     1      60.958  35.195  70.602  0.00  0.00    +0.000 C 
BRANCH  51  52
ATOM     52  O   UNL     1      61.592  34.102  70.176  0.00  0.00    +0.000 OA
ATOM     53  H   UNL     1      61.131  33.714  69.409  0.00  0.00    +0.000 HD
ENDBRANCH  51  52
ENDBRANCH   9  51
TORSDOF 13
ENDMDL
MODEL 6
REMARK VINA RESULT:      -5.6      5.824     10.001
REMARK  Name = 101808841_CandidaspongiolideA.pdbqt.pdb
REMARK  13 active torsions:
REMARK  status: ('A' for Active; 'I' for Inactive)
REMARK    1  A    between atoms: C_6  and  C_39
REMARK    2  A    between atoms: C_9  and  O_27
REMARK    3  A    between atoms: C_9  and  C_51
REMARK    4  A    between atoms: C_10  and  O_29
REMARK    5  A    between atoms: C_14  and  O_31
REMARK    6  A    between atoms: C_15  and  O_33
REMARK    7  A    between atoms: C_20  and  O_35
REMARK    8  A    between atoms: O_35  and  C_37
REMARK    9  A    between atoms: C_39  and  C_41
REMARK   10  A    between atoms: C_39  and  O_49
REMARK   11  A    between atoms: C_42  and  C_44
REMARK   12  A    between atoms: C_44  and  C_46
REMARK   13  A    between atoms: C_51  and  O_52
REMARK                            x       y       z     vdW  Elec       q    Type
REMARK                         _______ _______ _______ _____ _____    ______ ____
ROOT
ATOM      1  O   UNL     1      56.058  31.787  62.939  0.00  0.00    +0.000 OA
ATOM      2  O   UNL     1      53.443  34.102  65.193  0.00  0.00    +0.000 OA
ATOM      3  O   UNL     1      57.424  31.302  64.733  0.00  0.00    +0.000 OA
ATOM      4  O   UNL     1      52.671  36.439  59.075  0.00  0.00    +0.000 OA
ATOM      5  O   UNL     1      54.585  31.255  60.564  0.00  0.00    +0.000 OA
ATOM      6  C   UNL     1      55.415  34.277  63.919  0.00  0.00    +0.000 C 
ATOM      7  C   UNL     1      53.958  34.522  64.155  0.00  0.00    +0.000 C 
ATOM      8  C   UNL     1      55.791  33.000  63.416  0.00  0.00    +0.000 C 
ATOM      9  C   UNL     1      53.183  35.216  63.002  0.00  0.00    +0.000 C 
ATOM     10  C   UNL     1      52.945  34.244  61.859  0.00  0.00    +0.000 C 
ATOM     11  C   UNL     1      52.869  34.659  60.497  0.00  0.00    +0.000 C 
ATOM     12  C   UNL     1      56.808  30.981  63.726  0.00  0.00    +0.000 C 
ATOM     13  C   UNL     1      52.812  35.224  59.158  0.00  0.00    +0.000 C 
ATOM     14  C   UNL     1      56.766  29.578  63.251  0.00  0.00    +0.000 C 
ATOM     15  C   UNL     1      56.140  29.143  62.019  0.00  0.00    +0.000 C 
ATOM     16  C   UNL     1      52.921  34.331  57.959  0.00  0.00    +0.000 C 
ATOM     17  C   UNL     1      56.371  29.689  60.688  0.00  0.00    +0.000 C 
ATOM     18  C   UNL     1      54.970  29.979  58.574  0.00  0.00    +0.000 C 
ATOM     19  C   UNL     1      55.232  30.371  59.999  0.00  0.00    +0.000 C 
ATOM     20  C   UNL     1      54.128  30.842  57.743  0.00  0.00    +0.000 C 
ATOM     21  C   UNL     1      52.975  32.919  58.074  0.00  0.00    +0.000 C 
ATOM     22  C   UNL     1      53.007  31.630  58.202  0.00  0.00    +0.000 C 
ATOM     23  C   UNL     1      52.970  34.854  56.539  0.00  0.00    +0.000 C 
ATOM     24  C   UNL     1      57.778  30.168  60.325  0.00  0.00    +0.000 C 
ATOM     25  C   UNL     1      55.483  28.653  58.023  0.00  0.00    +0.000 C 
ATOM     26  C   UNL     1      51.889  31.026  59.014  0.00  0.00    +0.000 C 
ENDROOT
BRANCH   9  27
ATOM     27  O   UNL     1      53.960  36.308  62.509  0.00  0.00    +0.000 OA
ATOM     28  H   UNL     1      54.469  36.660  63.262  0.00  0.00    +0.000 HD
ENDBRANCH   9  27
BRANCH  10  29
ATOM     29  O   UNL     1      52.766  32.909  62.162  0.00  0.00    +0.000 OA
ATOM     30  H   UNL     1      51.863  32.582  61.989  0.00  0.00    +0.000 HD
ENDBRANCH  10  29
BRANCH  14  31
ATOM     31  O   UNL     1      57.312  28.589  64.049  0.00  0.00    +0.000 OA
ATOM     32  H   UNL     1      56.605  28.068  64.486  0.00  0.00    +0.000 HD
ENDBRANCH  14  31
BRANCH  15  33
ATOM     33  O   UNL     1      55.690  27.833  62.048  0.00  0.00    +0.000 OA
ATOM     34  C   UNL     1      54.354  27.786  62.474  0.00  0.00    +0.000 C 
ENDBRANCH  15  33
BRANCH  20  35
ATOM     35  O   UNL     1      54.145  30.659  56.334  0.00  0.00    +0.000 OA
BRANCH  35  37
ATOM     36  O   UNL     1      56.353  31.201  55.811  0.00  0.00    +0.000 OA
ATOM     37  C   UNL     1      55.148  31.317  55.698  0.00  0.00    +0.000 C 
ATOM     38  C   UNL     1      54.696  32.374  54.760  0.00  0.00    +0.000 C 
ENDBRANCH  35  37
ENDBRANCH  20  35
BRANCH   6  39
ATOM     39  C   UNL     1      56.399  35.273  64.292  0.00  0.00    +0.000 C 
BRANCH  39  41
ATOM     40  O   UNL     1      57.254  34.138  66.410  0.00  0.00    +0.000 OA
ATOM     41  C   UNL     1      56.945  35.350  65.677  0.00  0.00    +0.000 C 
ATOM     42  C   UNL     1      58.291  34.804  65.825  0.00  0.00    +0.000 C 
ATOM     43  C   UNL     1      56.291  36.374  66.667  0.00  0.00    +0.000 C 
BRANCH  42  44
ATOM     44  C   UNL     1      59.279  35.421  66.663  0.00  0.00    +0.000 C 
ATOM     45  C   UNL     1      59.974  34.615  67.731  0.00  0.00    +0.000 C 
BRANCH  44  46
ATOM     46  C   UNL     1      59.990  36.547  66.169  0.00  0.00    +0.000 C 
ATOM     47  C   UNL     1      60.610  37.523  65.849  0.00  0.00    +0.000 C 
ATOM     48  C   UNL     1      61.401  38.811  65.580  0.00  0.00    +0.000 C 
ENDBRANCH  44  46
ENDBRANCH  42  44
ENDBRANCH  39  41
BRANCH  39  49
ATOM     49  O   UNL     1      57.033  35.897  63.228  0.00  0.00    +0.000 OA
ATOM     50  H   UNL     1      56.427  36.075  62.483  0.00  0.00    +0.000 HD
ENDBRANCH  39  49
ENDBRANCH   6  39
BRANCH   9  51
ATOM     51  C   UNL     1      51.878  35.729  63.479  0.00  0.00    +0.000 C 
BRANCH  51  52
ATOM     52  O   UNL     1      50.692  36.167  63.903  0.00  0.00    +0.000 OA
ATOM     53  H   UNL     1      50.017  35.467  63.820  0.00  0.00    +0.000 HD
ENDBRANCH  51  52
ENDBRANCH   9  51
TORSDOF 13
ENDMDL
MODEL 7
REMARK VINA RESULT:      -5.5     15.464     18.601
REMARK  Name = 101808841_CandidaspongiolideA.pdbqt.pdb
REMARK  13 active torsions:
REMARK  status: ('A' for Active; 'I' for Inactive)
REMARK    1  A    between atoms: C_6  and  C_39
REMARK    2  A    between atoms: C_9  and  O_27
REMARK    3  A    between atoms: C_9  and  C_51
REMARK    4  A    between atoms: C_10  and  O_29
REMARK    5  A    between atoms: C_14  and  O_31
REMARK    6  A    between atoms: C_15  and  O_33
REMARK    7  A    between atoms: C_20  and  O_35
REMARK    8  A    between atoms: O_35  and  C_37
REMARK    9  A    between atoms: C_39  and  C_41
REMARK   10  A    between atoms: C_39  and  O_49
REMARK   11  A    between atoms: C_42  and  C_44
REMARK   12  A    between atoms: C_44  and  C_46
REMARK   13  A    between atoms: C_51  and  O_52
REMARK                            x       y       z     vdW  Elec       q    Type
REMARK                         _______ _______ _______ _____ _____    ______ ____
ROOT
ATOM      1  O   UNL     1      63.127  48.877  55.596  0.00  0.00    +0.000 OA
ATOM      2  O   UNL     1      60.832  48.366  52.167  0.00  0.00    +0.000 OA
ATOM      3  O   UNL     1      64.857  47.560  54.825  0.00  0.00    +0.000 OA
ATOM      4  O   UNL     1      56.361  49.774  56.807  0.00  0.00    +0.000 OA
ATOM      5  O   UNL     1      61.923  51.122  56.863  0.00  0.00    +0.000 OA
ATOM      6  C   UNL     1      61.220  47.395  54.277  0.00  0.00    +0.000 C 
ATOM      7  C   UNL     1      60.382  48.149  53.294  0.00  0.00    +0.000 C 
ATOM      8  C   UNL     1      62.221  48.124  54.978  0.00  0.00    +0.000 C 
ATOM      9  C   UNL     1      59.024  48.686  53.821  0.00  0.00    +0.000 C 
ATOM     10  C   UNL     1      59.240  49.890  54.723  0.00  0.00    +0.000 C 
ATOM     11  C   UNL     1      58.376  50.203  55.812  0.00  0.00    +0.000 C 
ATOM     12  C   UNL     1      64.426  48.566  55.372  0.00  0.00    +0.000 C 
ATOM     13  C   UNL     1      57.412  50.402  56.883  0.00  0.00    +0.000 C 
ATOM     14  C   UNL     1      65.324  49.648  55.837  0.00  0.00    +0.000 C 
ATOM     15  C   UNL     1      64.894  50.817  56.576  0.00  0.00    +0.000 C 
ATOM     16  C   UNL     1      57.722  51.340  58.010  0.00  0.00    +0.000 C 
ATOM     17  C   UNL     1      64.092  50.827  57.794  0.00  0.00    +0.000 C 
ATOM     18  C   UNL     1      62.380  52.412  58.829  0.00  0.00    +0.000 C 
ATOM     19  C   UNL     1      62.731  51.445  57.736  0.00  0.00    +0.000 C 
ATOM     20  C   UNL     1      60.974  52.767  59.038  0.00  0.00    +0.000 C 
ATOM     21  C   UNL     1      58.894  52.138  58.026  0.00  0.00    +0.000 C 
ATOM     22  C   UNL     1      59.963  52.868  58.011  0.00  0.00    +0.000 C 
ATOM     23  C   UNL     1      56.814  51.523  59.208  0.00  0.00    +0.000 C 
ATOM     24  C   UNL     1      64.295  49.706  58.815  0.00  0.00    +0.000 C 
ATOM     25  C   UNL     1      63.470  53.095  59.646  0.00  0.00    +0.000 C 
ATOM     26  C   UNL     1      60.170  53.699  56.770  0.00  0.00    +0.000 C 
ENDROOT
BRANCH   9  27
ATOM     27  O   UNL     1      58.381  47.664  54.583  0.00  0.00    +0.000 OA
ATOM     28  H   UNL     1      59.070  47.228  55.117  0.00  0.00    +0.000 HD
ENDBRANCH   9  27
BRANCH  10  29
ATOM     29  O   UNL     1      60.304  50.727  54.451  0.00  0.00    +0.000 OA
ATOM     30  H   UNL     1      60.168  51.300  53.672  0.00  0.00    +0.000 HD
ENDBRANCH  10  29
BRANCH  14  31
ATOM     31  O   UNL     1      66.666  49.586  55.507  0.00  0.00    +0.000 OA
ATOM     32  H   UNL     1      66.829  48.874  54.853  0.00  0.00    +0.000 HD
ENDBRANCH  14  31
BRANCH  15  33
ATOM     33  O   UNL     1      65.700  51.928  56.393  0.00  0.00    +0.000 OA
ATOM     34  C   UNL     1      66.386  52.233  57.578  0.00  0.00    +0.000 C 
ENDBRANCH  15  33
BRANCH  20  35
ATOM     35  O   UNL     1      60.606  53.407  60.253  0.00  0.00    +0.000 OA
BRANCH  35  37
ATOM     36  O   UNL     1      58.969  55.056  60.035  0.00  0.00    +0.000 OA
ATOM     37  C   UNL     1      60.119  54.665  60.095  0.00  0.00    +0.000 C 
ATOM     38  C   UNL     1      61.157  55.711  59.918  0.00  0.00    +0.000 C 
ENDBRANCH  35  37
ENDBRANCH  20  35
BRANCH   6  39
ATOM     39  C   UNL     1      61.077  45.960  54.420  0.00  0.00    +0.000 C 
BRANCH  39  41
ATOM     40  O   UNL     1      63.164  45.309  53.107  0.00  0.00    +0.000 OA
ATOM     41  C   UNL     1      61.813  45.011  53.537  0.00  0.00    +0.000 C 
ATOM     42  C   UNL     1      63.010  44.432  54.141  0.00  0.00    +0.000 C 
ATOM     43  C   UNL     1      61.037  44.379  52.331  0.00  0.00    +0.000 C 
BRANCH  42  44
ATOM     44  C   UNL     1      63.379  43.059  53.945  0.00  0.00    +0.000 C 
ATOM     45  C   UNL     1      64.773  42.708  53.490  0.00  0.00    +0.000 C 
BRANCH  44  46
ATOM     46  C   UNL     1      62.689  42.054  54.675  0.00  0.00    +0.000 C 
ATOM     47  C   UNL     1      62.160  41.236  55.374  0.00  0.00    +0.000 C 
ATOM     48  C   UNL     1      61.583  40.219  56.370  0.00  0.00    +0.000 C 
ENDBRANCH  44  46
ENDBRANCH  42  44
ENDBRANCH  39  41
BRANCH  39  49
ATOM     49  O   UNL     1      60.506  45.545  55.614  0.00  0.00    +0.000 OA
ATOM     50  H   UNL     1      60.310  44.588  55.623  0.00  0.00    +0.000 HD
ENDBRANCH  39  49
ENDBRANCH   6  39
BRANCH   9  51
ATOM     51  C   UNL     1      58.140  49.078  52.697  0.00  0.00    +0.000 C 
BRANCH  51  52
ATOM     52  O   UNL     1      57.368  49.438  51.672  0.00  0.00    +0.000 OA
ATOM     53  H   UNL     1      56.512  48.971  51.706  0.00  0.00    +0.000 HD
ENDBRANCH  51  52
ENDBRANCH   9  51
TORSDOF 13
ENDMDL
MODEL 8
REMARK VINA RESULT:      -5.4     19.084     22.921
REMARK  Name = 101808841_CandidaspongiolideA.pdbqt.pdb
REMARK  13 active torsions:
REMARK  status: ('A' for Active; 'I' for Inactive)
REMARK    1  A    between atoms: C_6  and  C_39
REMARK    2  A    between atoms: C_9  and  O_27
REMARK    3  A    between atoms: C_9  and  C_51
REMARK    4  A    between atoms: C_10  and  O_29
REMARK    5  A    between atoms: C_14  and  O_31
REMARK    6  A    between atoms: C_15  and  O_33
REMARK    7  A    between atoms: C_20  and  O_35
REMARK    8  A    between atoms: O_35  and  C_37
REMARK    9  A    between atoms: C_39  and  C_41
REMARK   10  A    between atoms: C_39  and  O_49
REMARK   11  A    between atoms: C_42  and  C_44
REMARK   12  A    between atoms: C_44  and  C_46
REMARK   13  A    between atoms: C_51  and  O_52
REMARK                            x       y       z     vdW  Elec       q    Type
REMARK                         _______ _______ _______ _____ _____    ______ ____
ROOT
ATOM      1  O   UNL     1      54.904  47.631  85.979  0.00  0.00    +0.000 OA
ATOM      2  O   UNL     1      51.856  47.028  83.217  0.00  0.00    +0.000 OA
ATOM      3  O   UNL     1      55.259  45.377  86.316  0.00  0.00    +0.000 OA
ATOM      4  O   UNL     1      50.566  53.027  85.635  0.00  0.00    +0.000 OA
ATOM      5  O   UNL     1      55.626  50.353  85.575  0.00  0.00    +0.000 OA
ATOM      6  C   UNL     1      52.211  47.286  85.531  0.00  0.00    +0.000 C 
ATOM      7  C   UNL     1      51.711  47.756  84.201  0.00  0.00    +0.000 C 
ATOM      8  C   UNL     1      53.599  47.443  85.801  0.00  0.00    +0.000 C 
ATOM      9  C   UNL     1      51.127  49.194  84.157  0.00  0.00    +0.000 C 
ATOM     10  C   UNL     1      52.241  50.225  84.224  0.00  0.00    +0.000 C 
ATOM     11  C   UNL     1      52.071  51.507  84.824  0.00  0.00    +0.000 C 
ATOM     12  C   UNL     1      55.659  46.518  86.131  0.00  0.00    +0.000 C 
ATOM     13  C   UNL     1      51.754  52.775  85.463  0.00  0.00    +0.000 C 
ATOM     14  C   UNL     1      57.102  46.827  85.995  0.00  0.00    +0.000 C 
ATOM     15  C   UNL     1      57.652  48.161  85.873  0.00  0.00    +0.000 C 
ATOM     16  C   UNL     1      52.854  53.705  85.876  0.00  0.00    +0.000 C 
ATOM     17  C   UNL     1      57.395  49.290  86.759  0.00  0.00    +0.000 C 
ATOM     18  C   UNL     1      57.283  51.825  86.484  0.00  0.00    +0.000 C 
ATOM     19  C   UNL     1      56.684  50.480  86.194  0.00  0.00    +0.000 C 
ATOM     20  C   UNL     1      56.466  53.024  86.281  0.00  0.00    +0.000 C 
ATOM     21  C   UNL     1      54.214  53.446  85.572  0.00  0.00    +0.000 C 
ATOM     22  C   UNL     1      55.449  53.196  85.269  0.00  0.00    +0.000 C 
ATOM     23  C   UNL     1      52.608  54.993  86.633  0.00  0.00    +0.000 C 
ATOM     24  C   UNL     1      57.207  49.023  88.253  0.00  0.00    +0.000 C 
ATOM     25  C   UNL     1      58.747  51.958  86.885  0.00  0.00    +0.000 C 
ATOM     26  C   UNL     1      55.722  52.923  83.811  0.00  0.00    +0.000 C 
ENDROOT
BRANCH   9  27
ATOM     27  O   UNL     1      50.271  49.385  85.284  0.00  0.00    +0.000 OA
ATOM     28  H   UNL     1      49.798  48.545  85.429  0.00  0.00    +0.000 HD
ENDBRANCH   9  27
BRANCH  10  29
ATOM     29  O   UNL     1      53.458  49.911  83.652  0.00  0.00    +0.000 OA
ATOM     30  H   UNL     1      53.944  50.683  83.307  0.00  0.00    +0.000 HD
ENDBRANCH  10  29
BRANCH  14  31
ATOM     31  O   UNL     1      58.003  45.779  85.925  0.00  0.00    +0.000 OA
ATOM     32  H   UNL     1      58.221  45.573  84.991  0.00  0.00    +0.000 HD
ENDBRANCH  14  31
BRANCH  15  33
ATOM     33  O   UNL     1      58.852  48.215  85.184  0.00  0.00    +0.000 OA
ATOM     34  C   UNL     1      58.629  48.559  83.842  0.00  0.00    +0.000 C 
ENDBRANCH  15  33
BRANCH  20  35
ATOM     35  O   UNL     1      56.900  54.250  86.854  0.00  0.00    +0.000 OA
BRANCH  35  37
ATOM     36  O   UNL     1      55.522  54.145  88.735  0.00  0.00    +0.000 OA
ATOM     37  C   UNL     1      56.562  54.405  88.161  0.00  0.00    +0.000 C 
ATOM     38  C   UNL     1      57.612  55.036  88.999  0.00  0.00    +0.000 C 
ENDBRANCH  35  37
ENDBRANCH  20  35
BRANCH   6  39
ATOM     39  C   UNL     1      51.324  46.605  86.452  0.00  0.00    +0.000 C 
BRANCH  39  41
ATOM     40  O   UNL     1      52.371  44.323  86.896  0.00  0.00    +0.000 OA
ATOM     41  C   UNL     1      51.230  45.118  86.489  0.00  0.00    +0.000 C 
ATOM     42  C   UNL     1      51.390  44.538  87.820  0.00  0.00    +0.000 C 
ATOM     43  C   UNL     1      50.527  44.397  85.288  0.00  0.00    +0.000 C 
BRANCH  42  44
ATOM     44  C   UNL     1      50.605  43.423  88.268  0.00  0.00    +0.000 C 
ATOM     45  C   UNL     1      51.250  42.075  88.465  0.00  0.00    +0.000 C 
BRANCH  44  46
ATOM     46  C   UNL     1      49.436  43.674  89.035  0.00  0.00    +0.000 C 
ATOM     47  C   UNL     1      48.423  43.786  89.668  0.00  0.00    +0.000 C 
ATOM     48  C   UNL     1      47.088  43.800  90.426  0.00  0.00    +0.000 C 
ENDBRANCH  44  46
ENDBRANCH  42  44
ENDBRANCH  39  41
BRANCH  39  49
ATOM     49  O   UNL     1      50.850  47.387  87.495  0.00  0.00    +0.000 OA
ATOM     50  H   UNL     1      51.309  48.247  87.556  0.00  0.00    +0.000 HD
ENDBRANCH  39  49
ENDBRANCH   6  39
BRANCH   9  51
ATOM     51  C   UNL     1      50.346  49.408  82.916  0.00  0.00    +0.000 C 
BRANCH  51  52
ATOM     52  O   UNL     1      49.660  49.582  81.787  0.00  0.00    +0.000 OA
ATOM     53  H   UNL     1      48.963  48.905  81.700  0.00  0.00    +0.000 HD
ENDBRANCH  51  52
ENDBRANCH   9  51
TORSDOF 13
ENDMDL
MODEL 9
REMARK VINA RESULT:      -5.4      6.683     11.256
REMARK  Name = 101808841_CandidaspongiolideA.pdbqt.pdb
REMARK  13 active torsions:
REMARK  status: ('A' for Active; 'I' for Inactive)
REMARK    1  A    between atoms: C_6  and  C_39
REMARK    2  A    between atoms: C_9  and  O_27
REMARK    3  A    between atoms: C_9  and  C_51
REMARK    4  A    between atoms: C_10  and  O_29
REMARK    5  A    between atoms: C_14  and  O_31
REMARK    6  A    between atoms: C_15  and  O_33
REMARK    7  A    between atoms: C_20  and  O_35
REMARK    8  A    between atoms: O_35  and  C_37
REMARK    9  A    between atoms: C_39  and  C_41
REMARK   10  A    between atoms: C_39  and  O_49
REMARK   11  A    between atoms: C_42  and  C_44
REMARK   12  A    between atoms: C_44  and  C_46
REMARK   13  A    between atoms: C_51  and  O_52
REMARK                            x       y       z     vdW  Elec       q    Type
REMARK                         _______ _______ _______ _____ _____    ______ ____
ROOT
ATOM      1  O   UNL     1      53.178  31.301  62.461  0.00  0.00    +0.000 OA
ATOM      2  O   UNL     1      50.685  33.777  64.683  0.00  0.00    +0.000 OA
ATOM      3  O   UNL     1      54.010  30.212  64.316  0.00  0.00    +0.000 OA
ATOM      4  O   UNL     1      51.704  37.206  59.142  0.00  0.00    +0.000 OA
ATOM      5  O   UNL     1      52.154  31.540  59.818  0.00  0.00    +0.000 OA
ATOM      6  C   UNL     1      52.872  33.677  63.817  0.00  0.00    +0.000 C 
ATOM      7  C   UNL     1      51.480  34.225  63.855  0.00  0.00    +0.000 C 
ATOM      8  C   UNL     1      53.073  32.447  63.129  0.00  0.00    +0.000 C 
ATOM      9  C   UNL     1      51.123  35.266  62.759  0.00  0.00    +0.000 C 
ATOM     10  C   UNL     1      50.933  34.583  61.416  0.00  0.00    +0.000 C 
ATOM     11  C   UNL     1      51.230  35.222  60.176  0.00  0.00    +0.000 C 
ATOM     12  C   UNL     1      53.564  30.219  63.177  0.00  0.00    +0.000 C 
ATOM     13  C   UNL     1      51.571  35.996  58.994  0.00  0.00    +0.000 C 
ATOM     14  C   UNL     1      53.333  28.967  62.420  0.00  0.00    +0.000 C 
ATOM     15  C   UNL     1      52.901  28.905  61.039  0.00  0.00    +0.000 C 
ATOM     16  C   UNL     1      51.741  35.313  57.670  0.00  0.00    +0.000 C 
ATOM     17  C   UNL     1      53.513  29.590  59.907  0.00  0.00    +0.000 C 
ATOM     18  C   UNL     1      52.673  30.554  57.698  0.00  0.00    +0.000 C 
ATOM     19  C   UNL     1      52.707  30.632  59.196  0.00  0.00    +0.000 C 
ATOM     20  C   UNL     1      52.219  31.720  56.936  0.00  0.00    +0.000 C 
ATOM     21  C   UNL     1      51.477  33.931  57.496  0.00  0.00    +0.000 C 
ATOM     22  C   UNL     1      51.215  32.670  57.358  0.00  0.00    +0.000 C 
ATOM     23  C   UNL     1      52.190  36.034  56.418  0.00  0.00    +0.000 C 
ATOM     24  C   UNL     1      55.032  29.766  59.889  0.00  0.00    +0.000 C 
ATOM     25  C   UNL     1      53.005  29.253  56.976  0.00  0.00    +0.000 C 
ATOM     26  C   UNL     1      49.852  32.230  57.830  0.00  0.00    +0.000 C 
ENDROOT
BRANCH   9  27
ATOM     27  O   UNL     1      52.194  36.203  62.639  0.00  0.00    +0.000 OA
ATOM     28  H   UNL     1      51.812  37.031  62.293  0.00  0.00    +0.000 HD
ENDBRANCH   9  27
BRANCH  10  29
ATOM     29  O   UNL     1      50.423  33.300  61.402  0.00  0.00    +0.000 OA
ATOM     30  H   UNL     1      49.736  33.140  62.076  0.00  0.00    +0.000 HD
ENDBRANCH  10  29
BRANCH  14  31
ATOM     31  O   UNL     1      53.485  27.757  63.074  0.00  0.00    +0.000 OA
ATOM     32  H   UNL     1      52.648  27.246  63.056  0.00  0.00    +0.000 HD
ENDBRANCH  14  31
BRANCH  15  33
ATOM     33  O   UNL     1      52.195  27.757  60.720  0.00  0.00    +0.000 OA
ATOM     34  C   UNL     1      50.816  27.985  60.839  0.00  0.00    +0.000 C 
ENDBRANCH  15  33
BRANCH  20  35
ATOM     35  O   UNL     1      52.491  31.773  55.543  0.00  0.00    +0.000 OA
BRANCH  35  37
ATOM     36  O   UNL     1      54.717  32.447  55.736  0.00  0.00    +0.000 OA
ATOM     37  C   UNL     1      53.616  32.462  55.219  0.00  0.00    +0.000 C 
ATOM     38  C   UNL     1      53.454  33.414  54.093  0.00  0.00    +0.000 C 
ENDBRANCH  35  37
ENDBRANCH  20  35
BRANCH   6  39
ATOM     39  C   UNL     1      53.940  34.329  64.546  0.00  0.00    +0.000 C 
BRANCH  39  41
ATOM     40  O   UNL     1      55.323  35.466  62.730  0.00  0.00    +0.000 OA
ATOM     41  C   UNL     1      55.255  34.624  63.908  0.00  0.00    +0.000 C 
ATOM     42  C   UNL     1      55.632  36.035  63.931  0.00  0.00    +0.000 C 
ATOM     43  C   UNL     1      56.266  33.440  63.730  0.00  0.00    +0.000 C 
BRANCH  42  44
ATOM     44  C   UNL     1      56.982  36.462  64.169  0.00  0.00    +0.000 C 
ATOM     45  C   UNL     1      57.772  37.117  63.065  0.00  0.00    +0.000 C 
BRANCH  44  46
ATOM     46  C   UNL     1      57.374  36.786  65.495  0.00  0.00    +0.000 C 
ATOM     47  C   UNL     1      57.701  36.959  66.636  0.00  0.00    +0.000 C 
ATOM     48  C   UNL     1      58.083  37.042  68.120  0.00  0.00    +0.000 C 
ENDBRANCH  44  46
ENDBRANCH  42  44
ENDBRANCH  39  41
BRANCH  39  49
ATOM     49  O   UNL     1      53.550  34.953  65.722  0.00  0.00    +0.000 OA
ATOM     50  H   UNL     1      53.277  35.880  65.582  0.00  0.00    +0.000 HD
ENDBRANCH  39  49
ENDBRANCH   6  39
BRANCH   9  51
ATOM     51  C   UNL     1      49.881  35.994  63.110  0.00  0.00    +0.000 C 
BRANCH  51  52
ATOM     52  O   UNL     1      48.767  36.665  63.404  0.00  0.00    +0.000 OA
ATOM     53  H   UNL     1      48.011  36.056  63.492  0.00  0.00    +0.000 HD
ENDBRANCH  51  52
ENDBRANCH   9  51
TORSDOF 13
ENDMDL
