MODEL 1
REMARK VINA RESULT:      -7.0      0.000      0.000
REMARK  Name = 101808842_CandidaspongiolideB.pdbqt.pdb
REMARK  12 active torsions:
REMARK  status: ('A' for Active; 'I' for Inactive)
REMARK    1  A    between atoms: C_6  and  C_42
REMARK    2  A    between atoms: C_7  and  O_28
REMARK    3  A    between atoms: C_10  and  O_30
REMARK    4  A    between atoms: C_13  and  O_32
REMARK    5  A    between atoms: C_19  and  O_34
REMARK    6  A    between atoms: C_20  and  O_38
REMARK    7  A    between atoms: C_21  and  O_36
REMARK    8  A    between atoms: O_38  and  C_40
REMARK    9  A    between atoms: C_42  and  C_44
REMARK   10  A    between atoms: C_42  and  O_52
REMARK   11  A    between atoms: C_45  and  C_47
REMARK   12  A    between atoms: C_47  and  C_49
REMARK                            x       y       z     vdW  Elec       q    Type
REMARK                         _______ _______ _______ _____ _____    ______ ____
ROOT
ATOM      1  O   UNL     1      53.592  37.812  70.010  0.00  0.00    +0.000 OA
ATOM      2  O   UNL     1      59.355  38.794  73.620  0.00  0.00    +0.000 OA
ATOM      3  O   UNL     1      55.936  36.457  72.688  0.00  0.00    +0.000 OA
ATOM      4  O   UNL     1      59.207  37.596  71.654  0.00  0.00    +0.000 OA
ATOM      5  O   UNL     1      59.038  39.215  69.181  0.00  0.00    +0.000 OA
ATOM      6  C   UNL     1      56.710  38.170  74.084  0.00  0.00    +0.000 C 
ATOM      7  C   UNL     1      55.173  38.718  72.078  0.00  0.00    +0.000 C 
ATOM      8  C   UNL     1      55.936  37.668  72.914  0.00  0.00    +0.000 C 
ATOM      9  C   UNL     1      58.088  38.478  73.897  0.00  0.00    +0.000 C 
ATOM     10  C   UNL     1      56.079  39.294  70.972  0.00  0.00    +0.000 C 
ATOM     11  C   UNL     1      55.595  39.128  69.640  0.00  0.00    +0.000 C 
ATOM     12  C   UNL     1      54.117  38.089  71.221  0.00  0.00    +0.000 C 
ATOM     13  C   UNL     1      54.429  38.470  68.973  0.00  0.00    +0.000 C 
ATOM     14  C   UNL     1      54.893  37.418  67.954  0.00  0.00    +0.000 C 
ATOM     15  C   UNL     1      56.244  36.961  67.932  0.00  0.00    +0.000 C 
ATOM     16  C   UNL     1      54.059  36.837  66.818  0.00  0.00    +0.000 C 
ATOM     17  C   UNL     1      59.788  38.369  72.401  0.00  0.00    +0.000 C 
ATOM     18  C   UNL     1      57.494  36.612  67.953  0.00  0.00    +0.000 C 
ATOM     19  C   UNL     1      61.054  39.047  72.036  0.00  0.00    +0.000 C 
ATOM     20  C   UNL     1      58.470  37.236  67.089  0.00  0.00    +0.000 C 
ATOM     21  C   UNL     1      61.511  39.098  70.661  0.00  0.00    +0.000 C 
ATOM     22  C   UNL     1      59.790  37.723  67.485  0.00  0.00    +0.000 C 
ATOM     23  C   UNL     1      61.163  38.177  69.589  0.00  0.00    +0.000 C 
ATOM     24  C   UNL     1      59.919  38.438  68.798  0.00  0.00    +0.000 C 
ATOM     25  C   UNL     1      57.912  35.677  69.051  0.00  0.00    +0.000 C 
ATOM     26  C   UNL     1      60.863  37.944  66.420  0.00  0.00    +0.000 C 
ATOM     27  C   UNL     1      61.927  36.861  69.480  0.00  0.00    +0.000 C 
ENDROOT
BRANCH   7  28
ATOM     28  O   UNL     1      54.595  39.787  72.799  0.00  0.00    +0.000 OA
ATOM     29  H   UNL     1      53.982  40.233  72.186  0.00  0.00    +0.000 HD
ENDBRANCH   7  28
BRANCH  10  30
ATOM     30  O   UNL     1      57.258  39.939  71.241  0.00  0.00    +0.000 OA
ATOM     31  H   UNL     1      57.380  40.069  72.205  0.00  0.00    +0.000 HD
ENDBRANCH  10  30
BRANCH  13  32
ATOM     32  O   UNL     1      53.655  39.487  68.343  0.00  0.00    +0.000 OA
ATOM     33  H   UNL     1      53.863  39.429  67.397  0.00  0.00    +0.000 HD
ENDBRANCH  13  32
BRANCH  19  34
ATOM     34  O   UNL     1      61.783  39.782  72.951  0.00  0.00    +0.000 OA
ATOM     35  H   UNL     1      61.231  40.391  73.484  0.00  0.00    +0.000 HD
ENDBRANCH  19  34
BRANCH  21  36
ATOM     36  O   UNL     1      62.643  39.870  70.456  0.00  0.00    +0.000 OA
ATOM     37  C   UNL     1      62.553  40.584  69.249  0.00  0.00    +0.000 C 
ENDBRANCH  21  36
BRANCH  20  38
ATOM     38  O   UNL     1      58.215  37.093  65.704  0.00  0.00    +0.000 OA
BRANCH  38  40
ATOM     39  O   UNL     1      59.138  34.965  65.478  0.00  0.00    +0.000 OA
ATOM     40  C   UNL     1      58.248  35.785  65.340  0.00  0.00    +0.000 C 
ATOM     41  C   UNL     1      57.051  35.305  64.606  0.00  0.00    +0.000 C 
ENDBRANCH  38  40
ENDBRANCH  20  38
BRANCH   6  42
ATOM     42  C   UNL     1      56.098  38.114  75.393  0.00  0.00    +0.000 C 
BRANCH  42  44
ATOM     43  O   UNL     1      58.049  36.878  76.422  0.00  0.00    +0.000 OA
ATOM     44  C   UNL     1      56.662  37.288  76.493  0.00  0.00    +0.000 C 
ATOM     45  C   UNL     1      57.744  37.955  77.208  0.00  0.00    +0.000 C 
ATOM     46  C   UNL     1      55.810  36.101  77.055  0.00  0.00    +0.000 C 
BRANCH  45  47
ATOM     47  C   UNL     1      57.987  37.828  78.613  0.00  0.00    +0.000 C 
ATOM     48  C   UNL     1      58.925  36.767  79.129  0.00  0.00    +0.000 C 
BRANCH  47  49
ATOM     49  C   UNL     1      57.740  38.920  79.483  0.00  0.00    +0.000 C 
ATOM     50  C   UNL     1      57.518  39.798  80.268  0.00  0.00    +0.000 C 
ATOM     51  C   UNL     1      57.194  40.834  81.349  0.00  0.00    +0.000 C 
ENDBRANCH  47  49
ENDBRANCH  45  47
ENDBRANCH  42  44
BRANCH  42  52
ATOM     52  O   UNL     1      54.971  38.909  75.556  0.00  0.00    +0.000 OA
ATOM     53  H   UNL     1      54.261  38.676  74.923  0.00  0.00    +0.000 HD
ENDBRANCH  42  52
ENDBRANCH   6  42
TORSDOF 12
ENDMDL
MODEL 2
REMARK VINA RESULT:      -6.7      1.225      2.276
REMARK  Name = 101808842_CandidaspongiolideB.pdbqt.pdb
REMARK  12 active torsions:
REMARK  status: ('A' for Active; 'I' for Inactive)
REMARK    1  A    between atoms: C_6  and  C_42
REMARK    2  A    between atoms: C_7  and  O_28
REMARK    3  A    between atoms: C_10  and  O_30
REMARK    4  A    between atoms: C_13  and  O_32
REMARK    5  A    between atoms: C_19  and  O_34
REMARK    6  A    between atoms: C_20  and  O_38
REMARK    7  A    between atoms: C_21  and  O_36
REMARK    8  A    between atoms: O_38  and  C_40
REMARK    9  A    between atoms: C_42  and  C_44
REMARK   10  A    between atoms: C_42  and  O_52
REMARK   11  A    between atoms: C_45  and  C_47
REMARK   12  A    between atoms: C_47  and  C_49
REMARK                            x       y       z     vdW  Elec       q    Type
REMARK                         _______ _______ _______ _____ _____    ______ ____
ROOT
ATOM      1  O   UNL     1      53.546  37.856  70.010  0.00  0.00    +0.000 OA
ATOM      2  O   UNL     1      59.322  38.773  73.617  0.00  0.00    +0.000 OA
ATOM      3  O   UNL     1      55.891  36.462  72.668  0.00  0.00    +0.000 OA
ATOM      4  O   UNL     1      59.164  37.596  71.639  0.00  0.00    +0.000 OA
ATOM      5  O   UNL     1      58.997  39.243  69.184  0.00  0.00    +0.000 OA
ATOM      6  C   UNL     1      56.676  38.155  74.080  0.00  0.00    +0.000 C 
ATOM      7  C   UNL     1      55.136  38.732  72.084  0.00  0.00    +0.000 C 
ATOM      8  C   UNL     1      55.896  37.670  72.908  0.00  0.00    +0.000 C 
ATOM      9  C   UNL     1      58.055  38.459  73.894  0.00  0.00    +0.000 C 
ATOM     10  C   UNL     1      56.042  39.316  70.983  0.00  0.00    +0.000 C 
ATOM     11  C   UNL     1      55.554  39.166  69.650  0.00  0.00    +0.000 C 
ATOM     12  C   UNL     1      54.076  38.117  71.223  0.00  0.00    +0.000 C 
ATOM     13  C   UNL     1      54.384  38.521  68.978  0.00  0.00    +0.000 C 
ATOM     14  C   UNL     1      54.842  37.478  67.948  0.00  0.00    +0.000 C 
ATOM     15  C   UNL     1      56.191  37.015  67.917  0.00  0.00    +0.000 C 
ATOM     16  C   UNL     1      54.002  36.913  66.807  0.00  0.00    +0.000 C 
ATOM     17  C   UNL     1      59.751  38.359  72.393  0.00  0.00    +0.000 C 
ATOM     18  C   UNL     1      57.438  36.661  67.931  0.00  0.00    +0.000 C 
ATOM     19  C   UNL     1      61.019  39.035  72.032  0.00  0.00    +0.000 C 
ATOM     20  C   UNL     1      58.415  37.289  67.072  0.00  0.00    +0.000 C 
ATOM     21  C   UNL     1      61.473  39.099  70.656  0.00  0.00    +0.000 C 
ATOM     22  C   UNL     1      59.738  37.766  67.470  0.00  0.00    +0.000 C 
ATOM     23  C   UNL     1      61.118  38.191  69.576  0.00  0.00    +0.000 C 
ATOM     24  C   UNL     1      59.874  38.466  68.790  0.00  0.00    +0.000 C 
ATOM     25  C   UNL     1      57.855  35.712  69.019  0.00  0.00    +0.000 C 
ATOM     26  C   UNL     1      60.809  37.994  66.405  0.00  0.00    +0.000 C 
ATOM     27  C   UNL     1      61.876  36.874  69.451  0.00  0.00    +0.000 C 
ENDROOT
BRANCH   7  28
ATOM     28  O   UNL     1      54.565  39.795  72.819  0.00  0.00    +0.000 OA
ATOM     29  H   UNL     1      53.636  39.549  72.982  0.00  0.00    +0.000 HD
ENDBRANCH   7  28
BRANCH  10  30
ATOM     30  O   UNL     1      57.225  39.952  71.256  0.00  0.00    +0.000 OA
ATOM     31  H   UNL     1      57.295  40.179  72.207  0.00  0.00    +0.000 HD
ENDBRANCH  10  30
BRANCH  13  32
ATOM     32  O   UNL     1      53.613  39.548  68.362  0.00  0.00    +0.000 OA
ATOM     33  H   UNL     1      54.127  40.365  68.474  0.00  0.00    +0.000 HD
ENDBRANCH  13  32
BRANCH  19  34
ATOM     34  O   UNL     1      61.753  39.757  72.954  0.00  0.00    +0.000 OA
ATOM     35  H   UNL     1      62.681  39.903  72.677  0.00  0.00    +0.000 HD
ENDBRANCH  19  34
BRANCH  21  36
ATOM     36  O   UNL     1      62.608  39.868  70.458  0.00  0.00    +0.000 OA
ATOM     37  C   UNL     1      62.523  40.586  69.252  0.00  0.00    +0.000 C 
ENDBRANCH  21  36
BRANCH  20  38
ATOM     38  O   UNL     1      58.156  37.162  65.687  0.00  0.00    +0.000 OA
BRANCH  38  40
ATOM     39  O   UNL     1      59.116  35.057  65.408  0.00  0.00    +0.000 OA
ATOM     40  C   UNL     1      58.207  35.860  65.303  0.00  0.00    +0.000 C 
ATOM     41  C   UNL     1      57.003  35.366  64.592  0.00  0.00    +0.000 C 
ENDBRANCH  38  40
ENDBRANCH  20  38
BRANCH   6  42
ATOM     42  C   UNL     1      56.067  38.088  75.390  0.00  0.00    +0.000 C 
BRANCH  42  44
ATOM     43  O   UNL     1      55.803  36.419  77.271  0.00  0.00    +0.000 OA
ATOM     44  C   UNL     1      56.660  37.293  76.497  0.00  0.00    +0.000 C 
ATOM     45  C   UNL     1      56.558  35.853  76.281  0.00  0.00    +0.000 C 
ATOM     46  C   UNL     1      57.680  37.987  77.460  0.00  0.00    +0.000 C 
BRANCH  45  47
ATOM     47  C   UNL     1      57.551  34.901  76.679  0.00  0.00    +0.000 C 
ATOM     48  C   UNL     1      57.258  33.914  77.780  0.00  0.00    +0.000 C 
BRANCH  47  49
ATOM     49  C   UNL     1      58.608  34.558  75.798  0.00  0.00    +0.000 C 
ATOM     50  C   UNL     1      59.531  34.327  75.070  0.00  0.00    +0.000 C 
ATOM     51  C   UNL     1      60.748  34.147  74.158  0.00  0.00    +0.000 C 
ENDBRANCH  47  49
ENDBRANCH  45  47
ENDBRANCH  42  44
BRANCH  42  52
ATOM     52  O   UNL     1      54.911  38.842  75.548  0.00  0.00    +0.000 OA
ATOM     53  H   UNL     1      54.142  38.290  75.798  0.00  0.00    +0.000 HD
ENDBRANCH  42  52
ENDBRANCH   6  42
TORSDOF 12
ENDMDL
MODEL 3
REMARK VINA RESULT:      -6.6      8.265     13.803
REMARK  Name = 101808842_CandidaspongiolideB.pdbqt.pdb
REMARK  12 active torsions:
REMARK  status: ('A' for Active; 'I' for Inactive)
REMARK    1  A    between atoms: C_6  and  C_42
REMARK    2  A    between atoms: C_7  and  O_28
REMARK    3  A    between atoms: C_10  and  O_30
REMARK    4  A    between atoms: C_13  and  O_32
REMARK    5  A    between atoms: C_19  and  O_34
REMARK    6  A    between atoms: C_20  and  O_38
REMARK    7  A    between atoms: C_21  and  O_36
REMARK    8  A    between atoms: O_38  and  C_40
REMARK    9  A    between atoms: C_42  and  C_44
REMARK   10  A    between atoms: C_42  and  O_52
REMARK   11  A    between atoms: C_45  and  C_47
REMARK   12  A    between atoms: C_47  and  C_49
REMARK                            x       y       z     vdW  Elec       q    Type
REMARK                         _______ _______ _______ _____ _____    ______ ____
ROOT
ATOM      1  O   UNL     1      51.303  33.335  58.034  0.00  0.00    +0.000 OA
ATOM      2  O   UNL     1      50.760  36.214  64.249  0.00  0.00    +0.000 OA
ATOM      3  O   UNL     1      49.279  33.603  61.249  0.00  0.00    +0.000 OA
ATOM      4  O   UNL     1      51.762  34.183  63.809  0.00  0.00    +0.000 OA
ATOM      5  O   UNL     1      54.480  34.328  62.643  0.00  0.00    +0.000 OA
ATOM      6  C   UNL     1      49.193  35.812  62.017  0.00  0.00    +0.000 C 
ATOM      7  C   UNL     1      50.567  35.217  59.909  0.00  0.00    +0.000 C 
ATOM      8  C   UNL     1      49.654  34.761  61.067  0.00  0.00    +0.000 C 
ATOM      9  C   UNL     1      49.956  36.035  63.199  0.00  0.00    +0.000 C 
ATOM     10  C   UNL     1      52.047  35.190  60.339  0.00  0.00    +0.000 C 
ATOM     11  C   UNL     1      52.895  34.357  59.550  0.00  0.00    +0.000 C 
ATOM     12  C   UNL     1      50.618  34.204  58.807  0.00  0.00    +0.000 C 
ATOM     13  C   UNL     1      52.740  33.410  58.403  0.00  0.00    +0.000 C 
ATOM     14  C   UNL     1      53.244  32.007  58.770  0.00  0.00    +0.000 C 
ATOM     15  C   UNL     1      53.508  31.650  60.126  0.00  0.00    +0.000 C 
ATOM     16  C   UNL     1      53.621  30.901  57.789  0.00  0.00    +0.000 C 
ATOM     17  C   UNL     1      51.706  35.249  64.406  0.00  0.00    +0.000 C 
ATOM     18  C   UNL     1      53.754  31.406  61.376  0.00  0.00    +0.000 C 
ATOM     19  C   UNL     1      52.750  35.696  65.359  0.00  0.00    +0.000 C 
ATOM     20  C   UNL     1      55.081  31.544  61.930  0.00  0.00    +0.000 C 
ATOM     21  C   UNL     1      54.054  35.064  65.399  0.00  0.00    +0.000 C 
ATOM     22  C   UNL     1      55.430  32.212  63.182  0.00  0.00    +0.000 C 
ATOM     23  C   UNL     1      54.385  33.716  64.961  0.00  0.00    +0.000 C 
ATOM     24  C   UNL     1      54.732  33.496  63.522  0.00  0.00    +0.000 C 
ATOM     25  C   UNL     1      52.563  31.168  62.260  0.00  0.00    +0.000 C 
ATOM     26  C   UNL     1      56.769  31.906  63.852  0.00  0.00    +0.000 C 
ATOM     27  C   UNL     1      54.123  32.554  65.914  0.00  0.00    +0.000 C 
ENDROOT
BRANCH   7  28
ATOM     28  O   UNL     1      50.276  36.482  59.349  0.00  0.00    +0.000 OA
ATOM     29  H   UNL     1      49.364  36.698  59.616  0.00  0.00    +0.000 HD
ENDBRANCH   7  28
BRANCH  10  30
ATOM     30  O   UNL     1      52.526  35.925  61.392  0.00  0.00    +0.000 OA
ATOM     31  H   UNL     1      53.502  36.009  61.353  0.00  0.00    +0.000 HD
ENDBRANCH  10  30
BRANCH  13  32
ATOM     32  O   UNL     1      53.465  33.943  57.297  0.00  0.00    +0.000 OA
ATOM     33  H   UNL     1      52.843  34.522  56.829  0.00  0.00    +0.000 HD
ENDBRANCH  13  32
BRANCH  19  34
ATOM     34  O   UNL     1      52.588  36.819  66.149  0.00  0.00    +0.000 OA
ATOM     35  H   UNL     1      52.880  36.684  67.074  0.00  0.00    +0.000 HD
ENDBRANCH  19  34
BRANCH  21  36
ATOM     36  O   UNL     1      54.963  35.668  66.252  0.00  0.00    +0.000 OA
ATOM     37  C   UNL     1      55.992  36.294  65.527  0.00  0.00    +0.000 C 
ENDBRANCH  21  36
BRANCH  20  38
ATOM     38  O   UNL     1      56.061  30.714  61.337  0.00  0.00    +0.000 OA
BRANCH  38  40
ATOM     39  O   UNL     1      55.600  28.794  62.575  0.00  0.00    +0.000 OA
ATOM     40  C   UNL     1      55.766  29.403  61.534  0.00  0.00    +0.000 C 
ATOM     41  C   UNL     1      55.704  28.580  60.301  0.00  0.00    +0.000 C 
ENDBRANCH  38  40
ENDBRANCH  20  38
BRANCH   6  42
ATOM     42  C   UNL     1      47.888  36.402  61.814  0.00  0.00    +0.000 C 
BRANCH  42  44
ATOM     43  O   UNL     1      45.410  36.565  62.290  0.00  0.00    +0.000 OA
ATOM     44  C   UNL     1      46.690  35.945  62.567  0.00  0.00    +0.000 C 
ATOM     45  C   UNL     1      45.669  35.354  61.707  0.00  0.00    +0.000 C 
ATOM     46  C   UNL     1      46.815  35.706  64.108  0.00  0.00    +0.000 C 
BRANCH  45  47
ATOM     47  C   UNL     1      44.831  34.256  62.082  0.00  0.00    +0.000 C 
ATOM     48  C   UNL     1      43.687  34.466  63.041  0.00  0.00    +0.000 C 
BRANCH  47  49
ATOM     49  C   UNL     1      44.754  33.102  61.261  0.00  0.00    +0.000 C 
ATOM     50  C   UNL     1      44.661  32.166  60.518  0.00  0.00    +0.000 C 
ATOM     51  C   UNL     1      44.475  31.043  59.495  0.00  0.00    +0.000 C 
ENDBRANCH  47  49
ENDBRANCH  45  47
ENDBRANCH  42  44
BRANCH  42  52
ATOM     52  O   UNL     1      47.842  37.440  60.893  0.00  0.00    +0.000 OA
ATOM     53  H   UNL     1      47.446  38.251  61.272  0.00  0.00    +0.000 HD
ENDBRANCH  42  52
ENDBRANCH   6  42
TORSDOF 12
ENDMDL
MODEL 4
REMARK VINA RESULT:      -6.5     30.803     35.340
REMARK  Name = 101808842_CandidaspongiolideB.pdbqt.pdb
REMARK  12 active torsions:
REMARK  status: ('A' for Active; 'I' for Inactive)
REMARK    1  A    between atoms: C_6  and  C_42
REMARK    2  A    between atoms: C_7  and  O_28
REMARK    3  A    between atoms: C_10  and  O_30
REMARK    4  A    between atoms: C_13  and  O_32
REMARK    5  A    between atoms: C_19  and  O_34
REMARK    6  A    between atoms: C_20  and  O_38
REMARK    7  A    between atoms: C_21  and  O_36
REMARK    8  A    between atoms: O_38  and  C_40
REMARK    9  A    between atoms: C_42  and  C_44
REMARK   10  A    between atoms: C_42  and  O_52
REMARK   11  A    between atoms: C_45  and  C_47
REMARK   12  A    between atoms: C_47  and  C_49
REMARK                            x       y       z     vdW  Elec       q    Type
REMARK                         _______ _______ _______ _____ _____    ______ ____
ROOT
ATOM      1  O   UNL     1      58.029  69.430  87.603  0.00  0.00    +0.000 OA
ATOM      2  O   UNL     1      54.822  69.349  81.527  0.00  0.00    +0.000 OA
ATOM      3  O   UNL     1      54.692  69.469  85.768  0.00  0.00    +0.000 OA
ATOM      4  O   UNL     1      55.392  71.250  82.702  0.00  0.00    +0.000 OA
ATOM      5  O   UNL     1      58.244  72.034  82.554  0.00  0.00    +0.000 OA
ATOM      6  C   UNL     1      54.713  68.012  83.935  0.00  0.00    +0.000 C 
ATOM      7  C   UNL     1      56.841  68.335  85.370  0.00  0.00    +0.000 C 
ATOM      8  C   UNL     1      55.363  68.686  85.094  0.00  0.00    +0.000 C 
ATOM      9  C   UNL     1      54.720  68.679  82.677  0.00  0.00    +0.000 C 
ATOM     10  C   UNL     1      57.779  69.259  84.567  0.00  0.00    +0.000 C 
ATOM     11  C   UNL     1      58.699  70.019  85.348  0.00  0.00    +0.000 C 
ATOM     12  C   UNL     1      57.257  68.717  86.757  0.00  0.00    +0.000 C 
ATOM     13  C   UNL     1      58.991  70.229  86.801  0.00  0.00    +0.000 C 
ATOM     14  C   UNL     1      58.862  71.711  87.183  0.00  0.00    +0.000 C 
ATOM     15  C   UNL     1      58.238  72.647  86.305  0.00  0.00    +0.000 C 
ATOM     16  C   UNL     1      59.448  72.374  88.426  0.00  0.00    +0.000 C 
ATOM     17  C   UNL     1      55.266  70.629  81.657  0.00  0.00    +0.000 C 
ATOM     18  C   UNL     1      57.684  73.445  85.446  0.00  0.00    +0.000 C 
ATOM     19  C   UNL     1      55.676  71.172  80.341  0.00  0.00    +0.000 C 
ATOM     20  C   UNL     1      58.469  74.213  84.508  0.00  0.00    +0.000 C 
ATOM     21  C   UNL     1      56.548  72.326  80.240  0.00  0.00    +0.000 C 
ATOM     22  C   UNL     1      58.211  74.357  83.077  0.00  0.00    +0.000 C 
ATOM     23  C   UNL     1      56.740  73.365  81.240  0.00  0.00    +0.000 C 
ATOM     24  C   UNL     1      57.764  73.147  82.310  0.00  0.00    +0.000 C 
ATOM     25  C   UNL     1      56.187  73.383  85.339  0.00  0.00    +0.000 C 
ATOM     26  C   UNL     1      58.837  75.520  82.310  0.00  0.00    +0.000 C 
ATOM     27  C   UNL     1      55.732  74.507  81.310  0.00  0.00    +0.000 C 
ENDROOT
BRANCH   7  28
ATOM     28  O   UNL     1      57.214  66.992  85.137  0.00  0.00    +0.000 OA
ATOM     29  H   UNL     1      57.824  66.747  85.857  0.00  0.00    +0.000 HD
ENDBRANCH   7  28
BRANCH  10  30
ATOM     30  O   UNL     1      57.749  69.337  83.199  0.00  0.00    +0.000 OA
ATOM     31  H   UNL     1      57.790  70.268  82.896  0.00  0.00    +0.000 HD
ENDBRANCH  10  30
BRANCH  13  32
ATOM     32  O   UNL     1      60.306  69.746  87.056  0.00  0.00    +0.000 OA
ATOM     33  H   UNL     1      60.370  69.652  88.020  0.00  0.00    +0.000 HD
ENDBRANCH  13  32
BRANCH  19  34
ATOM     34  O   UNL     1      55.371  70.529  79.155  0.00  0.00    +0.000 OA
ATOM     35  H   UNL     1      56.118  70.004  78.799  0.00  0.00    +0.000 HD
ENDBRANCH  19  34
BRANCH  21  36
ATOM     36  O   UNL     1      56.942  72.641  78.950  0.00  0.00    +0.000 OA
ATOM     37  C   UNL     1      58.300  73.006  78.916  0.00  0.00    +0.000 C 
ENDBRANCH  21  36
BRANCH  20  38
ATOM     38  O   UNL     1      59.388  75.114  85.099  0.00  0.00    +0.000 OA
BRANCH  38  40
ATOM     39  O   UNL     1      57.948  76.922  85.394  0.00  0.00    +0.000 OA
ATOM     40  C   UNL     1      58.735  76.083  85.792  0.00  0.00    +0.000 C 
ATOM     41  C   UNL     1      59.086  76.174  87.230  0.00  0.00    +0.000 C 
ENDBRANCH  38  40
ENDBRANCH  20  38
BRANCH   6  42
ATOM     42  C   UNL     1      53.921  66.828  84.181  0.00  0.00    +0.000 C 
BRANCH  42  44
ATOM     43  O   UNL     1      52.895  64.685  83.316  0.00  0.00    +0.000 OA
ATOM     44  C   UNL     1      53.986  65.637  83.293  0.00  0.00    +0.000 C 
ATOM     45  C   UNL     1      52.913  65.606  82.305  0.00  0.00    +0.000 C 
ATOM     46  C   UNL     1      55.337  64.857  83.177  0.00  0.00    +0.000 C 
BRANCH  45  47
ATOM     47  C   UNL     1      53.054  65.108  80.970  0.00  0.00    +0.000 C 
ATOM     48  C   UNL     1      52.339  63.849  80.550  0.00  0.00    +0.000 C 
BRANCH  47  49
ATOM     49  C   UNL     1      53.464  65.973  79.924  0.00  0.00    +0.000 C 
ATOM     50  C   UNL     1      53.823  66.648  79.001  0.00  0.00    +0.000 C 
ATOM     51  C   UNL     1      54.320  67.408  77.768  0.00  0.00    +0.000 C 
ENDBRANCH  47  49
ENDBRANCH  45  47
ENDBRANCH  42  44
BRANCH  42  52
ATOM     52  O   UNL     1      53.124  66.870  85.318  0.00  0.00    +0.000 OA
ATOM     53  H   UNL     1      52.299  66.355  85.209  0.00  0.00    +0.000 HD
ENDBRANCH  42  52
ENDBRANCH   6  42
TORSDOF 12
ENDMDL
MODEL 5
REMARK VINA RESULT:      -6.4     25.598     28.105
REMARK  Name = 101808842_CandidaspongiolideB.pdbqt.pdb
REMARK  12 active torsions:
REMARK  status: ('A' for Active; 'I' for Inactive)
REMARK    1  A    between atoms: C_6  and  C_42
REMARK    2  A    between atoms: C_7  and  O_28
REMARK    3  A    between atoms: C_10  and  O_30
REMARK    4  A    between atoms: C_13  and  O_32
REMARK    5  A    between atoms: C_19  and  O_34
REMARK    6  A    between atoms: C_20  and  O_38
REMARK    7  A    between atoms: C_21  and  O_36
REMARK    8  A    between atoms: O_38  and  C_40
REMARK    9  A    between atoms: C_42  and  C_44
REMARK   10  A    between atoms: C_42  and  O_52
REMARK   11  A    between atoms: C_45  and  C_47
REMARK   12  A    between atoms: C_47  and  C_49
REMARK                            x       y       z     vdW  Elec       q    Type
REMARK                         _______ _______ _______ _____ _____    ______ ____
ROOT
ATOM      1  O   UNL     1      57.551  64.273  62.169  0.00  0.00    +0.000 OA
ATOM      2  O   UNL     1      55.794  64.154  68.810  0.00  0.00    +0.000 OA
ATOM      3  O   UNL     1      57.321  62.208  65.360  0.00  0.00    +0.000 OA
ATOM      4  O   UNL     1      57.909  64.602  68.003  0.00  0.00    +0.000 OA
ATOM      5  O   UNL     1      58.307  67.323  66.907  0.00  0.00    +0.000 OA
ATOM      6  C   UNL     1      55.346  62.671  66.530  0.00  0.00    +0.000 C 
ATOM      7  C   UNL     1      55.907  63.958  64.358  0.00  0.00    +0.000 C 
ATOM      8  C   UNL     1      56.296  62.890  65.403  0.00  0.00    +0.000 C 
ATOM      9  C   UNL     1      55.556  63.395  67.739  0.00  0.00    +0.000 C 
ATOM     10  C   UNL     1      56.414  65.349  64.787  0.00  0.00    +0.000 C 
ATOM     11  C   UNL     1      57.292  65.989  63.863  0.00  0.00    +0.000 C 
ATOM     12  C   UNL     1      56.681  63.802  63.085  0.00  0.00    +0.000 C 
ATOM     13  C   UNL     1      57.939  65.654  62.556  0.00  0.00    +0.000 C 
ATOM     14  C   UNL     1      59.469  65.742  62.656  0.00  0.00    +0.000 C 
ATOM     15  C   UNL     1      60.121  65.822  63.923  0.00  0.00    +0.000 C 
ATOM     16  C   UNL     1      60.441  65.867  61.488  0.00  0.00    +0.000 C 
ATOM     17  C   UNL     1      56.994  64.798  68.790  0.00  0.00    +0.000 C 
ATOM     18  C   UNL     1      60.643  65.919  65.106  0.00  0.00    +0.000 C 
ATOM     19  C   UNL     1      57.027  65.865  69.817  0.00  0.00    +0.000 C 
ATOM     20  C   UNL     1      60.974  67.200  65.687  0.00  0.00    +0.000 C 
ATOM     21  C   UNL     1      57.988  66.948  69.748  0.00  0.00    +0.000 C 
ATOM     22  C   UNL     1      60.662  67.641  67.045  0.00  0.00    +0.000 C 
ATOM     23  C   UNL     1      59.274  66.932  69.067  0.00  0.00    +0.000 C 
ATOM     24  C   UNL     1      59.319  67.292  67.615  0.00  0.00    +0.000 C 
ATOM     25  C   UNL     1      60.700  64.658  65.921  0.00  0.00    +0.000 C 
ATOM     26  C   UNL     1      61.437  68.807  67.656  0.00  0.00    +0.000 C 
ATOM     27  C   UNL     1      60.471  66.314  69.782  0.00  0.00    +0.000 C 
ENDROOT
BRANCH   7  28
ATOM     28  O   UNL     1      54.532  64.049  64.045  0.00  0.00    +0.000 OA
ATOM     29  H   UNL     1      54.428  64.842  63.488  0.00  0.00    +0.000 HD
ENDBRANCH   7  28
BRANCH  10  30
ATOM     30  O   UNL     1      56.039  65.944  65.964  0.00  0.00    +0.000 OA
ATOM     31  H   UNL     1      55.779  66.878  65.822  0.00  0.00    +0.000 HD
ENDBRANCH  10  30
BRANCH  13  32
ATOM     32  O   UNL     1      57.436  66.559  61.576  0.00  0.00    +0.000 OA
ATOM     33  H   UNL     1      57.306  67.402  62.039  0.00  0.00    +0.000 HD
ENDBRANCH  13  32
BRANCH  19  34
ATOM     34  O   UNL     1      56.063  65.963  70.804  0.00  0.00    +0.000 OA
ATOM     35  H   UNL     1      55.281  66.485  70.528  0.00  0.00    +0.000 HD
ENDBRANCH  19  34
BRANCH  21  36
ATOM     36  O   UNL     1      57.819  67.934  70.707  0.00  0.00    +0.000 OA
ATOM     37  C   UNL     1      57.309  69.111  70.131  0.00  0.00    +0.000 C 
ENDBRANCH  21  36
BRANCH  20  38
ATOM     38  O   UNL     1      61.921  67.956  64.956  0.00  0.00    +0.000 OA
BRANCH  38  40
ATOM     39  O   UNL     1      63.872  67.085  65.885  0.00  0.00    +0.000 OA
ATOM     40  C   UNL     1      63.132  67.340  64.954  0.00  0.00    +0.000 C 
ATOM     41  C   UNL     1      63.657  66.990  63.611  0.00  0.00    +0.000 C 
ENDBRANCH  38  40
ENDBRANCH  20  38
BRANCH   6  42
ATOM     42  C   UNL     1      54.396  61.585  66.432  0.00  0.00    +0.000 C 
BRANCH  42  44
ATOM     43  O   UNL     1      52.108  60.712  67.059  0.00  0.00    +0.000 OA
ATOM     44  C   UNL     1      52.933  61.802  66.580  0.00  0.00    +0.000 C 
ATOM     45  C   UNL     1      52.476  61.673  67.960  0.00  0.00    +0.000 C 
ATOM     46  C   UNL     1      52.165  62.559  65.446  0.00  0.00    +0.000 C 
BRANCH  45  47
ATOM     47  C   UNL     1      51.430  62.457  68.544  0.00  0.00    +0.000 C 
ATOM     48  C   UNL     1      50.087  61.836  68.832  0.00  0.00    +0.000 C 
BRANCH  47  49
ATOM     49  C   UNL     1      51.738  63.640  69.263  0.00  0.00    +0.000 C 
ATOM     50  C   UNL     1      52.043  64.655  69.821  0.00  0.00    +0.000 C 
ATOM     51  C   UNL     1      52.525  65.964  70.454  0.00  0.00    +0.000 C 
ENDBRANCH  47  49
ENDBRANCH  45  47
ENDBRANCH  42  44
BRANCH  42  52
ATOM     52  O   UNL     1      54.944  60.339  66.158  0.00  0.00    +0.000 OA
ATOM     53  H   UNL     1      54.338  59.609  66.400  0.00  0.00    +0.000 HD
ENDBRANCH  42  52
ENDBRANCH   6  42
TORSDOF 12
ENDMDL
MODEL 6
REMARK VINA RESULT:      -6.3     20.702     25.706
REMARK  Name = 101808842_CandidaspongiolideB.pdbqt.pdb
REMARK  12 active torsions:
REMARK  status: ('A' for Active; 'I' for Inactive)
REMARK    1  A    between atoms: C_6  and  C_42
REMARK    2  A    between atoms: C_7  and  O_28
REMARK    3  A    between atoms: C_10  and  O_30
REMARK    4  A    between atoms: C_13  and  O_32
REMARK    5  A    between atoms: C_19  and  O_34
REMARK    6  A    between atoms: C_20  and  O_38
REMARK    7  A    between atoms: C_21  and  O_36
REMARK    8  A    between atoms: O_38  and  C_40
REMARK    9  A    between atoms: C_42  and  C_44
REMARK   10  A    between atoms: C_42  and  O_52
REMARK   11  A    between atoms: C_45  and  C_47
REMARK   12  A    between atoms: C_47  and  C_49
REMARK                            x       y       z     vdW  Elec       q    Type
REMARK                         _______ _______ _______ _____ _____    ______ ____
ROOT
ATOM      1  O   UNL     1      51.198  63.082  79.968  0.00  0.00    +0.000 OA
ATOM      2  O   UNL     1      52.156  56.846  82.689  0.00  0.00    +0.000 OA
ATOM      3  O   UNL     1      52.354  59.501  79.383  0.00  0.00    +0.000 OA
ATOM      4  O   UNL     1      53.761  58.499  82.558  0.00  0.00    +0.000 OA
ATOM      5  O   UNL     1      53.525  60.668  84.559  0.00  0.00    +0.000 OA
ATOM      6  C   UNL     1      50.960  57.969  80.474  0.00  0.00    +0.000 C 
ATOM      7  C   UNL     1      50.552  60.511  80.723  0.00  0.00    +0.000 C 
ATOM      8  C   UNL     1      51.383  59.355  80.127  0.00  0.00    +0.000 C 
ATOM      9  C   UNL     1      51.573  57.338  81.595  0.00  0.00    +0.000 C 
ATOM     10  C   UNL     1      51.093  60.911  82.110  0.00  0.00    +0.000 C 
ATOM     11  C   UNL     1      51.502  62.273  82.234  0.00  0.00    +0.000 C 
ATOM     12  C   UNL     1      50.782  61.799  79.993  0.00  0.00    +0.000 C 
ATOM     13  C   UNL     1      51.614  63.468  81.341  0.00  0.00    +0.000 C 
ATOM     14  C   UNL     1      53.055  63.999  81.304  0.00  0.00    +0.000 C 
ATOM     15  C   UNL     1      54.139  63.225  81.814  0.00  0.00    +0.000 C 
ATOM     16  C   UNL     1      53.489  65.390  80.852  0.00  0.00    +0.000 C 
ATOM     17  C   UNL     1      53.210  57.578  83.144  0.00  0.00    +0.000 C 
ATOM     18  C   UNL     1      55.070  62.477  82.321  0.00  0.00    +0.000 C 
ATOM     19  C   UNL     1      53.568  57.170  84.523  0.00  0.00    +0.000 C 
ATOM     20  C   UNL     1      55.515  62.641  83.686  0.00  0.00    +0.000 C 
ATOM     21  C   UNL     1      54.355  58.032  85.383  0.00  0.00    +0.000 C 
ATOM     22  C   UNL     1      55.725  61.573  84.661  0.00  0.00    +0.000 C 
ATOM     23  C   UNL     1      55.276  59.078  84.965  0.00  0.00    +0.000 C 
ATOM     24  C   UNL     1      54.732  60.449  84.709  0.00  0.00    +0.000 C 
ATOM     25  C   UNL     1      55.520  61.309  81.491  0.00  0.00    +0.000 C 
ATOM     26  C   UNL     1      56.598  61.833  85.888  0.00  0.00    +0.000 C 
ATOM     27  C   UNL     1      56.694  58.685  84.564  0.00  0.00    +0.000 C 
ENDROOT
BRANCH   7  28
ATOM     28  O   UNL     1      49.160  60.289  80.823  0.00  0.00    +0.000 OA
ATOM     29  H   UNL     1      48.762  61.141  81.078  0.00  0.00    +0.000 HD
ENDBRANCH   7  28
BRANCH  10  30
ATOM     30  O   UNL     1      51.164  60.033  83.160  0.00  0.00    +0.000 OA
ATOM     31  H   UNL     1      51.787  59.301  82.969  0.00  0.00    +0.000 HD
ENDBRANCH  10  30
BRANCH  13  32
ATOM     32  O   UNL     1      50.714  64.461  81.826  0.00  0.00    +0.000 OA
ATOM     33  H   UNL     1      50.103  64.642  81.094  0.00  0.00    +0.000 HD
ENDBRANCH  13  32
BRANCH  19  34
ATOM     34  O   UNL     1      53.056  56.026  85.105  0.00  0.00    +0.000 OA
ATOM     35  H   UNL     1      53.099  56.039  86.083  0.00  0.00    +0.000 HD
ENDBRANCH  19  34
BRANCH  21  36
ATOM     36  O   UNL     1      54.505  57.572  86.681  0.00  0.00    +0.000 OA
ATOM     37  C   UNL     1      53.827  58.403  87.590  0.00  0.00    +0.000 C 
ENDBRANCH  21  36
BRANCH  20  38
ATOM     38  O   UNL     1      56.055  63.915  83.986  0.00  0.00    +0.000 OA
BRANCH  38  40
ATOM     39  O   UNL     1      54.107  64.475  85.135  0.00  0.00    +0.000 OA
ATOM     40  C   UNL     1      55.096  64.741  84.477  0.00  0.00    +0.000 C 
ATOM     41  C   UNL     1      55.239  66.168  84.097  0.00  0.00    +0.000 C 
ENDBRANCH  38  40
ENDBRANCH  20  38
BRANCH   6  42
ATOM     42  C   UNL     1      50.118  57.250  79.544  0.00  0.00    +0.000 C 
BRANCH  42  44
ATOM     43  O   UNL     1      48.411  55.454  79.045  0.00  0.00    +0.000 OA
ATOM     44  C   UNL     1      49.024  56.354  80.000  0.00  0.00    +0.000 C 
ATOM     45  C   UNL     1      49.362  54.939  79.882  0.00  0.00    +0.000 C 
ATOM     46  C   UNL     1      47.912  56.937  80.934  0.00  0.00    +0.000 C 
BRANCH  45  47
ATOM     47  C   UNL     1      48.943  53.926  80.803  0.00  0.00    +0.000 C 
ATOM     48  C   UNL     1      47.930  52.891  80.384  0.00  0.00    +0.000 C 
BRANCH  47  49
ATOM     49  C   UNL     1      49.755  53.590  81.915  0.00  0.00    +0.000 C 
ATOM     50  C   UNL     1      50.496  53.329  82.821  0.00  0.00    +0.000 C 
ATOM     51  C   UNL     1      51.536  53.020  83.902  0.00  0.00    +0.000 C 
ENDBRANCH  47  49
ENDBRANCH  45  47
ENDBRANCH  42  44
BRANCH  42  52
ATOM     52  O   UNL     1      50.385  57.482  78.200  0.00  0.00    +0.000 OA
ATOM     53  H   UNL     1      49.565  57.562  77.671  0.00  0.00    +0.000 HD
ENDBRANCH  42  52
ENDBRANCH   6  42
TORSDOF 12
ENDMDL
MODEL 7
REMARK VINA RESULT:      -6.3     13.665     18.751
REMARK  Name = 101808842_CandidaspongiolideB.pdbqt.pdb
REMARK  12 active torsions:
REMARK  status: ('A' for Active; 'I' for Inactive)
REMARK    1  A    between atoms: C_6  and  C_42
REMARK    2  A    between atoms: C_7  and  O_28
REMARK    3  A    between atoms: C_10  and  O_30
REMARK    4  A    between atoms: C_13  and  O_32
REMARK    5  A    between atoms: C_19  and  O_34
REMARK    6  A    between atoms: C_20  and  O_38
REMARK    7  A    between atoms: C_21  and  O_36
REMARK    8  A    between atoms: O_38  and  C_40
REMARK    9  A    between atoms: C_42  and  C_44
REMARK   10  A    between atoms: C_42  and  O_52
REMARK   11  A    between atoms: C_45  and  C_47
REMARK   12  A    between atoms: C_47  and  C_49
REMARK                            x       y       z     vdW  Elec       q    Type
REMARK                         _______ _______ _______ _____ _____    ______ ____
ROOT
ATOM      1  O   UNL     1      73.146  45.846  67.688  0.00  0.00    +0.000 OA
ATOM      2  O   UNL     1      71.121  42.044  62.334  0.00  0.00    +0.000 OA
ATOM      3  O   UNL     1      74.079  44.364  64.306  0.00  0.00    +0.000 OA
ATOM      4  O   UNL     1      72.258  41.246  64.177  0.00  0.00    +0.000 OA
ATOM      5  O   UNL     1      70.625  40.864  66.617  0.00  0.00    +0.000 OA
ATOM      6  C   UNL     1      72.293  44.496  62.799  0.00  0.00    +0.000 C 
ATOM      7  C   UNL     1      72.005  45.311  65.237  0.00  0.00    +0.000 C 
ATOM      8  C   UNL     1      72.903  44.692  64.144  0.00  0.00    +0.000 C 
ATOM      9  C   UNL     1      71.701  43.234  62.505  0.00  0.00    +0.000 C 
ATOM     10  C   UNL     1      71.217  44.213  65.979  0.00  0.00    +0.000 C 
ATOM     11  C   UNL     1      71.435  44.154  67.388  0.00  0.00    +0.000 C 
ATOM     12  C   UNL     1      72.808  45.846  66.382  0.00  0.00    +0.000 C 
ATOM     13  C   UNL     1      72.296  44.852  68.393  0.00  0.00    +0.000 C 
ATOM     14  C   UNL     1      73.194  43.855  69.140  0.00  0.00    +0.000 C 
ATOM     15  C   UNL     1      73.363  42.519  68.670  0.00  0.00    +0.000 C 
ATOM     16  C   UNL     1      73.896  44.101  70.472  0.00  0.00    +0.000 C 
ATOM     17  C   UNL     1      71.407  41.134  63.306  0.00  0.00    +0.000 C 
ATOM     18  C   UNL     1      73.447  41.313  68.199  0.00  0.00    +0.000 C 
ATOM     19  C   UNL     1      70.471  39.988  63.233  0.00  0.00    +0.000 C 
ATOM     20  C   UNL     1      72.607  40.246  68.692  0.00  0.00    +0.000 C 
ATOM     21  C   UNL     1      70.280  39.099  64.363  0.00  0.00    +0.000 C 
ATOM     22  C   UNL     1      71.873  39.278  67.880  0.00  0.00    +0.000 C 
ATOM     23  C   UNL     1      71.217  38.853  65.449  0.00  0.00    +0.000 C 
ATOM     24  C   UNL     1      71.191  39.765  66.636  0.00  0.00    +0.000 C 
ATOM     25  C   UNL     1      74.313  41.125  66.986  0.00  0.00    +0.000 C 
ATOM     26  C   UNL     1      71.399  37.969  68.510  0.00  0.00    +0.000 C 
ATOM     27  C   UNL     1      72.342  37.848  65.230  0.00  0.00    +0.000 C 
ENDROOT
BRANCH   7  28
ATOM     28  O   UNL     1      71.103  46.310  64.808  0.00  0.00    +0.000 OA
ATOM     29  H   UNL     1      70.215  46.017  65.085  0.00  0.00    +0.000 HD
ENDBRANCH   7  28
BRANCH  10  30
ATOM     30  O   UNL     1      70.353  43.361  65.341  0.00  0.00    +0.000 OA
ATOM     31  H   UNL     1      70.525  42.429  65.591  0.00  0.00    +0.000 HD
ENDBRANCH  10  30
BRANCH  13  32
ATOM     32  O   UNL     1      71.438  45.546  69.295  0.00  0.00    +0.000 OA
ATOM     33  H   UNL     1      71.791  45.370  70.182  0.00  0.00    +0.000 HD
ENDBRANCH  13  32
BRANCH  19  34
ATOM     34  O   UNL     1      69.633  39.793  62.152  0.00  0.00    +0.000 OA
ATOM     35  H   UNL     1      69.725  40.484  61.464  0.00  0.00    +0.000 HD
ENDBRANCH  19  34
BRANCH  21  36
ATOM     36  O   UNL     1      69.286  38.150  64.190  0.00  0.00    +0.000 OA
ATOM     37  C   UNL     1      68.415  38.129  65.293  0.00  0.00    +0.000 C 
ENDBRANCH  21  36
BRANCH  20  38
ATOM     38  O   UNL     1      72.752  39.964  70.071  0.00  0.00    +0.000 OA
BRANCH  38  40
ATOM     39  O   UNL     1      74.625  38.589  69.889  0.00  0.00    +0.000 OA
ATOM     40  C   UNL     1      74.012  39.537  70.346  0.00  0.00    +0.000 C 
ATOM     41  C   UNL     1      74.716  40.295  71.409  0.00  0.00    +0.000 C 
ENDBRANCH  38  40
ENDBRANCH  20  38
BRANCH   6  42
ATOM     42  C   UNL     1      72.517  45.503  61.786  0.00  0.00    +0.000 C 
BRANCH  42  44
ATOM     43  O   UNL     1      73.219  45.766  59.371  0.00  0.00    +0.000 OA
ATOM     44  C   UNL     1      72.285  45.235  60.342  0.00  0.00    +0.000 C 
ATOM     45  C   UNL     1      73.354  44.453  59.730  0.00  0.00    +0.000 C 
ATOM     46  C   UNL     1      70.833  45.370  59.775  0.00  0.00    +0.000 C 
BRANCH  45  47
ATOM     47  C   UNL     1      73.157  43.472  58.705  0.00  0.00    +0.000 C 
ATOM     48  C   UNL     1      73.687  43.710  57.314  0.00  0.00    +0.000 C 
BRANCH  47  49
ATOM     49  C   UNL     1      72.888  42.123  59.049  0.00  0.00    +0.000 C 
ATOM     50  C   UNL     1      72.680  40.997  59.403  0.00  0.00    +0.000 C 
ATOM     51  C   UNL     1      72.471  39.587  59.962  0.00  0.00    +0.000 C 
ENDBRANCH  47  49
ENDBRANCH  45  47
ENDBRANCH  42  44
BRANCH  42  52
ATOM     52  O   UNL     1      72.933  46.741  62.259  0.00  0.00    +0.000 OA
ATOM     53  H   UNL     1      72.189  47.372  62.341  0.00  0.00    +0.000 HD
ENDBRANCH  42  52
ENDBRANCH   6  42
TORSDOF 12
ENDMDL
MODEL 8
REMARK VINA RESULT:      -6.2     19.384     23.634
REMARK  Name = 101808842_CandidaspongiolideB.pdbqt.pdb
REMARK  12 active torsions:
REMARK  status: ('A' for Active; 'I' for Inactive)
REMARK    1  A    between atoms: C_6  and  C_42
REMARK    2  A    between atoms: C_7  and  O_28
REMARK    3  A    between atoms: C_10  and  O_30
REMARK    4  A    between atoms: C_13  and  O_32
REMARK    5  A    between atoms: C_19  and  O_34
REMARK    6  A    between atoms: C_20  and  O_38
REMARK    7  A    between atoms: C_21  and  O_36
REMARK    8  A    between atoms: O_38  and  C_40
REMARK    9  A    between atoms: C_42  and  C_44
REMARK   10  A    between atoms: C_42  and  O_52
REMARK   11  A    between atoms: C_45  and  C_47
REMARK   12  A    between atoms: C_47  and  C_49
REMARK                            x       y       z     vdW  Elec       q    Type
REMARK                         _______ _______ _______ _____ _____    ______ ____
ROOT
ATOM      1  O   UNL     1      59.357  57.303  59.306  0.00  0.00    +0.000 OA
ATOM      2  O   UNL     1      65.158  53.687  60.004  0.00  0.00    +0.000 OA
ATOM      3  O   UNL     1      61.718  54.748  57.755  0.00  0.00    +0.000 OA
ATOM      4  O   UNL     1      64.985  55.730  58.946  0.00  0.00    +0.000 OA
ATOM      5  O   UNL     1      64.804  58.083  60.735  0.00  0.00    +0.000 OA
ATOM      6  C   UNL     1      62.514  53.243  59.361  0.00  0.00    +0.000 C 
ATOM      7  C   UNL     1      60.962  55.191  60.056  0.00  0.00    +0.000 C 
ATOM      8  C   UNL     1      61.726  54.437  58.947  0.00  0.00    +0.000 C 
ATOM      9  C   UNL     1      63.892  53.421  59.675  0.00  0.00    +0.000 C 
ATOM     10  C   UNL     1      61.861  56.263  60.704  0.00  0.00    +0.000 C 
ATOM     11  C   UNL     1      61.364  57.599  60.634  0.00  0.00    +0.000 C 
ATOM     12  C   UNL     1      59.895  56.080  59.494  0.00  0.00    +0.000 C 
ATOM     13  C   UNL     1      60.188  58.299  60.030  0.00  0.00    +0.000 C 
ATOM     14  C   UNL     1      60.638  59.393  59.050  0.00  0.00    +0.000 C 
ATOM     15  C   UNL     1      61.986  59.460  58.588  0.00  0.00    +0.000 C 
ATOM     16  C   UNL     1      59.790  60.559  58.553  0.00  0.00    +0.000 C 
ATOM     17  C   UNL     1      65.578  54.937  59.662  0.00  0.00    +0.000 C 
ATOM     18  C   UNL     1      63.233  59.475  58.233  0.00  0.00    +0.000 C 
ATOM     19  C   UNL     1      66.844  55.266  60.358  0.00  0.00    +0.000 C 
ATOM     20  C   UNL     1      64.205  60.302  58.910  0.00  0.00    +0.000 C 
ATOM     21  C   UNL     1      67.289  56.638  60.503  0.00  0.00    +0.000 C 
ATOM     22  C   UNL     1      65.531  59.886  59.361  0.00  0.00    +0.000 C 
ATOM     23  C   UNL     1      66.926  57.768  59.660  0.00  0.00    +0.000 C 
ATOM     24  C   UNL     1      65.677  58.528  59.982  0.00  0.00    +0.000 C 
ATOM     25  C   UNL     1      63.656  58.449  57.221  0.00  0.00    +0.000 C 
ATOM     26  C   UNL     1      66.596  60.942  59.652  0.00  0.00    +0.000 C 
ATOM     27  C   UNL     1      67.681  57.975  58.352  0.00  0.00    +0.000 C 
ENDROOT
BRANCH   7  28
ATOM     28  O   UNL     1      60.396  54.392  61.075  0.00  0.00    +0.000 OA
ATOM     29  H   UNL     1      60.981  54.480  61.850  0.00  0.00    +0.000 HD
ENDBRANCH   7  28
BRANCH  10  30
ATOM     30  O   UNL     1      63.046  55.961  61.322  0.00  0.00    +0.000 OA
ATOM     31  H   UNL     1      63.666  55.518  60.705  0.00  0.00    +0.000 HD
ENDBRANCH  10  30
BRANCH  13  32
ATOM     32  O   UNL     1      59.415  58.849  61.093  0.00  0.00    +0.000 OA
ATOM     33  H   UNL     1      59.523  58.238  61.840  0.00  0.00    +0.000 HD
ENDBRANCH  13  32
BRANCH  19  34
ATOM     34  O   UNL     1      67.585  54.308  61.023  0.00  0.00    +0.000 OA
ATOM     35  H   UNL     1      68.521  54.566  61.153  0.00  0.00    +0.000 HD
ENDBRANCH  19  34
BRANCH  21  36
ATOM     36  O   UNL     1      68.424  56.798  61.281  0.00  0.00    +0.000 OA
ATOM     37  C   UNL     1      68.361  57.993  62.020  0.00  0.00    +0.000 C 
ENDBRANCH  21  36
BRANCH  20  38
ATOM     38  O   UNL     1      63.937  61.691  58.866  0.00  0.00    +0.000 OA
BRANCH  38  40
ATOM     39  O   UNL     1      64.859  62.096  56.764  0.00  0.00    +0.000 OA
ATOM     40  C   UNL     1      63.963  62.147  57.586  0.00  0.00    +0.000 C 
ATOM     41  C   UNL     1      62.744  62.873  57.152  0.00  0.00    +0.000 C 
ENDBRANCH  38  40
ENDBRANCH  20  38
BRANCH   6  42
ATOM     42  C   UNL     1      61.913  51.936  59.218  0.00  0.00    +0.000 C 
BRANCH  42  44
ATOM     43  O   UNL     1      61.832  50.042  57.544  0.00  0.00    +0.000 OA
ATOM     44  C   UNL     1      62.593  50.831  58.491  0.00  0.00    +0.000 C 
ATOM     45  C   UNL     1      62.629  51.038  57.047  0.00  0.00    +0.000 C 
ATOM     46  C   UNL     1      63.550  49.883  59.288  0.00  0.00    +0.000 C 
BRANCH  45  47
ATOM     47  C   UNL     1      63.713  50.645  56.199  0.00  0.00    +0.000 C 
ATOM     48  C   UNL     1      64.950  51.502  56.101  0.00  0.00    +0.000 C 
BRANCH  47  49
ATOM     49  C   UNL     1      63.860  49.290  55.805  0.00  0.00    +0.000 C 
ATOM     50  C   UNL     1      64.044  48.145  55.503  0.00  0.00    +0.000 C 
ATOM     51  C   UNL     1      64.396  46.696  55.157  0.00  0.00    +0.000 C 
ENDBRANCH  47  49
ENDBRANCH  45  47
ENDBRANCH  42  44
BRANCH  42  52
ATOM     52  O   UNL     1      60.677  51.778  59.831  0.00  0.00    +0.000 OA
ATOM     53  H   UNL     1      60.656  52.178  60.724  0.00  0.00    +0.000 HD
ENDBRANCH  42  52
ENDBRANCH   6  42
TORSDOF 12
ENDMDL
MODEL 9
REMARK VINA RESULT:      -6.2      6.989     11.784
REMARK  Name = 101808842_CandidaspongiolideB.pdbqt.pdb
REMARK  12 active torsions:
REMARK  status: ('A' for Active; 'I' for Inactive)
REMARK    1  A    between atoms: C_6  and  C_42
REMARK    2  A    between atoms: C_7  and  O_28
REMARK    3  A    between atoms: C_10  and  O_30
REMARK    4  A    between atoms: C_13  and  O_32
REMARK    5  A    between atoms: C_19  and  O_34
REMARK    6  A    between atoms: C_20  and  O_38
REMARK    7  A    between atoms: C_21  and  O_36
REMARK    8  A    between atoms: O_38  and  C_40
REMARK    9  A    between atoms: C_42  and  C_44
REMARK   10  A    between atoms: C_42  and  O_52
REMARK   11  A    between atoms: C_45  and  C_47
REMARK   12  A    between atoms: C_47  and  C_49
REMARK                            x       y       z     vdW  Elec       q    Type
REMARK                         _______ _______ _______ _____ _____    ______ ____
ROOT
ATOM      1  O   UNL     1      51.596  36.686  67.872  0.00  0.00    +0.000 OA
ATOM      2  O   UNL     1      54.170  34.885  61.761  0.00  0.00    +0.000 OA
ATOM      3  O   UNL     1      53.484  34.055  65.866  0.00  0.00    +0.000 OA
ATOM      4  O   UNL     1      52.080  34.303  62.546  0.00  0.00    +0.000 OA
ATOM      5  O   UNL     1      50.027  36.433  62.413  0.00  0.00    +0.000 OA
ATOM      6  C   UNL     1      55.001  35.045  64.384  0.00  0.00    +0.000 C 
ATOM      7  C   UNL     1      53.459  36.518  65.848  0.00  0.00    +0.000 C 
ATOM      8  C   UNL     1      53.927  35.112  65.414  0.00  0.00    +0.000 C 
ATOM      9  C   UNL     1      54.618  34.933  63.017  0.00  0.00    +0.000 C 
ATOM     10  C   UNL     1      52.329  37.022  64.929  0.00  0.00    +0.000 C 
ATOM     11  C   UNL     1      51.105  37.342  65.590  0.00  0.00    +0.000 C 
ATOM     12  C   UNL     1      52.716  36.482  67.148  0.00  0.00    +0.000 C 
ATOM     13  C   UNL     1      50.560  37.269  66.981  0.00  0.00    +0.000 C 
ATOM     14  C   UNL     1      49.295  36.400  67.037  0.00  0.00    +0.000 C 
ATOM     15  C   UNL     1      48.933  35.555  65.946  0.00  0.00    +0.000 C 
ATOM     16  C   UNL     1      48.249  36.405  68.147  0.00  0.00    +0.000 C 
ATOM     17  C   UNL     1      52.834  34.648  61.648  0.00  0.00    +0.000 C 
ATOM     18  C   UNL     1      48.652  34.832  64.906  0.00  0.00    +0.000 C 
ATOM     19  C   UNL     1      52.368  34.954  60.275  0.00  0.00    +0.000 C 
ATOM     20  C   UNL     1      47.751  35.299  63.878  0.00  0.00    +0.000 C 
ATOM     21  C   UNL     1      50.965  35.183  59.989  0.00  0.00    +0.000 C 
ATOM     22  C   UNL     1      47.973  35.229  62.435  0.00  0.00    +0.000 C 
ATOM     23  C   UNL     1      49.827  34.705  60.760  0.00  0.00    +0.000 C 
ATOM     24  C   UNL     1      49.347  35.531  61.913  0.00  0.00    +0.000 C 
ATOM     25  C   UNL     1      49.459  33.578  64.722  0.00  0.00    +0.000 C 
ATOM     26  C   UNL     1      46.785  35.345  61.483  0.00  0.00    +0.000 C 
ATOM     27  C   UNL     1      49.333  33.281  60.527  0.00  0.00    +0.000 C 
ENDROOT
BRANCH   7  28
ATOM     28  O   UNL     1      54.462  37.510  65.925  0.00  0.00    +0.000 OA
ATOM     29  H   UNL     1      55.248  37.078  66.306  0.00  0.00    +0.000 HD
ENDBRANCH   7  28
BRANCH  10  30
ATOM     30  O   UNL     1      52.485  37.172  63.576  0.00  0.00    +0.000 OA
ATOM     31  H   UNL     1      51.639  37.421  63.146  0.00  0.00    +0.000 HD
ENDBRANCH  10  30
BRANCH  13  32
ATOM     32  O   UNL     1      50.288  38.600  67.412  0.00  0.00    +0.000 OA
ATOM     33  H   UNL     1      50.260  38.562  68.382  0.00  0.00    +0.000 HD
ENDBRANCH  13  32
BRANCH  19  34
ATOM     34  O   UNL     1      53.249  35.176  59.234  0.00  0.00    +0.000 OA
ATOM     35  H   UNL     1      53.587  34.350  58.831  0.00  0.00    +0.000 HD
ENDBRANCH  19  34
BRANCH  21  36
ATOM     36  O   UNL     1      50.697  35.579  58.688  0.00  0.00    +0.000 OA
ATOM     37  C   UNL     1      50.764  36.977  58.565  0.00  0.00    +0.000 C 
ENDBRANCH  21  36
BRANCH  20  38
ATOM     38  O   UNL     1      46.437  35.580  64.324  0.00  0.00    +0.000 OA
BRANCH  38  40
ATOM     39  O   UNL     1      46.727  37.860  63.938  0.00  0.00    +0.000 OA
ATOM     40  C   UNL     1      46.280  36.909  64.554  0.00  0.00    +0.000 C 
ATOM     41  C   UNL     1      45.508  37.250  65.774  0.00  0.00    +0.000 C 
ENDBRANCH  38  40
ENDBRANCH  20  38
BRANCH   6  42
ATOM     42  C   UNL     1      56.369  34.877  64.822  0.00  0.00    +0.000 C 
BRANCH  42  44
ATOM     43  O   UNL     1      57.169  37.120  65.672  0.00  0.00    +0.000 OA
ATOM     44  C   UNL     1      57.353  35.990  64.784  0.00  0.00    +0.000 C 
ATOM     45  C   UNL     1      58.070  36.160  66.044  0.00  0.00    +0.000 C 
ATOM     46  C   UNL     1      57.843  36.514  63.393  0.00  0.00    +0.000 C 
BRANCH  45  47
ATOM     47  C   UNL     1      59.441  36.556  66.149  0.00  0.00    +0.000 C 
ATOM     48  C   UNL     1      59.806  37.856  66.819  0.00  0.00    +0.000 C 
BRANCH  47  49
ATOM     49  C   UNL     1      60.475  35.590  66.055  0.00  0.00    +0.000 C 
ATOM     50  C   UNL     1      61.383  34.817  65.937  0.00  0.00    +0.000 C 
ATOM     51  C   UNL     1      62.590  33.905  65.702  0.00  0.00    +0.000 C 
ENDBRANCH  47  49
ENDBRANCH  45  47
ENDBRANCH  42  44
BRANCH  42  52
ATOM     52  O   UNL     1      56.686  33.615  65.309  0.00  0.00    +0.000 OA
ATOM     53  H   UNL     1      56.561  32.918  64.634  0.00  0.00    +0.000 HD
ENDBRANCH  42  52
ENDBRANCH   6  42
TORSDOF 12
ENDMDL
