MODEL 1
REMARK VINA RESULT:      -6.0      0.000      0.000
REMARK  Name = 102471178_CandidaspongiolideCore.pdbqt.pdb
REMARK  13 active torsions:
REMARK  status: ('A' for Active; 'I' for Inactive)
REMARK    1  A    between atoms: C_6  and  C_39
REMARK    2  A    between atoms: C_8  and  O_27
REMARK    3  A    between atoms: C_8  and  C_51
REMARK    4  A    between atoms: C_10  and  O_29
REMARK    5  A    between atoms: C_15  and  O_31
REMARK    6  A    between atoms: C_16  and  O_33
REMARK    7  A    between atoms: C_21  and  O_35
REMARK    8  A    between atoms: O_35  and  C_37
REMARK    9  A    between atoms: C_39  and  C_41
REMARK   10  A    between atoms: C_39  and  O_49
REMARK   11  A    between atoms: C_42  and  C_44
REMARK   12  A    between atoms: C_44  and  C_46
REMARK   13  A    between atoms: C_51  and  O_52
REMARK                            x       y       z     vdW  Elec       q    Type
REMARK                         _______ _______ _______ _____ _____    ______ ____
ROOT
ATOM      1  O   UNL     1      63.970  40.000  68.978  0.00  0.00    +0.000 OA
ATOM      2  O   UNL     1      62.716  38.340  69.951  0.00  0.00    +0.000 OA
ATOM      3  O   UNL     1      61.900  34.154  72.452  0.00  0.00    +0.000 OA
ATOM      4  O   UNL     1      62.915  41.845  69.741  0.00  0.00    +0.000 OA
ATOM      5  O   UNL     1      59.838  40.182  70.130  0.00  0.00    +0.000 OA
ATOM      6  C   UNL     1      65.061  38.037  69.552  0.00  0.00    +0.000 C 
ATOM      7  C   UNL     1      65.097  36.618  69.471  0.00  0.00    +0.000 C 
ATOM      8  C   UNL     1      65.263  35.174  69.285  0.00  0.00    +0.000 C 
ATOM      9  C   UNL     1      63.778  38.787  69.536  0.00  0.00    +0.000 C 
ATOM     10  C   UNL     1      64.965  34.397  70.549  0.00  0.00    +0.000 C 
ATOM     11  C   UNL     1      63.882  34.674  71.427  0.00  0.00    +0.000 C 
ATOM     12  C   UNL     1      62.748  35.018  72.258  0.00  0.00    +0.000 C 
ATOM     13  C   UNL     1      62.919  40.839  69.041  0.00  0.00    +0.000 C 
ATOM     14  C   UNL     1      62.606  36.398  72.814  0.00  0.00    +0.000 C 
ATOM     15  C   UNL     1      61.888  40.671  67.987  0.00  0.00    +0.000 C 
ATOM     16  C   UNL     1      61.303  39.402  67.604  0.00  0.00    +0.000 C 
ATOM     17  C   UNL     1      60.130  38.791  68.214  0.00  0.00    +0.000 C 
ATOM     18  C   UNL     1      61.314  36.941  73.016  0.00  0.00    +0.000 C 
ATOM     19  C   UNL     1      59.678  37.852  70.557  0.00  0.00    +0.000 C 
ATOM     20  C   UNL     1      63.780  37.364  72.904  0.00  0.00    +0.000 C 
ATOM     21  C   UNL     1      59.473  38.100  71.980  0.00  0.00    +0.000 C 
ATOM     22  C   UNL     1      59.855  39.041  69.662  0.00  0.00    +0.000 C 
ATOM     23  C   UNL     1      60.107  37.410  73.095  0.00  0.00    +0.000 C 
ATOM     24  C   UNL     1      59.026  38.172  67.363  0.00  0.00    +0.000 C 
ATOM     25  C   UNL     1      59.995  36.438  70.090  0.00  0.00    +0.000 C 
ATOM     26  C   UNL     1      59.420  37.243  74.426  0.00  0.00    +0.000 C 
ENDROOT
BRANCH   8  27
ATOM     27  O   UNL     1      66.639  34.983  68.948  0.00  0.00    +0.000 OA
ATOM     28  H   UNL     1      67.034  34.595  69.754  0.00  0.00    +0.000 HD
ENDBRANCH   8  27
BRANCH  10  29
ATOM     29  O   UNL     1      65.782  33.312  70.827  0.00  0.00    +0.000 OA
ATOM     30  H   UNL     1      66.394  33.114  70.094  0.00  0.00    +0.000 HD
ENDBRANCH  10  29
BRANCH  15  31
ATOM     31  O   UNL     1      61.093  41.765  67.682  0.00  0.00    +0.000 OA
ATOM     32  H   UNL     1      60.167  41.481  67.523  0.00  0.00    +0.000 HD
ENDBRANCH  15  31
BRANCH  16  33
ATOM     33  O   UNL     1      61.557  39.005  66.303  0.00  0.00    +0.000 OA
ATOM     34  C   UNL     1      62.370  37.858  66.318  0.00  0.00    +0.000 C 
ENDBRANCH  16  33
BRANCH  21  35
ATOM     35  O   UNL     1      58.415  38.997  72.272  0.00  0.00    +0.000 OA
BRANCH  35  37
ATOM     36  O   UNL     1      56.659  37.453  72.178  0.00  0.00    +0.000 OA
ATOM     37  C   UNL     1      57.194  38.514  71.909  0.00  0.00    +0.000 C 
ATOM     38  C   UNL     1      56.380  39.447  71.088  0.00  0.00    +0.000 C 
ENDBRANCH  35  37
ENDBRANCH  21  35
BRANCH   6  39
ATOM     39  C   UNL     1      66.318  38.725  69.741  0.00  0.00    +0.000 C 
BRANCH  39  41
ATOM     40  O   UNL     1      67.435  37.646  67.719  0.00  0.00    +0.000 OA
ATOM     41  C   UNL     1      67.539  38.267  69.021  0.00  0.00    +0.000 C 
ATOM     42  C   UNL     1      67.735  38.979  67.760  0.00  0.00    +0.000 C 
ATOM     43  C   UNL     1      68.695  37.584  69.834  0.00  0.00    +0.000 C 
BRANCH  42  44
ATOM     44  C   UNL     1      69.008  39.383  67.248  0.00  0.00    +0.000 C 
ATOM     45  C   UNL     1      69.716  38.536  66.215  0.00  0.00    +0.000 C 
BRANCH  44  46
ATOM     46  C   UNL     1      69.415  40.740  67.317  0.00  0.00    +0.000 C 
ATOM     47  C   UNL     1      69.803  41.874  67.362  0.00  0.00    +0.000 C 
ATOM     48  C   UNL     1      70.361  43.302  67.387  0.00  0.00    +0.000 C 
ENDBRANCH  44  46
ENDBRANCH  42  44
ENDBRANCH  39  41
BRANCH  39  49
ATOM     49  O   UNL     1      66.334  39.761  70.660  0.00  0.00    +0.000 OA
ATOM     50  H   UNL     1      65.577  39.766  71.277  0.00  0.00    +0.000 HD
ENDBRANCH  39  49
ENDBRANCH   6  39
BRANCH   8  51
ATOM     51  C   UNL     1      64.453  34.664  68.167  0.00  0.00    +0.000 C 
BRANCH  51  52
ATOM     52  O   UNL     1      63.688  34.191  67.183  0.00  0.00    +0.000 OA
ATOM     53  H   UNL     1      62.759  34.099  67.475  0.00  0.00    +0.000 HD
ENDBRANCH  51  52
ENDBRANCH   8  51
TORSDOF 13
ENDMDL
MODEL 2
REMARK VINA RESULT:      -6.0      1.775      2.608
REMARK  Name = 102471178_CandidaspongiolideCore.pdbqt.pdb
REMARK  13 active torsions:
REMARK  status: ('A' for Active; 'I' for Inactive)
REMARK    1  A    between atoms: C_6  and  C_39
REMARK    2  A    between atoms: C_8  and  O_27
REMARK    3  A    between atoms: C_8  and  C_51
REMARK    4  A    between atoms: C_10  and  O_29
REMARK    5  A    between atoms: C_15  and  O_31
REMARK    6  A    between atoms: C_16  and  O_33
REMARK    7  A    between atoms: C_21  and  O_35
REMARK    8  A    between atoms: O_35  and  C_37
REMARK    9  A    between atoms: C_39  and  C_41
REMARK   10  A    between atoms: C_39  and  O_49
REMARK   11  A    between atoms: C_42  and  C_44
REMARK   12  A    between atoms: C_44  and  C_46
REMARK   13  A    between atoms: C_51  and  O_52
REMARK                            x       y       z     vdW  Elec       q    Type
REMARK                         _______ _______ _______ _____ _____    ______ ____
ROOT
ATOM      1  O   UNL     1      63.801  39.729  68.872  0.00  0.00    +0.000 OA
ATOM      2  O   UNL     1      62.530  38.124  69.912  0.00  0.00    +0.000 OA
ATOM      3  O   UNL     1      61.665  33.981  72.469  0.00  0.00    +0.000 OA
ATOM      4  O   UNL     1      62.861  41.617  69.677  0.00  0.00    +0.000 OA
ATOM      5  O   UNL     1      59.741  40.083  70.222  0.00  0.00    +0.000 OA
ATOM      6  C   UNL     1      64.838  37.724  69.402  0.00  0.00    +0.000 C 
ATOM      7  C   UNL     1      64.812  36.304  69.325  0.00  0.00    +0.000 C 
ATOM      8  C   UNL     1      64.910  34.854  69.138  0.00  0.00    +0.000 C 
ATOM      9  C   UNL     1      63.587  38.526  69.444  0.00  0.00    +0.000 C 
ATOM     10  C   UNL     1      64.642  34.093  70.418  0.00  0.00    +0.000 C 
ATOM     11  C   UNL     1      63.616  34.417  71.346  0.00  0.00    +0.000 C 
ATOM     12  C   UNL     1      62.538  34.809  72.230  0.00  0.00    +0.000 C 
ATOM     13  C   UNL     1      62.790  40.611  68.982  0.00  0.00    +0.000 C 
ATOM     14  C   UNL     1      62.480  36.196  72.786  0.00  0.00    +0.000 C 
ATOM     15  C   UNL     1      61.703  40.482  67.979  0.00  0.00    +0.000 C 
ATOM     16  C   UNL     1      61.049  39.237  67.631  0.00  0.00    +0.000 C 
ATOM     17  C   UNL     1      59.883  38.677  68.301  0.00  0.00    +0.000 C 
ATOM     18  C   UNL     1      61.223  36.792  73.048  0.00  0.00    +0.000 C 
ATOM     19  C   UNL     1      59.507  37.763  70.666  0.00  0.00    +0.000 C 
ATOM     20  C   UNL     1      63.695  37.113  72.814  0.00  0.00    +0.000 C 
ATOM     21  C   UNL     1      59.382  38.022  72.097  0.00  0.00    +0.000 C 
ATOM     22  C   UNL     1      59.689  38.942  69.759  0.00  0.00    +0.000 C 
ATOM     23  C   UNL     1      60.040  37.310  73.183  0.00  0.00    +0.000 C 
ATOM     24  C   UNL     1      58.714  38.101  67.507  0.00  0.00    +0.000 C 
ATOM     25  C   UNL     1      59.743  36.336  70.191  0.00  0.00    +0.000 C 
ATOM     26  C   UNL     1      59.413  37.175  74.546  0.00  0.00    +0.000 C 
ENDROOT
BRANCH   8  27
ATOM     27  O   UNL     1      66.259  34.606  68.735  0.00  0.00    +0.000 OA
ATOM     28  H   UNL     1      66.184  33.899  68.062  0.00  0.00    +0.000 HD
ENDBRANCH   8  27
BRANCH  10  29
ATOM     29  O   UNL     1      65.426  32.977  70.662  0.00  0.00    +0.000 OA
ATOM     30  H   UNL     1      65.489  32.770  71.613  0.00  0.00    +0.000 HD
ENDBRANCH  10  29
BRANCH  15  31
ATOM     31  O   UNL     1      60.940  41.606  67.709  0.00  0.00    +0.000 OA
ATOM     32  H   UNL     1      61.444  42.422  67.918  0.00  0.00    +0.000 HD
ENDBRANCH  15  31
BRANCH  16  33
ATOM     33  O   UNL     1      61.222  38.827  66.322  0.00  0.00    +0.000 OA
ATOM     34  C   UNL     1      62.202  37.819  66.277  0.00  0.00    +0.000 C 
ENDBRANCH  16  33
BRANCH  21  35
ATOM     35  O   UNL     1      58.377  38.963  72.435  0.00  0.00    +0.000 OA
BRANCH  35  37
ATOM     36  O   UNL     1      56.541  37.514  72.504  0.00  0.00    +0.000 OA
ATOM     37  C   UNL     1      57.120  38.524  72.147  0.00  0.00    +0.000 C 
ATOM     38  C   UNL     1      56.326  39.445  71.292  0.00  0.00    +0.000 C 
ENDBRANCH  35  37
ENDBRANCH  21  35
BRANCH   6  39
ATOM     39  C   UNL     1      66.130  38.360  69.526  0.00  0.00    +0.000 C 
BRANCH  39  41
ATOM     40  O   UNL     1      67.714  39.713  70.997  0.00  0.00    +0.000 OA
ATOM     41  C   UNL     1      66.653  38.738  70.869  0.00  0.00    +0.000 C 
ATOM     42  C   UNL     1      66.431  40.149  71.171  0.00  0.00    +0.000 C 
ATOM     43  C   UNL     1      66.835  37.623  71.960  0.00  0.00    +0.000 C 
BRANCH  42  44
ATOM     44  C   UNL     1      66.076  40.655  72.462  0.00  0.00    +0.000 C 
ATOM     45  C   UNL     1      64.675  40.463  72.995  0.00  0.00    +0.000 C 
BRANCH  44  46
ATOM     46  C   UNL     1      67.076  40.915  73.433  0.00  0.00    +0.000 C 
ATOM     47  C   UNL     1      67.925  41.180  74.237  0.00  0.00    +0.000 C 
ATOM     48  C   UNL     1      69.006  41.588  75.247  0.00  0.00    +0.000 C 
ENDBRANCH  44  46
ENDBRANCH  42  44
ENDBRANCH  39  41
BRANCH  39  49
ATOM     49  O   UNL     1      66.801  38.652  68.350  0.00  0.00    +0.000 OA
ATOM     50  H   UNL     1      66.603  39.534  67.980  0.00  0.00    +0.000 HD
ENDBRANCH  39  49
ENDBRANCH   6  39
BRANCH   8  51
ATOM     51  C   UNL     1      64.026  34.375  68.063  0.00  0.00    +0.000 C 
BRANCH  51  52
ATOM     52  O   UNL     1      63.261  33.926  67.067  0.00  0.00    +0.000 OA
ATOM     53  H   UNL     1      62.490  33.432  67.414  0.00  0.00    +0.000 HD
ENDBRANCH  51  52
ENDBRANCH   8  51
TORSDOF 13
ENDMDL
MODEL 3
REMARK VINA RESULT:      -5.9      3.517      8.611
REMARK  Name = 102471178_CandidaspongiolideCore.pdbqt.pdb
REMARK  13 active torsions:
REMARK  status: ('A' for Active; 'I' for Inactive)
REMARK    1  A    between atoms: C_6  and  C_39
REMARK    2  A    between atoms: C_8  and  O_27
REMARK    3  A    between atoms: C_8  and  C_51
REMARK    4  A    between atoms: C_10  and  O_29
REMARK    5  A    between atoms: C_15  and  O_31
REMARK    6  A    between atoms: C_16  and  O_33
REMARK    7  A    between atoms: C_21  and  O_35
REMARK    8  A    between atoms: O_35  and  C_37
REMARK    9  A    between atoms: C_39  and  C_41
REMARK   10  A    between atoms: C_39  and  O_49
REMARK   11  A    between atoms: C_42  and  C_44
REMARK   12  A    between atoms: C_44  and  C_46
REMARK   13  A    between atoms: C_51  and  O_52
REMARK                            x       y       z     vdW  Elec       q    Type
REMARK                         _______ _______ _______ _____ _____    ______ ____
ROOT
ATOM      1  O   UNL     1      57.862  38.258  68.041  0.00  0.00    +0.000 OA
ATOM      2  O   UNL     1      60.012  37.604  68.516  0.00  0.00    +0.000 OA
ATOM      3  O   UNL     1      64.331  35.327  67.739  0.00  0.00    +0.000 OA
ATOM      4  O   UNL     1      57.964  40.463  68.518  0.00  0.00    +0.000 OA
ATOM      5  O   UNL     1      60.585  40.057  70.832  0.00  0.00    +0.000 OA
ATOM      6  C   UNL     1      58.750  36.523  66.787  0.00  0.00    +0.000 C 
ATOM      7  C   UNL     1      59.406  35.260  66.782  0.00  0.00    +0.000 C 
ATOM      8  C   UNL     1      59.937  33.896  66.727  0.00  0.00    +0.000 C 
ATOM      9  C   UNL     1      58.974  37.514  67.872  0.00  0.00    +0.000 C 
ATOM     10  C   UNL     1      61.376  33.861  66.260  0.00  0.00    +0.000 C 
ATOM     11  C   UNL     1      62.378  34.779  66.673  0.00  0.00    +0.000 C 
ATOM     12  C   UNL     1      63.338  35.749  67.156  0.00  0.00    +0.000 C 
ATOM     13  C   UNL     1      57.983  39.296  68.890  0.00  0.00    +0.000 C 
ATOM     14  C   UNL     1      63.090  37.212  66.983  0.00  0.00    +0.000 C 
ATOM     15  C   UNL     1      57.823  38.979  70.331  0.00  0.00    +0.000 C 
ATOM     16  C   UNL     1      58.489  37.887  71.012  0.00  0.00    +0.000 C 
ATOM     17  C   UNL     1      59.803  37.953  71.637  0.00  0.00    +0.000 C 
ATOM     18  C   UNL     1      63.580  38.123  67.951  0.00  0.00    +0.000 C 
ATOM     19  C   UNL     1      62.163  38.289  70.693  0.00  0.00    +0.000 C 
ATOM     20  C   UNL     1      62.089  37.755  65.973  0.00  0.00    +0.000 C 
ATOM     21  C   UNL     1      63.141  39.176  70.073  0.00  0.00    +0.000 C 
ATOM     22  C   UNL     1      60.832  38.872  71.062  0.00  0.00    +0.000 C 
ATOM     23  C   UNL     1      63.979  38.894  68.916  0.00  0.00    +0.000 C 
ATOM     24  C   UNL     1      60.054  37.358  73.020  0.00  0.00    +0.000 C 
ATOM     25  C   UNL     1      62.406  36.787  70.670  0.00  0.00    +0.000 C 
ATOM     26  C   UNL     1      65.339  39.518  68.742  0.00  0.00    +0.000 C 
ENDROOT
BRANCH   8  27
ATOM     27  O   UNL     1      59.130  33.205  65.771  0.00  0.00    +0.000 OA
ATOM     28  H   UNL     1      59.750  32.587  65.333  0.00  0.00    +0.000 HD
ENDBRANCH   8  27
BRANCH  10  29
ATOM     29  O   UNL     1      61.735  32.826  65.411  0.00  0.00    +0.000 OA
ATOM     30  H   UNL     1      61.848  33.126  64.490  0.00  0.00    +0.000 HD
ENDBRANCH  10  29
BRANCH  15  31
ATOM     31  O   UNL     1      57.430  40.005  71.177  0.00  0.00    +0.000 OA
ATOM     32  H   UNL     1      57.906  40.833  70.955  0.00  0.00    +0.000 HD
ENDBRANCH  15  31
BRANCH  16  33
ATOM     33  O   UNL     1      57.650  36.912  71.521  0.00  0.00    +0.000 OA
ATOM     34  C   UNL     1      57.668  35.793  70.670  0.00  0.00    +0.000 C 
ENDBRANCH  16  33
BRANCH  21  35
ATOM     35  O   UNL     1      63.399  40.365  70.802  0.00  0.00    +0.000 OA
BRANCH  35  37
ATOM     36  O   UNL     1      63.344  40.082  73.124  0.00  0.00    +0.000 OA
ATOM     37  C   UNL     1      63.905  40.128  72.043  0.00  0.00    +0.000 C 
ATOM     38  C   UNL     1      65.364  39.846  72.072  0.00  0.00    +0.000 C 
ENDBRANCH  35  37
ENDBRANCH  21  35
BRANCH   6  39
ATOM     39  C   UNL     1      57.921  36.847  65.648  0.00  0.00    +0.000 C 
BRANCH  39  41
ATOM     40  O   UNL     1      55.447  37.463  65.646  0.00  0.00    +0.000 OA
ATOM     41  C   UNL     1      56.484  36.455  65.631  0.00  0.00    +0.000 C 
ATOM     42  C   UNL     1      55.796  36.934  64.436  0.00  0.00    +0.000 C 
ATOM     43  C   UNL     1      56.020  35.216  66.477  0.00  0.00    +0.000 C 
BRANCH  42  44
ATOM     44  C   UNL     1      54.796  36.196  63.726  0.00  0.00    +0.000 C 
ATOM     45  C   UNL     1      55.166  34.930  62.988  0.00  0.00    +0.000 C 
BRANCH  44  46
ATOM     46  C   UNL     1      53.425  36.338  64.059  0.00  0.00    +0.000 C 
ATOM     47  C   UNL     1      52.275  36.443  64.385  0.00  0.00    +0.000 C 
ATOM     48  C   UNL     1      50.825  36.565  64.871  0.00  0.00    +0.000 C 
ENDBRANCH  44  46
ENDBRANCH  42  44
ENDBRANCH  39  41
BRANCH  39  49
ATOM     49  O   UNL     1      58.544  37.463  64.575  0.00  0.00    +0.000 OA
ATOM     50  H   UNL     1      59.483  37.223  64.461  0.00  0.00    +0.000 HD
ENDBRANCH  39  49
ENDBRANCH   6  39
BRANCH   8  51
ATOM     51  C   UNL     1      59.800  33.198  68.016  0.00  0.00    +0.000 C 
BRANCH  51  52
ATOM     52  O   UNL     1      59.655  32.601  69.200  0.00  0.00    +0.000 OA
ATOM     53  H   UNL     1      60.502  32.215  69.503  0.00  0.00    +0.000 HD
ENDBRANCH  51  52
ENDBRANCH   8  51
TORSDOF 13
ENDMDL
MODEL 4
REMARK VINA RESULT:      -5.8      2.683      9.144
REMARK  Name = 102471178_CandidaspongiolideCore.pdbqt.pdb
REMARK  13 active torsions:
REMARK  status: ('A' for Active; 'I' for Inactive)
REMARK    1  A    between atoms: C_6  and  C_39
REMARK    2  A    between atoms: C_8  and  O_27
REMARK    3  A    between atoms: C_8  and  C_51
REMARK    4  A    between atoms: C_10  and  O_29
REMARK    5  A    between atoms: C_15  and  O_31
REMARK    6  A    between atoms: C_16  and  O_33
REMARK    7  A    between atoms: C_21  and  O_35
REMARK    8  A    between atoms: O_35  and  C_37
REMARK    9  A    between atoms: C_39  and  C_41
REMARK   10  A    between atoms: C_39  and  O_49
REMARK   11  A    between atoms: C_42  and  C_44
REMARK   12  A    between atoms: C_44  and  C_46
REMARK   13  A    between atoms: C_51  and  O_52
REMARK                            x       y       z     vdW  Elec       q    Type
REMARK                         _______ _______ _______ _____ _____    ______ ____
ROOT
ATOM      1  O   UNL     1      58.548  38.141  71.795  0.00  0.00    +0.000 OA
ATOM      2  O   UNL     1      60.359  37.822  70.419  0.00  0.00    +0.000 OA
ATOM      3  O   UNL     1      62.839  37.730  66.143  0.00  0.00    +0.000 OA
ATOM      4  O   UNL     1      59.480  39.338  73.468  0.00  0.00    +0.000 OA
ATOM      5  O   UNL     1      62.691  38.008  72.916  0.00  0.00    +0.000 OA
ATOM      6  C   UNL     1      58.146  38.018  69.516  0.00  0.00    +0.000 C 
ATOM      7  C   UNL     1      58.331  37.298  68.303  0.00  0.00    +0.000 C 
ATOM      8  C   UNL     1      58.360  36.517  67.064  0.00  0.00    +0.000 C 
ATOM      9  C   UNL     1      59.160  37.987  70.603  0.00  0.00    +0.000 C 
ATOM     10  C   UNL     1      59.276  37.127  66.025  0.00  0.00    +0.000 C 
ATOM     11  C   UNL     1      60.553  37.682  66.306  0.00  0.00    +0.000 C 
ATOM     12  C   UNL     1      61.847  38.213  66.679  0.00  0.00    +0.000 C 
ATOM     13  C   UNL     1      59.369  38.284  72.853  0.00  0.00    +0.000 C 
ATOM     14  C   UNL     1      61.957  39.282  67.718  0.00  0.00    +0.000 C 
ATOM     15  C   UNL     1      59.897  37.028  73.441  0.00  0.00    +0.000 C 
ATOM     16  C   UNL     1      60.491  35.949  72.679  0.00  0.00    +0.000 C 
ATOM     17  C   UNL     1      61.898  35.839  72.318  0.00  0.00    +0.000 C 
ATOM     18  C   UNL     1      63.103  39.335  68.548  0.00  0.00    +0.000 C 
ATOM     19  C   UNL     1      63.416  37.233  70.793  0.00  0.00    +0.000 C 
ATOM     20  C   UNL     1      60.771  40.143  68.128  0.00  0.00    +0.000 C 
ATOM     21  C   UNL     1      64.132  38.481  70.552  0.00  0.00    +0.000 C 
ATOM     22  C   UNL     1      62.686  37.089  72.094  0.00  0.00    +0.000 C 
ATOM     23  C   UNL     1      64.136  39.274  69.331  0.00  0.00    +0.000 C 
ATOM     24  C   UNL     1      62.653  34.522  72.465  0.00  0.00    +0.000 C 
ATOM     25  C   UNL     1      63.191  36.273  69.632  0.00  0.00    +0.000 C 
ATOM     26  C   UNL     1      65.320  40.114  68.927  0.00  0.00    +0.000 C 
ENDROOT
BRANCH   8  27
ATOM     27  O   UNL     1      57.022  36.539  66.561  0.00  0.00    +0.000 OA
ATOM     28  H   UNL     1      56.477  36.783  67.335  0.00  0.00    +0.000 HD
ENDBRANCH   8  27
BRANCH  10  29
ATOM     29  O   UNL     1      58.846  37.088  64.708  0.00  0.00    +0.000 OA
ATOM     30  H   UNL     1      57.891  36.901  64.637  0.00  0.00    +0.000 HD
ENDBRANCH  10  29
BRANCH  15  31
ATOM     31  O   UNL     1      60.296  37.056  74.768  0.00  0.00    +0.000 OA
ATOM     32  H   UNL     1      61.075  37.642  74.880  0.00  0.00    +0.000 HD
ENDBRANCH  15  31
BRANCH  16  33
ATOM     33  O   UNL     1      59.807  34.747  72.728  0.00  0.00    +0.000 OA
ATOM     34  C   UNL     1      59.072  34.582  71.540  0.00  0.00    +0.000 C 
ENDBRANCH  16  33
BRANCH  21  35
ATOM     35  O   UNL     1      65.043  38.841  71.578  0.00  0.00    +0.000 OA
BRANCH  35  37
ATOM     36  O   UNL     1      66.887  37.599  70.850  0.00  0.00    +0.000 OA
ATOM     37  C   UNL     1      66.087  37.975  71.689  0.00  0.00    +0.000 C 
ATOM     38  C   UNL     1      66.301  37.436  73.057  0.00  0.00    +0.000 C 
ENDBRANCH  35  37
ENDBRANCH  21  35
BRANCH   6  39
ATOM     39  C   UNL     1      56.974  38.857  69.621  0.00  0.00    +0.000 C 
BRANCH  39  41
ATOM     40  O   UNL     1      55.605  37.225  71.023  0.00  0.00    +0.000 OA
ATOM     41  C   UNL     1      55.666  38.269  70.024  0.00  0.00    +0.000 C 
ATOM     42  C   UNL     1      55.365  38.506  71.433  0.00  0.00    +0.000 C 
ATOM     43  C   UNL     1      54.576  38.004  68.924  0.00  0.00    +0.000 C 
BRANCH  42  44
ATOM     44  C   UNL     1      54.061  38.801  71.945  0.00  0.00    +0.000 C 
ATOM     45  C   UNL     1      53.216  37.703  72.548  0.00  0.00    +0.000 C 
BRANCH  44  46
ATOM     46  C   UNL     1      53.719  40.123  72.326  0.00  0.00    +0.000 C 
ATOM     47  C   UNL     1      53.477  41.252  72.649  0.00  0.00    +0.000 C 
ATOM     48  C   UNL     1      53.237  42.713  73.052  0.00  0.00    +0.000 C 
ENDBRANCH  44  46
ENDBRANCH  42  44
ENDBRANCH  39  41
BRANCH  39  49
ATOM     49  O   UNL     1      57.121  40.187  69.265  0.00  0.00    +0.000 OA
ATOM     50  H   UNL     1      57.714  40.339  68.505  0.00  0.00    +0.000 HD
ENDBRANCH  39  49
ENDBRANCH   6  39
BRANCH   8  51
ATOM     51  C   UNL     1      58.724  35.112  67.306  0.00  0.00    +0.000 C 
BRANCH  51  52
ATOM     52  O   UNL     1      59.097  33.850  67.526  0.00  0.00    +0.000 OA
ATOM     53  H   UNL     1      59.315  33.709  68.469  0.00  0.00    +0.000 HD
ENDBRANCH  51  52
ENDBRANCH   8  51
TORSDOF 13
ENDMDL
MODEL 5
REMARK VINA RESULT:      -5.6      2.848      6.719
REMARK  Name = 102471178_CandidaspongiolideCore.pdbqt.pdb
REMARK  13 active torsions:
REMARK  status: ('A' for Active; 'I' for Inactive)
REMARK    1  A    between atoms: C_6  and  C_39
REMARK    2  A    between atoms: C_8  and  O_27
REMARK    3  A    between atoms: C_8  and  C_51
REMARK    4  A    between atoms: C_10  and  O_29
REMARK    5  A    between atoms: C_15  and  O_31
REMARK    6  A    between atoms: C_16  and  O_33
REMARK    7  A    between atoms: C_21  and  O_35
REMARK    8  A    between atoms: O_35  and  C_37
REMARK    9  A    between atoms: C_39  and  C_41
REMARK   10  A    between atoms: C_39  and  O_49
REMARK   11  A    between atoms: C_42  and  C_44
REMARK   12  A    between atoms: C_44  and  C_46
REMARK   13  A    between atoms: C_51  and  O_52
REMARK                            x       y       z     vdW  Elec       q    Type
REMARK                         _______ _______ _______ _____ _____    ______ ____
ROOT
ATOM      1  O   UNL     1      60.861  38.597  70.766  0.00  0.00    +0.000 OA
ATOM      2  O   UNL     1      61.250  36.865  69.308  0.00  0.00    +0.000 OA
ATOM      3  O   UNL     1      62.966  32.460  67.860  0.00  0.00    +0.000 OA
ATOM      4  O   UNL     1      58.666  38.986  70.401  0.00  0.00    +0.000 OA
ATOM      5  O   UNL     1      58.775  37.738  67.113  0.00  0.00    +0.000 OA
ATOM      6  C   UNL     1      62.457  37.030  71.374  0.00  0.00    +0.000 C 
ATOM      7  C   UNL     1      63.628  36.309  71.011  0.00  0.00    +0.000 C 
ATOM      8  C   UNL     1      64.916  35.662  70.746  0.00  0.00    +0.000 C 
ATOM      9  C   UNL     1      61.460  37.459  70.358  0.00  0.00    +0.000 C 
ATOM     10  C   UNL     1      64.767  34.179  70.482  0.00  0.00    +0.000 C 
ATOM     11  C   UNL     1      63.737  33.603  69.691  0.00  0.00    +0.000 C 
ATOM     12  C   UNL     1      62.663  33.102  68.860  0.00  0.00    +0.000 C 
ATOM     13  C   UNL     1      59.827  39.010  70.009  0.00  0.00    +0.000 C 
ATOM     14  C   UNL     1      61.239  33.406  69.198  0.00  0.00    +0.000 C 
ATOM     15  C   UNL     1      60.180  39.793  68.798  0.00  0.00    +0.000 C 
ATOM     16  C   UNL     1      61.189  39.406  67.834  0.00  0.00    +0.000 C 
ATOM     17  C   UNL     1      60.970  38.559  66.670  0.00  0.00    +0.000 C 
ATOM     18  C   UNL     1      60.287  33.539  68.158  0.00  0.00    +0.000 C 
ATOM     19  C   UNL     1      60.332  36.089  66.411  0.00  0.00    +0.000 C 
ATOM     20  C   UNL     1      60.811  33.868  70.584  0.00  0.00    +0.000 C 
ATOM     21  C   UNL     1      59.323  35.043  66.541  0.00  0.00    +0.000 C 
ATOM     22  C   UNL     1      59.923  37.494  66.738  0.00  0.00    +0.000 C 
ATOM     23  C   UNL     1      59.485  33.733  67.156  0.00  0.00    +0.000 C 
ATOM     24  C   UNL     1      61.547  38.923  65.305  0.00  0.00    +0.000 C 
ATOM     25  C   UNL     1      61.793  35.693  66.247  0.00  0.00    +0.000 C 
ATOM     26  C   UNL     1      58.695  32.533  66.701  0.00  0.00    +0.000 C 
ENDROOT
BRANCH   8  27
ATOM     27  O   UNL     1      65.689  35.837  71.936  0.00  0.00    +0.000 OA
ATOM     28  H   UNL     1      66.616  35.841  71.623  0.00  0.00    +0.000 HD
ENDBRANCH   8  27
BRANCH  10  29
ATOM     29  O   UNL     1      65.739  33.346  71.014  0.00  0.00    +0.000 OA
ATOM     30  H   UNL     1      66.515  33.264  70.428  0.00  0.00    +0.000 HD
ENDBRANCH  10  29
BRANCH  15  31
ATOM     31  O   UNL     1      59.221  40.653  68.285  0.00  0.00    +0.000 OA
ATOM     32  H   UNL     1      58.987  40.397  67.367  0.00  0.00    +0.000 HD
ENDBRANCH  15  31
BRANCH  16  33
ATOM     33  O   UNL     1      62.267  40.268  67.733  0.00  0.00    +0.000 OA
ATOM     34  C   UNL     1      63.316  39.796  68.542  0.00  0.00    +0.000 C 
ENDBRANCH  16  33
BRANCH  21  35
ATOM     35  O   UNL     1      58.121  35.298  65.833  0.00  0.00    +0.000 OA
BRANCH  35  37
ATOM     36  O   UNL     1      58.806  34.483  63.750  0.00  0.00    +0.000 OA
ATOM     37  C   UNL     1      58.292  35.310  64.482  0.00  0.00    +0.000 C 
ATOM     38  C   UNL     1      57.730  36.503  63.799  0.00  0.00    +0.000 C 
ENDBRANCH  35  37
ENDBRANCH  21  35
BRANCH   6  39
ATOM     39  C   UNL     1      62.223  37.255  72.782  0.00  0.00    +0.000 C 
BRANCH  39  41
ATOM     40  O   UNL     1      60.482  36.975  74.624  0.00  0.00    +0.000 OA
ATOM     41  C   UNL     1      61.236  36.420  73.521  0.00  0.00    +0.000 C 
ATOM     42  C   UNL     1      59.876  36.938  73.400  0.00  0.00    +0.000 C 
ATOM     43  C   UNL     1      61.582  34.919  73.829  0.00  0.00    +0.000 C 
BRANCH  42  44
ATOM     44  C   UNL     1      58.707  36.122  73.270  0.00  0.00    +0.000 C 
ATOM     45  C   UNL     1      57.767  35.948  74.440  0.00  0.00    +0.000 C 
BRANCH  44  46
ATOM     46  C   UNL     1      58.157  35.850  71.991  0.00  0.00    +0.000 C 
ATOM     47  C   UNL     1      57.653  35.600  70.932  0.00  0.00    +0.000 C 
ATOM     48  C   UNL     1      56.948  35.264  69.612  0.00  0.00    +0.000 C 
ENDBRANCH  44  46
ENDBRANCH  42  44
ENDBRANCH  39  41
BRANCH  39  49
ATOM     49  O   UNL     1      62.902  38.310  73.369  0.00  0.00    +0.000 OA
ATOM     50  H   UNL     1      63.856  38.150  73.508  0.00  0.00    +0.000 HD
ENDBRANCH  39  49
ENDBRANCH   6  39
BRANCH   8  51
ATOM     51  C   UNL     1      65.642  36.308  69.641  0.00  0.00    +0.000 C 
BRANCH  51  52
ATOM     52  O   UNL     1      66.263  36.917  68.630  0.00  0.00    +0.000 OA
ATOM     53  H   UNL     1      66.832  36.289  68.140  0.00  0.00    +0.000 HD
ENDBRANCH  51  52
ENDBRANCH   8  51
TORSDOF 13
ENDMDL
MODEL 6
REMARK VINA RESULT:      -5.4      2.814      5.714
REMARK  Name = 102471178_CandidaspongiolideCore.pdbqt.pdb
REMARK  13 active torsions:
REMARK  status: ('A' for Active; 'I' for Inactive)
REMARK    1  A    between atoms: C_6  and  C_39
REMARK    2  A    between atoms: C_8  and  O_27
REMARK    3  A    between atoms: C_8  and  C_51
REMARK    4  A    between atoms: C_10  and  O_29
REMARK    5  A    between atoms: C_15  and  O_31
REMARK    6  A    between atoms: C_16  and  O_33
REMARK    7  A    between atoms: C_21  and  O_35
REMARK    8  A    between atoms: O_35  and  C_37
REMARK    9  A    between atoms: C_39  and  C_41
REMARK   10  A    between atoms: C_39  and  O_49
REMARK   11  A    between atoms: C_42  and  C_44
REMARK   12  A    between atoms: C_44  and  C_46
REMARK   13  A    between atoms: C_51  and  O_52
REMARK                            x       y       z     vdW  Elec       q    Type
REMARK                         _______ _______ _______ _____ _____    ______ ____
ROOT
ATOM      1  O   UNL     1      62.786  37.370  67.385  0.00  0.00    +0.000 OA
ATOM      2  O   UNL     1      60.735  36.858  68.283  0.00  0.00    +0.000 OA
ATOM      3  O   UNL     1      56.821  37.414  71.252  0.00  0.00    +0.000 OA
ATOM      4  O   UNL     1      62.351  37.192  65.177  0.00  0.00    +0.000 OA
ATOM      5  O   UNL     1      59.725  34.899  65.665  0.00  0.00    +0.000 OA
ATOM      6  C   UNL     1      62.206  38.402  69.379  0.00  0.00    +0.000 C 
ATOM      7  C   UNL     1      61.739  38.253  70.714  0.00  0.00    +0.000 C 
ATOM      8  C   UNL     1      61.412  38.138  72.138  0.00  0.00    +0.000 C 
ATOM      9  C   UNL     1      61.800  37.462  68.301  0.00  0.00    +0.000 C 
ATOM     10  C   UNL     1      60.012  38.626  72.444  0.00  0.00    +0.000 C 
ATOM     11  C   UNL     1      58.874  38.359  71.638  0.00  0.00    +0.000 C 
ATOM     12  C   UNL     1      57.766  38.028  70.767  0.00  0.00    +0.000 C 
ATOM     13  C   UNL     1      62.484  36.669  66.277  0.00  0.00    +0.000 C 
ATOM     14  C   UNL     1      57.808  38.388  69.317  0.00  0.00    +0.000 C 
ATOM     15  C   UNL     1      62.631  35.196  66.380  0.00  0.00    +0.000 C 
ATOM     16  C   UNL     1      62.102  34.390  67.462  0.00  0.00    +0.000 C 
ATOM     17  C   UNL     1      60.768  33.806  67.511  0.00  0.00    +0.000 C 
ATOM     18  C   UNL     1      57.155  37.559  68.372  0.00  0.00    +0.000 C 
ATOM     19  C   UNL     1      58.424  34.835  67.649  0.00  0.00    +0.000 C 
ATOM     20  C   UNL     1      58.760  39.440  68.766  0.00  0.00    +0.000 C 
ATOM     21  C   UNL     1      57.354  35.586  67.003  0.00  0.00    +0.000 C 
ATOM     22  C   UNL     1      59.642  34.519  66.835  0.00  0.00    +0.000 C 
ATOM     23  C   UNL     1      56.612  36.713  67.551  0.00  0.00    +0.000 C 
ATOM     24  C   UNL     1      60.551  32.363  67.955  0.00  0.00    +0.000 C 
ATOM     25  C   UNL     1      58.400  34.664  69.162  0.00  0.00    +0.000 C 
ATOM     26  C   UNL     1      55.184  36.996  67.161  0.00  0.00    +0.000 C 
ENDROOT
BRANCH   8  27
ATOM     27  O   UNL     1      62.347  38.978  72.819  0.00  0.00    +0.000 OA
ATOM     28  H   UNL     1      63.185  38.852  72.330  0.00  0.00    +0.000 HD
ENDBRANCH   8  27
BRANCH  10  29
ATOM     29  O   UNL     1      59.839  39.338  73.620  0.00  0.00    +0.000 OA
ATOM     30  H   UNL     1      60.140  40.262  73.541  0.00  0.00    +0.000 HD
ENDBRANCH  10  29
BRANCH  15  31
ATOM     31  O   UNL     1      62.839  34.485  65.208  0.00  0.00    +0.000 OA
ATOM     32  H   UNL     1      63.741  34.653  64.861  0.00  0.00    +0.000 HD
ENDBRANCH  15  31
BRANCH  16  33
ATOM     33  O   UNL     1      63.052  33.739  68.229  0.00  0.00    +0.000 OA
ATOM     34  C   UNL     1      63.217  34.428  69.445  0.00  0.00    +0.000 C 
ENDBRANCH  16  33
BRANCH  21  35
ATOM     35  O   UNL     1      56.900  35.026  65.781  0.00  0.00    +0.000 OA
BRANCH  35  37
ATOM     36  O   UNL     1      55.374  33.491  66.669  0.00  0.00    +0.000 OA
ATOM     37  C   UNL     1      56.297  33.816  65.944  0.00  0.00    +0.000 C 
ATOM     38  C   UNL     1      56.829  32.739  65.069  0.00  0.00    +0.000 C 
ENDBRANCH  35  37
ENDBRANCH  21  35
BRANCH   6  39
ATOM     39  C   UNL     1      63.024  39.557  69.085  0.00  0.00    +0.000 C 
BRANCH  39  41
ATOM     40  O   UNL     1      64.774  38.804  70.780  0.00  0.00    +0.000 OA
ATOM     41  C   UNL     1      64.307  39.771  69.810  0.00  0.00    +0.000 C 
ATOM     42  C   UNL     1      65.288  38.730  69.516  0.00  0.00    +0.000 C 
ATOM     43  C   UNL     1      64.678  41.217  70.296  0.00  0.00    +0.000 C 
BRANCH  42  44
ATOM     44  C   UNL     1      66.693  38.961  69.361  0.00  0.00    +0.000 C 
ATOM     45  C   UNL     1      67.605  38.925  70.565  0.00  0.00    +0.000 C 
BRANCH  44  46
ATOM     46  C   UNL     1      67.321  38.767  68.105  0.00  0.00    +0.000 C 
ATOM     47  C   UNL     1      67.855  38.555  67.052  0.00  0.00    +0.000 C 
ATOM     48  C   UNL     1      68.529  38.213  65.717  0.00  0.00    +0.000 C 
ENDBRANCH  44  46
ENDBRANCH  42  44
ENDBRANCH  39  41
BRANCH  39  49
ATOM     49  O   UNL     1      62.523  40.462  68.164  0.00  0.00    +0.000 OA
ATOM     50  H   UNL     1      62.121  40.054  67.373  0.00  0.00    +0.000 HD
ENDBRANCH  39  49
ENDBRANCH   6  39
BRANCH   8  51
ATOM     51  C   UNL     1      61.596  36.766  72.637  0.00  0.00    +0.000 C 
BRANCH  51  52
ATOM     52  O   UNL     1      61.720  35.520  73.096  0.00  0.00    +0.000 OA
ATOM     53  H   UNL     1      61.406  35.455  74.021  0.00  0.00    +0.000 HD
ENDBRANCH  51  52
ENDBRANCH   8  51
TORSDOF 13
ENDMDL
MODEL 7
REMARK VINA RESULT:      -5.4      2.472      6.679
REMARK  Name = 102471178_CandidaspongiolideCore.pdbqt.pdb
REMARK  13 active torsions:
REMARK  status: ('A' for Active; 'I' for Inactive)
REMARK    1  A    between atoms: C_6  and  C_39
REMARK    2  A    between atoms: C_8  and  O_27
REMARK    3  A    between atoms: C_8  and  C_51
REMARK    4  A    between atoms: C_10  and  O_29
REMARK    5  A    between atoms: C_15  and  O_31
REMARK    6  A    between atoms: C_16  and  O_33
REMARK    7  A    between atoms: C_21  and  O_35
REMARK    8  A    between atoms: O_35  and  C_37
REMARK    9  A    between atoms: C_39  and  C_41
REMARK   10  A    between atoms: C_39  and  O_49
REMARK   11  A    between atoms: C_42  and  C_44
REMARK   12  A    between atoms: C_44  and  C_46
REMARK   13  A    between atoms: C_51  and  O_52
REMARK                            x       y       z     vdW  Elec       q    Type
REMARK                         _______ _______ _______ _____ _____    ______ ____
ROOT
ATOM      1  O   UNL     1      63.817  35.982  71.578  0.00  0.00    +0.000 OA
ATOM      2  O   UNL     1      62.332  36.063  69.828  0.00  0.00    +0.000 OA
ATOM      3  O   UNL     1      60.213  37.923  65.766  0.00  0.00    +0.000 OA
ATOM      4  O   UNL     1      64.524  33.841  71.448  0.00  0.00    +0.000 OA
ATOM      5  O   UNL     1      61.556  32.732  69.917  0.00  0.00    +0.000 OA
ATOM      6  C   UNL     1      63.596  38.001  70.461  0.00  0.00    +0.000 C 
ATOM      7  C   UNL     1      62.721  39.012  69.974  0.00  0.00    +0.000 C 
ATOM      8  C   UNL     1      61.880  40.149  69.593  0.00  0.00    +0.000 C 
ATOM      9  C   UNL     1      63.168  36.581  70.559  0.00  0.00    +0.000 C 
ATOM     10  C   UNL     1      61.704  40.254  68.094  0.00  0.00    +0.000 C 
ATOM     11  C   UNL     1      61.481  39.147  67.232  0.00  0.00    +0.000 C 
ATOM     12  C   UNL     1      61.244  37.966  66.429  0.00  0.00    +0.000 C 
ATOM     13  C   UNL     1      63.635  34.652  71.680  0.00  0.00    +0.000 C 
ATOM     14  C   UNL     1      62.211  36.826  66.454  0.00  0.00    +0.000 C 
ATOM     15  C   UNL     1      62.406  34.216  72.389  0.00  0.00    +0.000 C 
ATOM     16  C   UNL     1      61.079  34.735  72.130  0.00  0.00    +0.000 C 
ATOM     17  C   UNL     1      60.145  34.217  71.138  0.00  0.00    +0.000 C 
ATOM     18  C   UNL     1      61.738  35.504  66.271  0.00  0.00    +0.000 C 
ATOM     19  C   UNL     1      60.195  34.140  68.576  0.00  0.00    +0.000 C 
ATOM     20  C   UNL     1      63.640  36.981  66.955  0.00  0.00    +0.000 C 
ATOM     21  C   UNL     1      60.772  33.583  67.358  0.00  0.00    +0.000 C 
ATOM     22  C   UNL     1      60.686  33.604  69.887  0.00  0.00    +0.000 C 
ATOM     23  C   UNL     1      61.229  34.314  66.184  0.00  0.00    +0.000 C 
ATOM     24  C   UNL     1      58.672  34.004  71.473  0.00  0.00    +0.000 C 
ATOM     25  C   UNL     1      59.363  35.412  68.486  0.00  0.00    +0.000 C 
ATOM     26  C   UNL     1      61.186  33.714  64.802  0.00  0.00    +0.000 C 
ENDROOT
BRANCH   8  27
ATOM     27  O   UNL     1      62.571  41.313  70.053  0.00  0.00    +0.000 OA
ATOM     28  H   UNL     1      63.263  41.465  69.378  0.00  0.00    +0.000 HD
ENDBRANCH   8  27
BRANCH  10  29
ATOM     29  O   UNL     1      61.712  41.528  67.548  0.00  0.00    +0.000 OA
ATOM     30  H   UNL     1      62.168  42.172  68.121  0.00  0.00    +0.000 HD
ENDBRANCH  10  29
BRANCH  15  31
ATOM     31  O   UNL     1      62.408  32.956  72.966  0.00  0.00    +0.000 OA
ATOM     32  H   UNL     1      61.727  32.387  72.547  0.00  0.00    +0.000 HD
ENDBRANCH  15  31
BRANCH  16  33
ATOM     33  O   UNL     1      60.493  35.408  73.186  0.00  0.00    +0.000 OA
ATOM     34  C   UNL     1      60.460  36.785  72.899  0.00  0.00    +0.000 C 
ENDBRANCH  16  33
BRANCH  21  35
ATOM     35  O   UNL     1      60.710  32.169  67.274  0.00  0.00    +0.000 OA
BRANCH  35  37
ATOM     36  O   UNL     1      58.553  31.982  66.389  0.00  0.00    +0.000 OA
ATOM     37  C   UNL     1      59.437  31.697  67.177  0.00  0.00    +0.000 C 
ATOM     38  C   UNL     1      59.090  30.646  68.169  0.00  0.00    +0.000 C 
ENDBRANCH  35  37
ENDBRANCH  21  35
BRANCH   6  39
ATOM     39  C   UNL     1      64.951  38.389  70.776  0.00  0.00    +0.000 C 
BRANCH  39  41
ATOM     40  O   UNL     1      67.390  37.881  70.230  0.00  0.00    +0.000 OA
ATOM     41  C   UNL     1      66.043  38.170  69.787  0.00  0.00    +0.000 C 
ATOM     42  C   UNL     1      66.602  36.823  69.872  0.00  0.00    +0.000 C 
ATOM     43  C   UNL     1      66.098  39.065  68.499  0.00  0.00    +0.000 C 
BRANCH  42  44
ATOM     44  C   UNL     1      67.017  36.045  68.744  0.00  0.00    +0.000 C 
ATOM     45  C   UNL     1      68.473  36.005  68.343  0.00  0.00    +0.000 C 
BRANCH  44  46
ATOM     46  C   UNL     1      66.218  34.971  68.277  0.00  0.00    +0.000 C 
ATOM     47  C   UNL     1      65.503  34.091  67.887  0.00  0.00    +0.000 C 
ATOM     48  C   UNL     1      64.535  33.013  67.382  0.00  0.00    +0.000 C 
ENDBRANCH  44  46
ENDBRANCH  42  44
ENDBRANCH  39  41
BRANCH  39  49
ATOM     49  O   UNL     1      65.179  38.898  72.044  0.00  0.00    +0.000 OA
ATOM     50  H   UNL     1      66.122  39.013  72.270  0.00  0.00    +0.000 HD
ENDBRANCH  39  49
ENDBRANCH   6  39
BRANCH   8  51
ATOM     51  C   UNL     1      60.569  40.115  70.262  0.00  0.00    +0.000 C 
BRANCH  51  52
ATOM     52  O   UNL     1      59.364  40.065  70.831  0.00  0.00    +0.000 OA
ATOM     53  H   UNL     1      58.772  39.457  70.344  0.00  0.00    +0.000 HD
ENDBRANCH  51  52
ENDBRANCH   8  51
TORSDOF 13
ENDMDL
MODEL 8
REMARK VINA RESULT:      -5.2     17.174     20.846
REMARK  Name = 102471178_CandidaspongiolideCore.pdbqt.pdb
REMARK  13 active torsions:
REMARK  status: ('A' for Active; 'I' for Inactive)
REMARK    1  A    between atoms: C_6  and  C_39
REMARK    2  A    between atoms: C_8  and  O_27
REMARK    3  A    between atoms: C_8  and  C_51
REMARK    4  A    between atoms: C_10  and  O_29
REMARK    5  A    between atoms: C_15  and  O_31
REMARK    6  A    between atoms: C_16  and  O_33
REMARK    7  A    between atoms: C_21  and  O_35
REMARK    8  A    between atoms: O_35  and  C_37
REMARK    9  A    between atoms: C_39  and  C_41
REMARK   10  A    between atoms: C_39  and  O_49
REMARK   11  A    between atoms: C_42  and  C_44
REMARK   12  A    between atoms: C_44  and  C_46
REMARK   13  A    between atoms: C_51  and  O_52
REMARK                            x       y       z     vdW  Elec       q    Type
REMARK                         _______ _______ _______ _____ _____    ______ ____
ROOT
ATOM      1  O   UNL     1      63.927  53.760  55.688  0.00  0.00    +0.000 OA
ATOM      2  O   UNL     1      62.002  54.286  56.826  0.00  0.00    +0.000 OA
ATOM      3  O   UNL     1      57.768  53.402  59.219  0.00  0.00    +0.000 OA
ATOM      4  O   UNL     1      65.435  55.049  56.765  0.00  0.00    +0.000 OA
ATOM      5  O   UNL     1      63.025  57.421  57.742  0.00  0.00    +0.000 OA
ATOM      6  C   UNL     1      62.324  52.098  55.898  0.00  0.00    +0.000 C 
ATOM      7  C   UNL     1      60.963  51.718  55.736  0.00  0.00    +0.000 C 
ATOM      8  C   UNL     1      59.612  51.233  55.440  0.00  0.00    +0.000 C 
ATOM      9  C   UNL     1      62.710  53.500  56.209  0.00  0.00    +0.000 C 
ATOM     10  C   UNL     1      58.793  51.024  56.696  0.00  0.00    +0.000 C 
ATOM     11  C   UNL     1      58.783  51.910  57.806  0.00  0.00    +0.000 C 
ATOM     12  C   UNL     1      58.823  52.873  58.887  0.00  0.00    +0.000 C 
ATOM     13  C   UNL     1      64.461  54.947  56.028  0.00  0.00    +0.000 C 
ATOM     14  C   UNL     1      60.121  53.233  59.533  0.00  0.00    +0.000 C 
ATOM     15  C   UNL     1      64.020  56.114  55.223  0.00  0.00    +0.000 C 
ATOM     16  C   UNL     1      62.640  56.424  54.914  0.00  0.00    +0.000 C 
ATOM     17  C   UNL     1      61.746  57.229  55.738  0.00  0.00    +0.000 C 
ATOM     18  C   UNL     1      60.307  54.539  60.048  0.00  0.00    +0.000 C 
ATOM     19  C   UNL     1      60.739  56.874  58.068  0.00  0.00    +0.000 C 
ATOM     20  C   UNL     1      61.362  52.359  59.411  0.00  0.00    +0.000 C 
ATOM     21  C   UNL     1      60.935  56.803  59.512  0.00  0.00    +0.000 C 
ATOM     22  C   UNL     1      61.926  57.218  57.221  0.00  0.00    +0.000 C 
ATOM     23  C   UNL     1      60.444  55.775  60.419  0.00  0.00    +0.000 C 
ATOM     24  C   UNL     1      60.852  58.301  55.122  0.00  0.00    +0.000 C 
ATOM     25  C   UNL     1      59.454  56.319  57.467  0.00  0.00    +0.000 C 
ATOM     26  C   UNL     1      60.112  56.071  61.859  0.00  0.00    +0.000 C 
ENDROOT
BRANCH   8  27
ATOM     27  O   UNL     1      59.787  49.970  54.794  0.00  0.00    +0.000 OA
ATOM     28  H   UNL     1      59.809  50.188  53.841  0.00  0.00    +0.000 HD
ENDBRANCH   8  27
BRANCH  10  29
ATOM     29  O   UNL     1      57.963  49.914  56.726  0.00  0.00    +0.000 OA
ATOM     30  H   UNL     1      57.040  50.149  56.938  0.00  0.00    +0.000 HD
ENDBRANCH  10  29
BRANCH  15  31
ATOM     31  O   UNL     1      64.864  57.211  55.163  0.00  0.00    +0.000 OA
ATOM     32  H   UNL     1      65.652  57.069  55.730  0.00  0.00    +0.000 HD
ENDBRANCH  15  31
BRANCH  16  33
ATOM     33  O   UNL     1      62.313  56.383  53.570  0.00  0.00    +0.000 OA
ATOM     34  C   UNL     1      61.634  55.183  53.294  0.00  0.00    +0.000 C 
ENDBRANCH  16  33
BRANCH  21  35
ATOM     35  O   UNL     1      61.524  57.960  60.080  0.00  0.00    +0.000 OA
BRANCH  35  37
ATOM     36  O   UNL     1      59.578  59.218  60.403  0.00  0.00    +0.000 OA
ATOM     37  C   UNL     1      60.719  59.056  60.009  0.00  0.00    +0.000 C 
ATOM     38  C   UNL     1      61.352  60.247  59.384  0.00  0.00    +0.000 C 
ENDBRANCH  35  37
ENDBRANCH  21  35
BRANCH   6  39
ATOM     39  C   UNL     1      63.319  51.052  55.838  0.00  0.00    +0.000 C 
BRANCH  39  41
ATOM     40  O   UNL     1      65.209  49.880  57.085  0.00  0.00    +0.000 OA
ATOM     41  C   UNL     1      63.902  50.499  57.092  0.00  0.00    +0.000 C 
ATOM     42  C   UNL     1      65.131  51.186  57.479  0.00  0.00    +0.000 C 
ATOM     43  C   UNL     1      62.968  49.735  58.097  0.00  0.00    +0.000 C 
BRANCH  42  44
ATOM     44  C   UNL     1      65.499  51.491  58.828  0.00  0.00    +0.000 C 
ATOM     45  C   UNL     1      66.708  50.833  59.453  0.00  0.00    +0.000 C 
BRANCH  44  46
ATOM     46  C   UNL     1      65.068  52.696  59.438  0.00  0.00    +0.000 C 
ATOM     47  C   UNL     1      64.662  53.693  59.968  0.00  0.00    +0.000 C 
ATOM     48  C   UNL     1      64.090  54.928  60.674  0.00  0.00    +0.000 C 
ENDBRANCH  44  46
ENDBRANCH  42  44
ENDBRANCH  39  41
BRANCH  39  49
ATOM     49  O   UNL     1      63.736  50.655  54.579  0.00  0.00    +0.000 OA
ATOM     50  H   UNL     1      63.266  51.090  53.841  0.00  0.00    +0.000 HD
ENDBRANCH  39  49
ENDBRANCH   6  39
BRANCH   8  51
ATOM     51  C   UNL     1      58.899  52.120  54.506  0.00  0.00    +0.000 C 
BRANCH  51  52
ATOM     52  O   UNL     1      58.288  52.950  53.660  0.00  0.00    +0.000 OA
ATOM     53  H   UNL     1      57.317  52.838  53.699  0.00  0.00    +0.000 HD
ENDBRANCH  51  52
ENDBRANCH   8  51
TORSDOF 13
ENDMDL
MODEL 9
REMARK VINA RESULT:      -5.2      4.682      7.186
REMARK  Name = 102471178_CandidaspongiolideCore.pdbqt.pdb
REMARK  13 active torsions:
REMARK  status: ('A' for Active; 'I' for Inactive)
REMARK    1  A    between atoms: C_6  and  C_39
REMARK    2  A    between atoms: C_8  and  O_27
REMARK    3  A    between atoms: C_8  and  C_51
REMARK    4  A    between atoms: C_10  and  O_29
REMARK    5  A    between atoms: C_15  and  O_31
REMARK    6  A    between atoms: C_16  and  O_33
REMARK    7  A    between atoms: C_21  and  O_35
REMARK    8  A    between atoms: O_35  and  C_37
REMARK    9  A    between atoms: C_39  and  C_41
REMARK   10  A    between atoms: C_39  and  O_49
REMARK   11  A    between atoms: C_42  and  C_44
REMARK   12  A    between atoms: C_44  and  C_46
REMARK   13  A    between atoms: C_51  and  O_52
REMARK                            x       y       z     vdW  Elec       q    Type
REMARK                         _______ _______ _______ _____ _____    ______ ____
ROOT
ATOM      1  O   UNL     1      57.128  38.380  68.384  0.00  0.00    +0.000 OA
ATOM      2  O   UNL     1      57.455  36.774  69.993  0.00  0.00    +0.000 OA
ATOM      3  O   UNL     1      58.557  32.292  71.763  0.00  0.00    +0.000 OA
ATOM      4  O   UNL     1      58.280  40.113  69.259  0.00  0.00    +0.000 OA
ATOM      5  O   UNL     1      57.868  38.989  72.569  0.00  0.00    +0.000 OA
ATOM      6  C   UNL     1      57.221  36.172  67.684  0.00  0.00    +0.000 C 
ATOM      7  C   UNL     1      56.740  34.842  67.843  0.00  0.00    +0.000 C 
ATOM      8  C   UNL     1      56.165  33.495  67.863  0.00  0.00    +0.000 C 
ATOM      9  C   UNL     1      57.293  37.117  68.829  0.00  0.00    +0.000 C 
ATOM     10  C   UNL     1      57.117  32.476  68.452  0.00  0.00    +0.000 C 
ATOM     11  C   UNL     1      57.926  32.700  69.598  0.00  0.00    +0.000 C 
ATOM     12  C   UNL     1      58.703  33.009  70.780  0.00  0.00    +0.000 C 
ATOM     13  C   UNL     1      57.324  39.347  69.299  0.00  0.00    +0.000 C 
ATOM     14  C   UNL     1      59.615  34.193  70.799  0.00  0.00    +0.000 C 
ATOM     15  C   UNL     1      56.169  39.653  70.179  0.00  0.00    +0.000 C 
ATOM     16  C   UNL     1      55.383  38.659  70.880  0.00  0.00    +0.000 C 
ATOM     17  C   UNL     1      55.673  38.129  72.206  0.00  0.00    +0.000 C 
ATOM     18  C   UNL     1      59.836  34.886  72.014  0.00  0.00    +0.000 C 
ATOM     19  C   UNL     1      57.591  36.698  73.125  0.00  0.00    +0.000 C 
ATOM     20  C   UNL     1      60.094  34.873  69.524  0.00  0.00    +0.000 C 
ATOM     21  C   UNL     1      58.998  36.590  73.496  0.00  0.00    +0.000 C 
ATOM     22  C   UNL     1      57.097  38.030  72.649  0.00  0.00    +0.000 C 
ATOM     23  C   UNL     1      59.925  35.527  73.139  0.00  0.00    +0.000 C 
ATOM     24  C   UNL     1      54.575  37.968  73.253  0.00  0.00    +0.000 C 
ATOM     25  C   UNL     1      56.772  35.426  72.952  0.00  0.00    +0.000 C 
ATOM     26  C   UNL     1      61.078  35.138  74.029  0.00  0.00    +0.000 C 
ENDROOT
BRANCH   8  27
ATOM     27  O   UNL     1      55.925  33.156  66.495  0.00  0.00    +0.000 OA
ATOM     28  H   UNL     1      55.918  32.178  66.486  0.00  0.00    +0.000 HD
ENDBRANCH   8  27
BRANCH  10  29
ATOM     29  O   UNL     1      57.152  31.228  67.850  0.00  0.00    +0.000 OA
ATOM     30  H   UNL     1      57.638  30.574  68.386  0.00  0.00    +0.000 HD
ENDBRANCH  10  29
BRANCH  15  31
ATOM     31  O   UNL     1      56.114  40.913  70.755  0.00  0.00    +0.000 OA
ATOM     32  H   UNL     1      56.918  41.429  70.529  0.00  0.00    +0.000 HD
ENDBRANCH  15  31
BRANCH  16  33
ATOM     33  O   UNL     1      54.055  38.584  70.501  0.00  0.00    +0.000 OA
ATOM     34  C   UNL     1      53.876  37.476  69.652  0.00  0.00    +0.000 C 
ENDBRANCH  16  33
BRANCH  21  35
ATOM     35  O   UNL     1      59.428  37.553  74.445  0.00  0.00    +0.000 OA
BRANCH  35  37
ATOM     36  O   UNL     1      57.856  38.292  76.011  0.00  0.00    +0.000 OA
ATOM     37  C   UNL     1      58.705  37.523  75.598  0.00  0.00    +0.000 C 
ATOM     38  C   UNL     1      58.973  36.346  76.464  0.00  0.00    +0.000 C 
ENDBRANCH  35  37
ENDBRANCH  21  35
BRANCH   6  39
ATOM     39  C   UNL     1      57.723  36.546  66.381  0.00  0.00    +0.000 C 
BRANCH  39  41
ATOM     40  O   UNL     1      59.802  37.413  65.188  0.00  0.00    +0.000 OA
ATOM     41  C   UNL     1      59.181  36.468  66.089  0.00  0.00    +0.000 C 
ATOM     42  C   UNL     1      59.897  37.663  66.528  0.00  0.00    +0.000 C 
ATOM     43  C   UNL     1      59.850  35.058  65.909  0.00  0.00    +0.000 C 
BRANCH  42  44
ATOM     44  C   UNL     1      61.205  37.656  67.108  0.00  0.00    +0.000 C 
ATOM     45  C   UNL     1      62.427  37.792  66.229  0.00  0.00    +0.000 C 
BRANCH  44  46
ATOM     46  C   UNL     1      61.388  37.986  68.475  0.00  0.00    +0.000 C 
ATOM     47  C   UNL     1      61.549  38.216  69.641  0.00  0.00    +0.000 C 
ATOM     48  C   UNL     1      61.774  38.442  71.142  0.00  0.00    +0.000 C 
ENDBRANCH  44  46
ENDBRANCH  42  44
ENDBRANCH  39  41
BRANCH  39  49
ATOM     49  O   UNL     1      56.800  37.035  65.471  0.00  0.00    +0.000 OA
ATOM     50  H   UNL     1      56.348  36.348  64.946  0.00  0.00    +0.000 HD
ENDBRANCH  39  49
ENDBRANCH   6  39
BRANCH   8  51
ATOM     51  C   UNL     1      54.873  33.456  68.567  0.00  0.00    +0.000 C 
BRANCH  51  52
ATOM     52  O   UNL     1      53.688  33.393  69.175  0.00  0.00    +0.000 OA
ATOM     53  H   UNL     1      53.471  34.242  69.609  0.00  0.00    +0.000 HD
ENDBRANCH  51  52
ENDBRANCH   8  51
TORSDOF 13
ENDMDL
