MODEL 1
REMARK VINA RESULT:      -5.7      0.000      0.000
REMARK  Name = 10288191_Binimetinib.pdbqt.pdb
REMARK  6 active torsions:
REMARK  status: ('A' for Active; 'I' for Inactive)
REMARK    1  A    between atoms: C_6  and  N_21
REMARK    2  A    between atoms: C_7  and  C_14
REMARK    3  A    between atoms: N_13  and  O_16
REMARK    4  A    between atoms: O_16  and  C_17
REMARK    5  A    between atoms: C_18  and  O_19
REMARK    6  A    between atoms: N_21  and  C_25
REMARK                            x       y       z     vdW  Elec       q    Type
REMARK                         _______ _______ _______ _____ _____    ______ ____
ROOT
ATOM      1  F   UNL     1      62.885  41.641  69.672  0.00  0.00    +0.000 F 
ATOM      2  N   UNL     1      60.562  38.496  67.404  0.00  0.00    +0.000 N 
ATOM      3  N   UNL     1      60.493  40.444  68.438  0.00  0.00    +0.000 NA
ATOM      4  C   UNL     1      61.848  38.715  67.805  0.00  0.00    +0.000 A 
ATOM      5  C   UNL     1      61.784  39.947  68.449  0.00  0.00    +0.000 A 
ATOM      6  C   UNL     1      64.197  39.797  68.892  0.00  0.00    +0.000 A 
ATOM      7  C   UNL     1      64.205  38.536  68.238  0.00  0.00    +0.000 A 
ATOM      8  C   UNL     1      63.033  37.985  67.689  0.00  0.00    +0.000 A 
ATOM      9  C   UNL     1      62.965  40.485  68.995  0.00  0.00    +0.000 A 
ATOM     10  C   UNL     1      59.779  39.540  67.795  0.00  0.00    +0.000 A 
ATOM     11  C   UNL     1      60.104  37.362  66.672  0.00  0.00    +0.000 C 
ENDROOT
BRANCH   7  14
ATOM     12  O   UNL     1      65.803  37.012  69.070  0.00  0.00    +0.000 OA
ATOM     13  N   UNL     1      66.166  37.835  66.949  0.00  0.00    +0.000 N 
ATOM     14  C   UNL     1      65.459  37.724  68.130  0.00  0.00    +0.000 C 
ATOM     15  H   UNL     1      66.091  38.653  66.357  0.00  0.00    +0.000 HD
BRANCH  13  16
ATOM     16  O   UNL     1      67.464  37.284  67.008  0.00  0.00    +0.000 OA
BRANCH  16  17
ATOM     17  C   UNL     1      67.938  37.315  65.764  0.00  0.00    +0.000 C 
ATOM     18  C   UNL     1      68.473  37.356  64.328  0.00  0.00    +0.000 C 
BRANCH  18  19
ATOM     19  O   UNL     1      68.930  37.398  63.082  0.00  0.00    +0.000 OA
ATOM     20  H   UNL     1      68.188  37.416  62.453  0.00  0.00    +0.000 HD
ENDBRANCH  18  19
ENDBRANCH  16  17
ENDBRANCH  13  16
ENDBRANCH   7  14
BRANCH   6  21
ATOM     21  N   UNL     1      65.401  40.352  69.396  0.00  0.00    +0.000 N 
ATOM     22  H   UNL     1      65.860  40.996  68.734  0.00  0.00    +0.000 HD
BRANCH  21  25
ATOM     23 BR   UNL     1      67.371  40.994  75.131  0.00  0.00    +0.000 Br
ATOM     24  F   UNL     1      67.594  38.983  70.357  0.00  0.00    +0.000 F 
ATOM     25  C   UNL     1      65.854  40.554  70.716  0.00  0.00    +0.000 A 
ATOM     26  C   UNL     1      66.957  39.823  71.189  0.00  0.00    +0.000 A 
ATOM     27  C   UNL     1      65.209  41.400  71.621  0.00  0.00    +0.000 A 
ATOM     28  C   UNL     1      67.419  39.946  72.495  0.00  0.00    +0.000 A 
ATOM     29  C   UNL     1      65.658  41.538  72.935  0.00  0.00    +0.000 A 
ATOM     30  C   UNL     1      66.761  40.808  73.360  0.00  0.00    +0.000 A 
ENDBRANCH  21  25
ENDBRANCH   6  21
TORSDOF 6
ENDMDL
MODEL 2
REMARK VINA RESULT:      -5.6     25.986     27.466
REMARK  Name = 10288191_Binimetinib.pdbqt.pdb
REMARK  6 active torsions:
REMARK  status: ('A' for Active; 'I' for Inactive)
REMARK    1  A    between atoms: C_6  and  N_21
REMARK    2  A    between atoms: C_7  and  C_14
REMARK    3  A    between atoms: N_13  and  O_16
REMARK    4  A    between atoms: O_16  and  C_17
REMARK    5  A    between atoms: C_18  and  O_19
REMARK    6  A    between atoms: N_21  and  C_25
REMARK                            x       y       z     vdW  Elec       q    Type
REMARK                         _______ _______ _______ _____ _____    ______ ____
ROOT
ATOM      1  F   UNL     1      56.992  66.595  71.364  0.00  0.00    +0.000 F 
ATOM      2  N   UNL     1      52.791  66.074  69.778  0.00  0.00    +0.000 N 
ATOM      3  N   UNL     1      54.074  66.994  71.321  0.00  0.00    +0.000 NA
ATOM      4  C   UNL     1      54.057  65.686  69.446  0.00  0.00    +0.000 A 
ATOM      5  C   UNL     1      54.848  66.278  70.426  0.00  0.00    +0.000 A 
ATOM      6  C   UNL     1      56.833  65.297  69.360  0.00  0.00    +0.000 A 
ATOM      7  C   UNL     1      55.980  64.702  68.393  0.00  0.00    +0.000 A 
ATOM      8  C   UNL     1      54.586  64.892  68.427  0.00  0.00    +0.000 A 
ATOM      9  C   UNL     1      56.241  66.078  70.380  0.00  0.00    +0.000 A 
ATOM     10  C   UNL     1      52.832  66.850  70.897  0.00  0.00    +0.000 A 
ATOM     11  C   UNL     1      51.606  65.741  69.059  0.00  0.00    +0.000 C 
ENDROOT
BRANCH   7  14
ATOM     12  O   UNL     1      57.545  64.157  66.713  0.00  0.00    +0.000 OA
ATOM     13  N   UNL     1      55.824  62.662  67.048  0.00  0.00    +0.000 N 
ATOM     14  C   UNL     1      56.525  63.822  67.310  0.00  0.00    +0.000 C 
ATOM     15  H   UNL     1      54.839  62.572  67.266  0.00  0.00    +0.000 HD
BRANCH  13  16
ATOM     16  O   UNL     1      56.208  62.023  65.849  0.00  0.00    +0.000 OA
BRANCH  16  17
ATOM     17  C   UNL     1      55.143  61.340  65.433  0.00  0.00    +0.000 C 
ATOM     18  C   UNL     1      53.912  60.565  64.952  0.00  0.00    +0.000 C 
BRANCH  18  19
ATOM     19  O   UNL     1      52.840  59.901  64.533  0.00  0.00    +0.000 OA
ATOM     20  H   UNL     1      52.160  60.523  64.224  0.00  0.00    +0.000 HD
ENDBRANCH  18  19
ENDBRANCH  16  17
ENDBRANCH  13  16
ENDBRANCH   7  14
BRANCH   6  21
ATOM     21  N   UNL     1      58.239  65.128  69.277  0.00  0.00    +0.000 N 
ATOM     22  H   UNL     1      58.525  64.141  69.184  0.00  0.00    +0.000 HD
BRANCH  21  25
ATOM     23 BR   UNL     1      62.741  68.924  67.693  0.00  0.00    +0.000 Br
ATOM     24  F   UNL     1      60.866  64.662  69.974  0.00  0.00    +0.000 F 
ATOM     25  C   UNL     1      59.261  66.006  68.859  0.00  0.00    +0.000 A 
ATOM     26  C   UNL     1      60.587  65.759  69.252  0.00  0.00    +0.000 A 
ATOM     27  C   UNL     1      59.014  67.169  68.127  0.00  0.00    +0.000 A 
ATOM     28  C   UNL     1      61.630  66.615  68.911  0.00  0.00    +0.000 A 
ATOM     29  C   UNL     1      60.045  68.039  67.774  0.00  0.00    +0.000 A 
ATOM     30  C   UNL     1      61.347  67.753  68.169  0.00  0.00    +0.000 A 
ENDBRANCH  21  25
ENDBRANCH   6  21
TORSDOF 6
ENDMDL
MODEL 3
REMARK VINA RESULT:      -5.6      4.120      6.253
REMARK  Name = 10288191_Binimetinib.pdbqt.pdb
REMARK  6 active torsions:
REMARK  status: ('A' for Active; 'I' for Inactive)
REMARK    1  A    between atoms: C_6  and  N_21
REMARK    2  A    between atoms: C_7  and  C_14
REMARK    3  A    between atoms: N_13  and  O_16
REMARK    4  A    between atoms: O_16  and  C_17
REMARK    5  A    between atoms: C_18  and  O_19
REMARK    6  A    between atoms: N_21  and  C_25
REMARK                            x       y       z     vdW  Elec       q    Type
REMARK                         _______ _______ _______ _____ _____    ______ ____
ROOT
ATOM      1  F   UNL     1      64.093  39.077  67.854  0.00  0.00    +0.000 F 
ATOM      2  N   UNL     1      60.568  36.354  67.080  0.00  0.00    +0.000 N 
ATOM      3  N   UNL     1      62.565  37.013  66.410  0.00  0.00    +0.000 NA
ATOM      4  C   UNL     1      60.951  37.280  68.007  0.00  0.00    +0.000 A 
ATOM      5  C   UNL     1      62.211  37.679  67.569  0.00  0.00    +0.000 A 
ATOM      6  C   UNL     1      62.351  39.206  69.490  0.00  0.00    +0.000 A 
ATOM      7  C   UNL     1      61.056  38.776  69.885  0.00  0.00    +0.000 A 
ATOM      8  C   UNL     1      60.346  37.810  69.148  0.00  0.00    +0.000 A 
ATOM      9  C   UNL     1      62.908  38.648  68.316  0.00  0.00    +0.000 A 
ATOM     10  C   UNL     1      61.547  36.217  66.143  0.00  0.00    +0.000 A 
ATOM     11  C   UNL     1      59.344  35.625  67.094  0.00  0.00    +0.000 C 
ENDROOT
BRANCH   7  14
ATOM     12  O   UNL     1      60.093  40.549  71.108  0.00  0.00    +0.000 OA
ATOM     13  N   UNL     1      60.113  38.482  72.126  0.00  0.00    +0.000 N 
ATOM     14  C   UNL     1      60.378  39.354  71.089  0.00  0.00    +0.000 C 
ATOM     15  H   UNL     1      60.647  37.632  72.259  0.00  0.00    +0.000 HD
BRANCH  13  16
ATOM     16  O   UNL     1      59.741  39.122  73.328  0.00  0.00    +0.000 OA
BRANCH  16  17
ATOM     17  C   UNL     1      58.731  38.414  73.830  0.00  0.00    +0.000 C 
ATOM     18  C   UNL     1      57.574  37.587  74.402  0.00  0.00    +0.000 C 
BRANCH  18  19
ATOM     19  O   UNL     1      56.576  36.864  74.896  0.00  0.00    +0.000 OA
ATOM     20  H   UNL     1      56.780  36.588  75.806  0.00  0.00    +0.000 HD
ENDBRANCH  18  19
ENDBRANCH  16  17
ENDBRANCH  13  16
ENDBRANCH   7  14
BRANCH   6  21
ATOM     21  N   UNL     1      63.065  40.147  70.276  0.00  0.00    +0.000 N 
ATOM     22  H   UNL     1      62.496  40.964  70.548  0.00  0.00    +0.000 HD
BRANCH  21  25
ATOM     23 BR   UNL     1      68.079  39.443  73.675  0.00  0.00    +0.000 Br
ATOM     24  F   UNL     1      65.526  41.102  69.478  0.00  0.00    +0.000 F 
ATOM     25  C   UNL     1      64.196  40.002  71.105  0.00  0.00    +0.000 A 
ATOM     26  C   UNL     1      65.443  40.473  70.661  0.00  0.00    +0.000 A 
ATOM     27  C   UNL     1      64.161  39.336  72.333  0.00  0.00    +0.000 A 
ATOM     28  C   UNL     1      66.602  40.317  71.414  0.00  0.00    +0.000 A 
ATOM     29  C   UNL     1      65.312  39.170  73.103  0.00  0.00    +0.000 A 
ATOM     30  C   UNL     1      66.525  39.664  72.636  0.00  0.00    +0.000 A 
ENDBRANCH  21  25
ENDBRANCH   6  21
TORSDOF 6
ENDMDL
MODEL 4
REMARK VINA RESULT:      -5.6     14.275     18.175
REMARK  Name = 10288191_Binimetinib.pdbqt.pdb
REMARK  6 active torsions:
REMARK  status: ('A' for Active; 'I' for Inactive)
REMARK    1  A    between atoms: C_6  and  N_21
REMARK    2  A    between atoms: C_7  and  C_14
REMARK    3  A    between atoms: N_13  and  O_16
REMARK    4  A    between atoms: O_16  and  C_17
REMARK    5  A    between atoms: C_18  and  O_19
REMARK    6  A    between atoms: N_21  and  C_25
REMARK                            x       y       z     vdW  Elec       q    Type
REMARK                         _______ _______ _______ _____ _____    ______ ____
ROOT
ATOM      1  F   UNL     1      53.556  32.369  60.673  0.00  0.00    +0.000 F 
ATOM      2  N   UNL     1      53.807  35.441  63.979  0.00  0.00    +0.000 N 
ATOM      3  N   UNL     1      54.676  33.615  63.095  0.00  0.00    +0.000 NA
ATOM      4  C   UNL     1      53.042  35.199  62.875  0.00  0.00    +0.000 A 
ATOM      5  C   UNL     1      53.608  34.049  62.332  0.00  0.00    +0.000 A 
ATOM      6  C   UNL     1      51.939  34.127  60.529  0.00  0.00    +0.000 A 
ATOM      7  C   UNL     1      51.390  35.290  61.132  0.00  0.00    +0.000 A 
ATOM      8  C   UNL     1      51.936  35.835  62.309  0.00  0.00    +0.000 A 
ATOM      9  C   UNL     1      53.049  33.513  61.156  0.00  0.00    +0.000 A 
ATOM     10  C   UNL     1      54.770  34.484  64.084  0.00  0.00    +0.000 A 
ATOM     11  C   UNL     1      53.643  36.537  64.876  0.00  0.00    +0.000 C 
ENDROOT
BRANCH   7  14
ATOM     12  O   UNL     1      50.231  36.421  59.416  0.00  0.00    +0.000 OA
ATOM     13  N   UNL     1      49.074  36.046  61.372  0.00  0.00    +0.000 N 
ATOM     14  C   UNL     1      50.185  35.969  60.557  0.00  0.00    +0.000 C 
ATOM     15  H   UNL     1      49.148  36.010  62.381  0.00  0.00    +0.000 HD
BRANCH  13  16
ATOM     16  O   UNL     1      48.080  36.932  60.900  0.00  0.00    +0.000 OA
BRANCH  16  17
ATOM     17  C   UNL     1      47.046  36.808  61.728  0.00  0.00    +0.000 C 
ATOM     18  C   UNL     1      45.854  36.652  62.679  0.00  0.00    +0.000 C 
BRANCH  18  19
ATOM     19  O   UNL     1      44.821  36.508  63.502  0.00  0.00    +0.000 OA
ATOM     20  H   UNL     1      45.050  36.836  64.388  0.00  0.00    +0.000 HD
ENDBRANCH  18  19
ENDBRANCH  16  17
ENDBRANCH  13  16
ENDBRANCH   7  14
BRANCH   6  21
ATOM     21  N   UNL     1      51.398  33.624  59.318  0.00  0.00    +0.000 N 
ATOM     22  H   UNL     1      50.366  33.637  59.297  0.00  0.00    +0.000 HD
BRANCH  21  25
ATOM     23 BR   UNL     1      53.933  33.096  53.797  0.00  0.00    +0.000 Br
ATOM     24  F   UNL     1      52.266  31.201  58.327  0.00  0.00    +0.000 F 
ATOM     25  C   UNL     1      51.943  33.531  58.021  0.00  0.00    +0.000 A 
ATOM     26  C   UNL     1      52.403  32.289  57.551  0.00  0.00    +0.000 A 
ATOM     27  C   UNL     1      52.125  34.638  57.189  0.00  0.00    +0.000 A 
ATOM     28  C   UNL     1      52.992  32.145  56.300  0.00  0.00    +0.000 A 
ATOM     29  C   UNL     1      52.713  34.514  55.931  0.00  0.00    +0.000 A 
ATOM     30  C   UNL     1      53.141  33.266  55.496  0.00  0.00    +0.000 A 
ENDBRANCH  21  25
ENDBRANCH   6  21
TORSDOF 6
ENDMDL
MODEL 5
REMARK VINA RESULT:      -5.4      6.008      8.644
REMARK  Name = 10288191_Binimetinib.pdbqt.pdb
REMARK  6 active torsions:
REMARK  status: ('A' for Active; 'I' for Inactive)
REMARK    1  A    between atoms: C_6  and  N_21
REMARK    2  A    between atoms: C_7  and  C_14
REMARK    3  A    between atoms: N_13  and  O_16
REMARK    4  A    between atoms: O_16  and  C_17
REMARK    5  A    between atoms: C_18  and  O_19
REMARK    6  A    between atoms: N_21  and  C_25
REMARK                            x       y       z     vdW  Elec       q    Type
REMARK                         _______ _______ _______ _____ _____    ______ ____
ROOT
ATOM      1  F   UNL     1      56.575  37.873  63.722  0.00  0.00    +0.000 F 
ATOM      2  N   UNL     1      54.377  34.052  62.725  0.00  0.00    +0.000 N 
ATOM      3  N   UNL     1      54.401  36.253  62.572  0.00  0.00    +0.000 NA
ATOM      4  C   UNL     1      55.537  34.424  63.341  0.00  0.00    +0.000 A 
ATOM      5  C   UNL     1      55.534  35.812  63.230  0.00  0.00    +0.000 A 
ATOM      6  C   UNL     1      57.687  35.870  64.415  0.00  0.00    +0.000 A 
ATOM      7  C   UNL     1      57.634  34.455  64.514  0.00  0.00    +0.000 A 
ATOM      8  C   UNL     1      56.560  33.720  63.979  0.00  0.00    +0.000 A 
ATOM      9  C   UNL     1      56.615  36.533  63.773  0.00  0.00    +0.000 A 
ATOM     10  C   UNL     1      53.723  35.160  62.278  0.00  0.00    +0.000 A 
ATOM     11  C   UNL     1      53.924  32.711  62.553  0.00  0.00    +0.000 C 
ENDROOT
BRANCH   7  14
ATOM     12  O   UNL     1      58.522  33.309  66.377  0.00  0.00    +0.000 OA
ATOM     13  N   UNL     1      59.862  33.440  64.507  0.00  0.00    +0.000 N 
ATOM     14  C   UNL     1      58.706  33.683  65.221  0.00  0.00    +0.000 C 
ATOM     15  H   UNL     1      60.148  34.030  63.736  0.00  0.00    +0.000 HD
BRANCH  13  16
ATOM     16  O   UNL     1      60.932  32.970  65.299  0.00  0.00    +0.000 OA
BRANCH  16  17
ATOM     17  C   UNL     1      61.649  34.041  65.632  0.00  0.00    +0.000 C 
ATOM     18  C   UNL     1      62.465  35.278  66.025  0.00  0.00    +0.000 C 
BRANCH  18  19
ATOM     19  O   UNL     1      63.167  36.351  66.372  0.00  0.00    +0.000 OA
ATOM     20  H   UNL     1      64.018  36.083  66.758  0.00  0.00    +0.000 HD
ENDBRANCH  18  19
ENDBRANCH  16  17
ENDBRANCH  13  16
ENDBRANCH   7  14
BRANCH   6  21
ATOM     21  N   UNL     1      58.803  36.583  64.923  0.00  0.00    +0.000 N 
ATOM     22  H   UNL     1      59.422  36.951  64.183  0.00  0.00    +0.000 HD
BRANCH  21  25
ATOM     23 BR   UNL     1      59.894  39.422  70.209  0.00  0.00    +0.000 Br
ATOM     24  F   UNL     1      60.932  38.305  65.252  0.00  0.00    +0.000 F 
ATOM     25  C   UNL     1      59.003  37.254  66.147  0.00  0.00    +0.000 A 
ATOM     26  C   UNL     1      60.112  38.104  66.296  0.00  0.00    +0.000 A 
ATOM     27  C   UNL     1      58.188  37.059  67.265  0.00  0.00    +0.000 A 
ATOM     28  C   UNL     1      60.387  38.756  67.494  0.00  0.00    +0.000 A 
ATOM     29  C   UNL     1      58.447  37.704  68.474  0.00  0.00    +0.000 A 
ATOM     30  C   UNL     1      59.545  38.549  68.578  0.00  0.00    +0.000 A 
ENDBRANCH  21  25
ENDBRANCH   6  21
TORSDOF 6
ENDMDL
MODEL 6
REMARK VINA RESULT:      -5.2     25.150     27.002
REMARK  Name = 10288191_Binimetinib.pdbqt.pdb
REMARK  6 active torsions:
REMARK  status: ('A' for Active; 'I' for Inactive)
REMARK    1  A    between atoms: C_6  and  N_21
REMARK    2  A    between atoms: C_7  and  C_14
REMARK    3  A    between atoms: N_13  and  O_16
REMARK    4  A    between atoms: O_16  and  C_17
REMARK    5  A    between atoms: C_18  and  O_19
REMARK    6  A    between atoms: N_21  and  C_25
REMARK                            x       y       z     vdW  Elec       q    Type
REMARK                         _______ _______ _______ _____ _____    ______ ____
ROOT
ATOM      1  F   UNL     1      59.991  64.519  66.825  0.00  0.00    +0.000 F 
ATOM      2  N   UNL     1      57.359  66.389  69.988  0.00  0.00    +0.000 N 
ATOM      3  N   UNL     1      59.359  66.333  69.058  0.00  0.00    +0.000 NA
ATOM      4  C   UNL     1      57.246  65.463  68.992  0.00  0.00    +0.000 A 
ATOM      5  C   UNL     1      58.513  65.446  68.417  0.00  0.00    +0.000 A 
ATOM      6  C   UNL     1      57.726  63.744  66.828  0.00  0.00    +0.000 A 
ATOM      7  C   UNL     1      56.455  63.788  67.460  0.00  0.00    +0.000 A 
ATOM      8  C   UNL     1      56.204  64.647  68.546  0.00  0.00    +0.000 A 
ATOM      9  C   UNL     1      58.750  64.579  67.333  0.00  0.00    +0.000 A 
ATOM     10  C   UNL     1      58.625  66.889  70.003  0.00  0.00    +0.000 A 
ATOM     11  C   UNL     1      56.311  66.792  70.867  0.00  0.00    +0.000 C 
ENDROOT
BRANCH   7  14
ATOM     12  O   UNL     1      54.793  63.102  65.932  0.00  0.00    +0.000 OA
ATOM     13  N   UNL     1      54.973  61.886  67.880  0.00  0.00    +0.000 N 
ATOM     14  C   UNL     1      55.334  62.899  67.016  0.00  0.00    +0.000 C 
ATOM     15  H   UNL     1      55.154  61.942  68.875  0.00  0.00    +0.000 HD
BRANCH  13  16
ATOM     16  O   UNL     1      53.747  61.267  67.552  0.00  0.00    +0.000 OA
BRANCH  16  17
ATOM     17  C   UNL     1      52.805  61.926  68.226  0.00  0.00    +0.000 C 
ATOM     18  C   UNL     1      51.731  62.687  69.010  0.00  0.00    +0.000 C 
BRANCH  18  19
ATOM     19  O   UNL     1      50.806  63.350  69.695  0.00  0.00    +0.000 OA
ATOM     20  H   UNL     1      51.227  63.915  70.366  0.00  0.00    +0.000 HD
ENDBRANCH  18  19
ENDBRANCH  16  17
ENDBRANCH  13  16
ENDBRANCH   7  14
BRANCH   6  21
ATOM     21  N   UNL     1      57.941  62.902  65.706  0.00  0.00    +0.000 N 
ATOM     22  H   UNL     1      57.752  61.907  65.902  0.00  0.00    +0.000 HD
BRANCH  21  25
ATOM     23 BR   UNL     1      57.972  63.860  59.684  0.00  0.00    +0.000 Br
ATOM     24  F   UNL     1      57.141  60.970  63.908  0.00  0.00    +0.000 F 
ATOM     25  C   UNL     1      57.923  63.171  64.321  0.00  0.00    +0.000 A 
ATOM     26  C   UNL     1      57.537  62.160  63.426  0.00  0.00    +0.000 A 
ATOM     27  C   UNL     1      58.346  64.385  63.775  0.00  0.00    +0.000 A 
ATOM     28  C   UNL     1      57.544  62.351  62.048  0.00  0.00    +0.000 A 
ATOM     29  C   UNL     1      58.360  64.596  62.397  0.00  0.00    +0.000 A 
ATOM     30  C   UNL     1      57.957  63.576  61.544  0.00  0.00    +0.000 A 
ENDBRANCH  21  25
ENDBRANCH   6  21
TORSDOF 6
ENDMDL
MODEL 7
REMARK VINA RESULT:      -5.2      5.092      7.824
REMARK  Name = 10288191_Binimetinib.pdbqt.pdb
REMARK  6 active torsions:
REMARK  status: ('A' for Active; 'I' for Inactive)
REMARK    1  A    between atoms: C_6  and  N_21
REMARK    2  A    between atoms: C_7  and  C_14
REMARK    3  A    between atoms: N_13  and  O_16
REMARK    4  A    between atoms: O_16  and  C_17
REMARK    5  A    between atoms: C_18  and  O_19
REMARK    6  A    between atoms: N_21  and  C_25
REMARK                            x       y       z     vdW  Elec       q    Type
REMARK                         _______ _______ _______ _____ _____    ______ ____
ROOT
ATOM      1  F   UNL     1      56.768  37.585  68.141  0.00  0.00    +0.000 F 
ATOM      2  N   UNL     1      60.626  36.120  66.297  0.00  0.00    +0.000 N 
ATOM      3  N   UNL     1      58.433  35.893  66.397  0.00  0.00    +0.000 NA
ATOM      4  C   UNL     1      60.223  37.084  67.175  0.00  0.00    +0.000 A 
ATOM      5  C   UNL     1      58.841  36.927  67.220  0.00  0.00    +0.000 A 
ATOM      6  C   UNL     1      58.723  38.789  68.820  0.00  0.00    +0.000 A 
ATOM      7  C   UNL     1      60.137  38.897  68.749  0.00  0.00    +0.000 A 
ATOM      8  C   UNL     1      60.899  38.047  67.927  0.00  0.00    +0.000 A 
ATOM      9  C   UNL     1      58.092  37.784  68.050  0.00  0.00    +0.000 A 
ATOM     10  C   UNL     1      59.541  35.428  65.851  0.00  0.00    +0.000 A 
ATOM     11  C   UNL     1      61.971  35.881  65.888  0.00  0.00    +0.000 C 
ENDROOT
BRANCH   7  14
ATOM     12  O   UNL     1      60.346  40.395  70.561  0.00  0.00    +0.000 OA
ATOM     13  N   UNL     1      62.158  40.221  69.148  0.00  0.00    +0.000 N 
ATOM     14  C   UNL     1      60.882  39.904  69.571  0.00  0.00    +0.000 C 
ATOM     15  H   UNL     1      62.445  40.106  68.184  0.00  0.00    +0.000 HD
BRANCH  13  16
ATOM     16  O   UNL     1      62.699  41.363  69.777  0.00  0.00    +0.000 OA
BRANCH  16  17
ATOM     17  C   UNL     1      63.911  41.015  70.203  0.00  0.00    +0.000 C 
ATOM     18  C   UNL     1      65.307  40.625  70.702  0.00  0.00    +0.000 C 
BRANCH  18  19
ATOM     19  O   UNL     1      66.516  40.293  71.140  0.00  0.00    +0.000 OA
ATOM     20  H   UNL     1      66.472  39.465  71.648  0.00  0.00    +0.000 HD
ENDBRANCH  18  19
ENDBRANCH  16  17
ENDBRANCH  13  16
ENDBRANCH   7  14
BRANCH   6  21
ATOM     21  N   UNL     1      57.974  39.688  69.622  0.00  0.00    +0.000 N 
ATOM     22  H   UNL     1      57.907  40.635  69.217  0.00  0.00    +0.000 HD
BRANCH  21  25
ATOM     23 BR   UNL     1      53.567  38.942  73.770  0.00  0.00    +0.000 Br
ATOM     24  F   UNL     1      55.403  40.599  69.213  0.00  0.00    +0.000 F 
ATOM     25  C   UNL     1      56.969  39.463  70.586  0.00  0.00    +0.000 A 
ATOM     26  C   UNL     1      55.674  39.963  70.364  0.00  0.00    +0.000 A 
ATOM     27  C   UNL     1      57.211  38.826  71.805  0.00  0.00    +0.000 A 
ATOM     28  C   UNL     1      54.655  39.813  71.299  0.00  0.00    +0.000 A 
ATOM     29  C   UNL     1      56.202  38.665  72.754  0.00  0.00    +0.000 A 
ATOM     30  C   UNL     1      54.931  39.160  72.492  0.00  0.00    +0.000 A 
ENDBRANCH  21  25
ENDBRANCH   6  21
TORSDOF 6
ENDMDL
MODEL 8
REMARK VINA RESULT:      -5.2     16.335     18.259
REMARK  Name = 10288191_Binimetinib.pdbqt.pdb
REMARK  6 active torsions:
REMARK  status: ('A' for Active; 'I' for Inactive)
REMARK    1  A    between atoms: C_6  and  N_21
REMARK    2  A    between atoms: C_7  and  C_14
REMARK    3  A    between atoms: N_13  and  O_16
REMARK    4  A    between atoms: O_16  and  C_17
REMARK    5  A    between atoms: C_18  and  O_19
REMARK    6  A    between atoms: N_21  and  C_25
REMARK                            x       y       z     vdW  Elec       q    Type
REMARK                         _______ _______ _______ _____ _____    ______ ____
ROOT
ATOM      1  F   UNL     1      52.818  35.135  54.846  0.00  0.00    +0.000 F 
ATOM      2  N   UNL     1      51.222  35.977  58.991  0.00  0.00    +0.000 N 
ATOM      3  N   UNL     1      51.558  36.760  56.955  0.00  0.00    +0.000 NA
ATOM      4  C   UNL     1      51.788  34.936  58.314  0.00  0.00    +0.000 A 
ATOM      5  C   UNL     1      51.987  35.448  57.035  0.00  0.00    +0.000 A 
ATOM      6  C   UNL     1      52.938  33.284  56.360  0.00  0.00    +0.000 A 
ATOM      7  C   UNL     1      52.727  32.815  57.683  0.00  0.00    +0.000 A 
ATOM      8  C   UNL     1      52.151  33.636  58.671  0.00  0.00    +0.000 A 
ATOM      9  C   UNL     1      52.567  34.616  56.058  0.00  0.00    +0.000 A 
ATOM     10  C   UNL     1      51.098  37.047  58.158  0.00  0.00    +0.000 A 
ATOM     11  C   UNL     1      50.804  35.949  60.353  0.00  0.00    +0.000 C 
ENDROOT
BRANCH   7  14
ATOM     12  O   UNL     1      52.704  30.464  57.476  0.00  0.00    +0.000 OA
ATOM     13  N   UNL     1      53.996  31.341  59.171  0.00  0.00    +0.000 N 
ATOM     14  C   UNL     1      53.137  31.434  58.094  0.00  0.00    +0.000 C 
ATOM     15  H   UNL     1      54.055  32.070  59.871  0.00  0.00    +0.000 HD
BRANCH  13  16
ATOM     16  O   UNL     1      54.122  30.034  59.688  0.00  0.00    +0.000 OA
BRANCH  16  17
ATOM     17  C   UNL     1      55.425  29.828  59.868  0.00  0.00    +0.000 C 
ATOM     18  C   UNL     1      56.927  29.605  60.074  0.00  0.00    +0.000 C 
BRANCH  18  19
ATOM     19  O   UNL     1      58.230  29.419  60.252  0.00  0.00    +0.000 OA
ATOM     20  H   UNL     1      58.736  30.033  59.693  0.00  0.00    +0.000 HD
ENDBRANCH  18  19
ENDBRANCH  16  17
ENDBRANCH  13  16
ENDBRANCH   7  14
BRANCH   6  21
ATOM     21  N   UNL     1      53.478  32.422  55.371  0.00  0.00    +0.000 N 
ATOM     22  H   UNL     1      52.777  32.099  54.687  0.00  0.00    +0.000 HD
BRANCH  21  25
ATOM     23 BR   UNL     1      59.066  31.737  53.026  0.00  0.00    +0.000 Br
ATOM     24  F   UNL     1      54.213  33.563  52.970  0.00  0.00    +0.000 F 
ATOM     25  C   UNL     1      54.791  32.277  54.877  0.00  0.00    +0.000 A 
ATOM     26  C   UNL     1      55.130  32.845  53.638  0.00  0.00    +0.000 A 
ATOM     27  C   UNL     1      55.770  31.522  55.527  0.00  0.00    +0.000 A 
ATOM     28  C   UNL     1      56.395  32.695  53.078  0.00  0.00    +0.000 A 
ATOM     29  C   UNL     1      57.044  31.361  54.983  0.00  0.00    +0.000 A 
ATOM     30  C   UNL     1      57.346  31.951  53.761  0.00  0.00    +0.000 A 
ENDBRANCH  21  25
ENDBRANCH   6  21
TORSDOF 6
ENDMDL
MODEL 9
REMARK VINA RESULT:      -5.2     16.851     18.652
REMARK  Name = 10288191_Binimetinib.pdbqt.pdb
REMARK  6 active torsions:
REMARK  status: ('A' for Active; 'I' for Inactive)
REMARK    1  A    between atoms: C_6  and  N_21
REMARK    2  A    between atoms: C_7  and  C_14
REMARK    3  A    between atoms: N_13  and  O_16
REMARK    4  A    between atoms: O_16  and  C_17
REMARK    5  A    between atoms: C_18  and  O_19
REMARK    6  A    between atoms: N_21  and  C_25
REMARK                            x       y       z     vdW  Elec       q    Type
REMARK                         _______ _______ _______ _____ _____    ______ ____
ROOT
ATOM      1  F   UNL     1      69.309  56.398  64.923  0.00  0.00    +0.000 F 
ATOM      2  N   UNL     1      71.011  59.852  67.290  0.00  0.00    +0.000 N 
ATOM      3  N   UNL     1      69.497  59.195  65.825  0.00  0.00    +0.000 NA
ATOM      4  C   UNL     1      71.225  58.510  67.157  0.00  0.00    +0.000 A 
ATOM      5  C   UNL     1      70.260  58.116  66.234  0.00  0.00    +0.000 A 
ATOM      6  C   UNL     1      71.088  55.809  66.413  0.00  0.00    +0.000 A 
ATOM      7  C   UNL     1      72.063  56.266  67.339  0.00  0.00    +0.000 A 
ATOM      8  C   UNL     1      72.140  57.618  67.718  0.00  0.00    +0.000 A 
ATOM      9  C   UNL     1      70.197  56.760  65.862  0.00  0.00    +0.000 A 
ATOM     10  C   UNL     1      69.979  60.230  66.487  0.00  0.00    +0.000 A 
ATOM     11  C   UNL     1      71.738  60.725  68.152  0.00  0.00    +0.000 C 
ENDROOT
BRANCH   7  14
ATOM     12  O   UNL     1      73.948  54.851  67.211  0.00  0.00    +0.000 OA
ATOM     13  N   UNL     1      72.950  55.060  69.277  0.00  0.00    +0.000 N 
ATOM     14  C   UNL     1      73.074  55.330  67.929  0.00  0.00    +0.000 C 
ATOM     15  H   UNL     1      72.065  55.152  69.761  0.00  0.00    +0.000 HD
BRANCH  13  16
ATOM     16  O   UNL     1      73.735  53.971  69.715  0.00  0.00    +0.000 OA
BRANCH  16  17
ATOM     17  C   UNL     1      72.916  53.171  70.394  0.00  0.00    +0.000 C 
ATOM     18  C   UNL     1      71.972  52.242  71.166  0.00  0.00    +0.000 C 
BRANCH  18  19
ATOM     19  O   UNL     1      71.154  51.432  71.828  0.00  0.00    +0.000 OA
ATOM     20  H   UNL     1      71.491  51.278  72.727  0.00  0.00    +0.000 HD
ENDBRANCH  18  19
ENDBRANCH  16  17
ENDBRANCH  13  16
ENDBRANCH   7  14
BRANCH   6  21
ATOM     21  N   UNL     1      71.003  54.433  66.081  0.00  0.00    +0.000 N 
ATOM     22  H   UNL     1      70.791  53.831  66.892  0.00  0.00    +0.000 HD
BRANCH  21  25
ATOM     23 BR   UNL     1      69.781  51.417  60.923  0.00  0.00    +0.000 Br
ATOM     24  F   UNL     1      69.254  52.301  66.005  0.00  0.00    +0.000 F 
ATOM     25  C   UNL     1      70.713  53.783  64.863  0.00  0.00    +0.000 A 
ATOM     26  C   UNL     1      69.839  52.683  64.858  0.00  0.00    +0.000 A 
ATOM     27  C   UNL     1      71.314  54.131  63.651  0.00  0.00    +0.000 A 
ATOM     28  C   UNL     1      69.552  51.973  63.696  0.00  0.00    +0.000 A 
ATOM     29  C   UNL     1      71.037  53.434  62.476  0.00  0.00    +0.000 A 
ATOM     30  C   UNL     1      70.157  52.359  62.509  0.00  0.00    +0.000 A 
ENDBRANCH  21  25
ENDBRANCH   6  21
TORSDOF 6
ENDMDL
