MODEL 1
REMARK VINA RESULT:      -4.5      0.000      0.000
REMARK  Name = 10281_Thymoquinone.pdbqt.pdb
REMARK  1 active torsions:
REMARK  status: ('A' for Active; 'I' for Inactive)
REMARK    1  A    between atoms: C_3  and  C_10
REMARK                            x       y       z     vdW  Elec       q    Type
REMARK                         _______ _______ _______ _____ _____    ______ ____
ROOT
ATOM      1  O   UNL     1      47.974  55.468  64.217  0.00  0.00    +0.000 OA
ATOM      2  O   UNL     1      44.878  51.083  64.579  0.00  0.00    +0.000 OA
ATOM      3  C   UNL     1      47.164  53.678  65.629  0.00  0.00    +0.000 C 
ATOM      4  C   UNL     1      47.293  54.472  64.361  0.00  0.00    +0.000 C 
ATOM      5  C   UNL     1      46.356  52.660  65.468  0.00  0.00    +0.000 C 
ATOM      6  C   UNL     1      45.689  52.901  63.108  0.00  0.00    +0.000 C 
ATOM      7  C   UNL     1      45.546  52.082  64.394  0.00  0.00    +0.000 C 
ATOM      8  C   UNL     1      46.495  53.914  63.275  0.00  0.00    +0.000 C 
ATOM      9  C   UNL     1      45.018  52.622  61.802  0.00  0.00    +0.000 C 
ENDROOT
BRANCH   3  10
ATOM     10  C   UNL     1      47.867  54.069  66.805  0.00  0.00    +0.000 C 
ATOM     11  C   UNL     1      49.339  53.769  66.954  0.00  0.00    +0.000 C 
ATOM     12  C   UNL     1      47.305  55.130  67.719  0.00  0.00    +0.000 C 
ENDBRANCH   3  10
TORSDOF 1
ENDMDL
MODEL 2
REMARK VINA RESULT:      -4.3     18.252     19.544
REMARK  Name = 10281_Thymoquinone.pdbqt.pdb
REMARK  1 active torsions:
REMARK  status: ('A' for Active; 'I' for Inactive)
REMARK    1  A    between atoms: C_3  and  C_10
REMARK                            x       y       z     vdW  Elec       q    Type
REMARK                         _______ _______ _______ _____ _____    ______ ____
ROOT
ATOM      1  O   UNL     1      51.938  33.388  60.397  0.00  0.00    +0.000 OA
ATOM      2  O   UNL     1      51.034  37.570  57.137  0.00  0.00    +0.000 OA
ATOM      3  C   UNL     1      50.989  35.601  60.167  0.00  0.00    +0.000 C 
ATOM      4  C   UNL     1      51.704  34.362  59.710  0.00  0.00    +0.000 C 
ATOM      5  C   UNL     1      50.892  36.475  59.196  0.00  0.00    +0.000 C 
ATOM      6  C   UNL     1      52.013  35.306  57.339  0.00  0.00    +0.000 C 
ATOM      7  C   UNL     1      51.287  36.577  57.790  0.00  0.00    +0.000 C 
ATOM      8  C   UNL     1      52.107  34.440  58.311  0.00  0.00    +0.000 C 
ATOM      9  C   UNL     1      52.563  35.038  55.976  0.00  0.00    +0.000 C 
ENDROOT
BRANCH   3  10
ATOM     10  C   UNL     1      50.520  35.716  61.508  0.00  0.00    +0.000 C 
ATOM     11  C   UNL     1      51.483  35.984  62.638  0.00  0.00    +0.000 C 
ATOM     12  C   UNL     1      49.064  35.995  61.789  0.00  0.00    +0.000 C 
ENDBRANCH   3  10
TORSDOF 1
ENDMDL
MODEL 3
REMARK VINA RESULT:      -4.3     12.249     13.805
REMARK  Name = 10281_Thymoquinone.pdbqt.pdb
REMARK  1 active torsions:
REMARK  status: ('A' for Active; 'I' for Inactive)
REMARK    1  A    between atoms: C_3  and  C_10
REMARK                            x       y       z     vdW  Elec       q    Type
REMARK                         _______ _______ _______ _____ _____    ______ ____
ROOT
ATOM      1  O   UNL     1      43.976  41.792  71.165  0.00  0.00    +0.000 OA
ATOM      2  O   UNL     1      47.089  43.529  75.194  0.00  0.00    +0.000 OA
ATOM      3  C   UNL     1      45.442  43.536  71.978  0.00  0.00    +0.000 C 
ATOM      4  C   UNL     1      44.693  42.237  72.039  0.00  0.00    +0.000 C 
ATOM      5  C   UNL     1      46.127  43.739  73.075  0.00  0.00    +0.000 C 
ATOM      6  C   UNL     1      45.595  41.725  74.392  0.00  0.00    +0.000 C 
ATOM      7  C   UNL     1      46.364  43.049  74.344  0.00  0.00    +0.000 C 
ATOM      8  C   UNL     1      44.914  41.529  73.295  0.00  0.00    +0.000 C 
ATOM      9  C   UNL     1      45.589  40.746  75.520  0.00  0.00    +0.000 C 
ENDROOT
BRANCH   3  10
ATOM     10  C   UNL     1      45.349  44.374  70.828  0.00  0.00    +0.000 C 
ATOM     11  C   UNL     1      46.315  44.212  69.680  0.00  0.00    +0.000 C 
ATOM     12  C   UNL     1      44.078  45.130  70.530  0.00  0.00    +0.000 C 
ENDBRANCH   3  10
TORSDOF 1
ENDMDL
MODEL 4
REMARK VINA RESULT:      -4.2     25.126     26.785
REMARK  Name = 10281_Thymoquinone.pdbqt.pdb
REMARK  1 active torsions:
REMARK  status: ('A' for Active; 'I' for Inactive)
REMARK    1  A    between atoms: C_3  and  C_10
REMARK                            x       y       z     vdW  Elec       q    Type
REMARK                         _______ _______ _______ _____ _____    ______ ____
ROOT
ATOM      1  O   UNL     1      71.032  45.689  77.136  0.00  0.00    +0.000 OA
ATOM      2  O   UNL     1      66.624  48.592  78.182  0.00  0.00    +0.000 OA
ATOM      3  C   UNL     1      68.916  45.800  78.304  0.00  0.00    +0.000 C 
ATOM      4  C   UNL     1      70.015  46.296  77.409  0.00  0.00    +0.000 C 
ATOM      5  C   UNL     1      67.954  46.683  78.404  0.00  0.00    +0.000 C 
ATOM      6  C   UNL     1      68.783  48.509  76.972  0.00  0.00    +0.000 C 
ATOM      7  C   UNL     1      67.654  48.018  77.883  0.00  0.00    +0.000 C 
ATOM      8  C   UNL     1      69.738  47.625  76.878  0.00  0.00    +0.000 C 
ATOM      9  C   UNL     1      68.835  49.821  76.258  0.00  0.00    +0.000 C 
ENDROOT
BRANCH   3  10
ATOM     10  C   UNL     1      69.006  44.519  78.923  0.00  0.00    +0.000 C 
ATOM     11  C   UNL     1      69.772  44.342  80.212  0.00  0.00    +0.000 C 
ATOM     12  C   UNL     1      68.028  43.426  78.570  0.00  0.00    +0.000 C 
ENDBRANCH   3  10
TORSDOF 1
ENDMDL
MODEL 5
REMARK VINA RESULT:      -4.1     11.095     12.939
REMARK  Name = 10281_Thymoquinone.pdbqt.pdb
REMARK  1 active torsions:
REMARK  status: ('A' for Active; 'I' for Inactive)
REMARK    1  A    between atoms: C_3  and  C_10
REMARK                            x       y       z     vdW  Elec       q    Type
REMARK                         _______ _______ _______ _____ _____    ______ ____
ROOT
ATOM      1  O   UNL     1      42.772  41.783  71.474  0.00  0.00    +0.000 OA
ATOM      2  O   UNL     1      47.038  44.536  69.695  0.00  0.00    +0.000 OA
ATOM      3  C   UNL     1      44.019  42.554  69.551  0.00  0.00    +0.000 C 
ATOM      4  C   UNL     1      43.717  42.391  71.012  0.00  0.00    +0.000 C 
ATOM      5  C   UNL     1      45.106  43.263  69.369  0.00  0.00    +0.000 C 
ATOM      6  C   UNL     1      45.785  43.761  71.685  0.00  0.00    +0.000 C 
ATOM      7  C   UNL     1      46.106  43.938  70.198  0.00  0.00    +0.000 C 
ATOM      8  C   UNL     1      44.702  43.055  71.858  0.00  0.00    +0.000 C 
ATOM      9  C   UNL     1      46.576  44.304  72.831  0.00  0.00    +0.000 C 
ENDROOT
BRANCH   3  10
ATOM     10  C   UNL     1      43.167  41.978  68.564  0.00  0.00    +0.000 C 
ATOM     11  C   UNL     1      41.769  42.504  68.355  0.00  0.00    +0.000 C 
ATOM     12  C   UNL     1      43.743  41.146  67.444  0.00  0.00    +0.000 C 
ENDBRANCH   3  10
TORSDOF 1
ENDMDL
MODEL 6
REMARK VINA RESULT:      -4.0     25.200     27.415
REMARK  Name = 10281_Thymoquinone.pdbqt.pdb
REMARK  1 active torsions:
REMARK  status: ('A' for Active; 'I' for Inactive)
REMARK    1  A    between atoms: C_3  and  C_10
REMARK                            x       y       z     vdW  Elec       q    Type
REMARK                         _______ _______ _______ _____ _____    ______ ____
ROOT
ATOM      1  O   UNL     1      71.383  45.514  77.335  0.00  0.00    +0.000 OA
ATOM      2  O   UNL     1      68.783  50.059  76.100  0.00  0.00    +0.000 OA
ATOM      3  C   UNL     1      71.428  47.597  76.106  0.00  0.00    +0.000 C 
ATOM      4  C   UNL     1      70.846  46.558  77.019  0.00  0.00    +0.000 C 
ATOM      5  C   UNL     1      70.610  48.609  75.959  0.00  0.00    +0.000 C 
ATOM      6  C   UNL     1      68.705  47.937  77.371  0.00  0.00    +0.000 C 
ATOM      7  C   UNL     1      69.285  49.005  76.440  0.00  0.00    +0.000 C 
ATOM      8  C   UNL     1      69.526  46.931  77.513  0.00  0.00    +0.000 C 
ATOM      9  C   UNL     1      67.379  47.987  78.057  0.00  0.00    +0.000 C 
ENDROOT
BRANCH   3  10
ATOM     10  C   UNL     1      72.714  47.410  75.519  0.00  0.00    +0.000 C 
ATOM     11  C   UNL     1      72.876  47.383  74.018  0.00  0.00    +0.000 C 
ATOM     12  C   UNL     1      73.967  47.654  76.323  0.00  0.00    +0.000 C 
ENDBRANCH   3  10
TORSDOF 1
ENDMDL
MODEL 7
REMARK VINA RESULT:      -4.0     14.886     16.768
REMARK  Name = 10281_Thymoquinone.pdbqt.pdb
REMARK  1 active torsions:
REMARK  status: ('A' for Active; 'I' for Inactive)
REMARK    1  A    between atoms: C_3  and  C_10
REMARK                            x       y       z     vdW  Elec       q    Type
REMARK                         _______ _______ _______ _____ _____    ______ ____
ROOT
ATOM      1  O   UNL     1      64.534  57.806  60.320  0.00  0.00    +0.000 OA
ATOM      2  O   UNL     1      59.781  55.978  62.055  0.00  0.00    +0.000 OA
ATOM      3  C   UNL     1      62.131  57.851  60.048  0.00  0.00    +0.000 C 
ATOM      4  C   UNL     1      63.432  57.429  60.667  0.00  0.00    +0.000 C 
ATOM      5  C   UNL     1      61.116  57.273  60.641  0.00  0.00    +0.000 C 
ATOM      6  C   UNL     1      62.236  55.910  62.361  0.00  0.00    +0.000 C 
ATOM      7  C   UNL     1      60.901  56.330  61.740  0.00  0.00    +0.000 C 
ATOM      8  C   UNL     1      63.243  56.490  61.766  0.00  0.00    +0.000 C 
ATOM      9  C   UNL     1      62.422  54.965  63.504  0.00  0.00    +0.000 C 
ENDROOT
BRANCH   3  10
ATOM     10  C   UNL     1      62.110  58.765  58.954  0.00  0.00    +0.000 C 
ATOM     11  C   UNL     1      62.040  58.261  57.533  0.00  0.00    +0.000 C 
ATOM     12  C   UNL     1      61.735  60.211  59.170  0.00  0.00    +0.000 C 
ENDBRANCH   3  10
TORSDOF 1
ENDMDL
MODEL 8
REMARK VINA RESULT:      -3.9     20.187     21.465
REMARK  Name = 10281_Thymoquinone.pdbqt.pdb
REMARK  1 active torsions:
REMARK  status: ('A' for Active; 'I' for Inactive)
REMARK    1  A    between atoms: C_3  and  C_10
REMARK                            x       y       z     vdW  Elec       q    Type
REMARK                         _______ _______ _______ _____ _____    ______ ____
ROOT
ATOM      1  O   UNL     1      52.801  33.862  60.001  0.00  0.00    +0.000 OA
ATOM      2  O   UNL     1      52.820  34.060  54.625  0.00  0.00    +0.000 OA
ATOM      3  C   UNL     1      52.101  35.064  58.022  0.00  0.00    +0.000 C 
ATOM      4  C   UNL     1      52.771  33.961  58.791  0.00  0.00    +0.000 C 
ATOM      5  C   UNL     1      52.243  34.892  56.731  0.00  0.00    +0.000 C 
ATOM      6  C   UNL     1      53.550  32.806  56.631  0.00  0.00    +0.000 C 
ATOM      7  C   UNL     1      52.873  33.923  55.832  0.00  0.00    +0.000 C 
ATOM      8  C   UNL     1      53.405  32.982  57.916  0.00  0.00    +0.000 C 
ATOM      9  C   UNL     1      54.292  31.639  56.064  0.00  0.00    +0.000 C 
ENDROOT
BRANCH   3  10
ATOM     10  C   UNL     1      51.428  36.119  58.703  0.00  0.00    +0.000 C 
ATOM     11  C   UNL     1      51.284  37.478  58.061  0.00  0.00    +0.000 C 
ATOM     12  C   UNL     1      50.496  35.820  59.852  0.00  0.00    +0.000 C 
ENDBRANCH   3  10
TORSDOF 1
ENDMDL
MODEL 9
REMARK VINA RESULT:      -3.9     41.121     43.066
REMARK  Name = 10281_Thymoquinone.pdbqt.pdb
REMARK  1 active torsions:
REMARK  status: ('A' for Active; 'I' for Inactive)
REMARK    1  A    between atoms: C_3  and  C_10
REMARK                            x       y       z     vdW  Elec       q    Type
REMARK                         _______ _______ _______ _____ _____    ______ ____
ROOT
ATOM      1  O   UNL     1      75.324  82.814  80.379  0.00  0.00    +0.000 OA
ATOM      2  O   UNL     1      77.247  77.878  79.443  0.00  0.00    +0.000 OA
ATOM      3  C   UNL     1      76.427  80.868  81.299  0.00  0.00    +0.000 C 
ATOM      4  C   UNL     1      75.776  81.696  80.229  0.00  0.00    +0.000 C 
ATOM      5  C   UNL     1      76.812  79.708  80.829  0.00  0.00    +0.000 C 
ATOM      6  C   UNL     1      76.117  79.854  78.469  0.00  0.00    +0.000 C 
ATOM      7  C   UNL     1      76.783  78.997  79.550  0.00  0.00    +0.000 C 
ATOM      8  C   UNL     1      75.736  81.009  78.944  0.00  0.00    +0.000 C 
ATOM      9  C   UNL     1      75.907  79.470  77.041  0.00  0.00    +0.000 C 
ENDROOT
BRANCH   3  10
ATOM     10  C   UNL     1      76.557  81.369  82.627  0.00  0.00    +0.000 C 
ATOM     11  C   UNL     1      75.419  81.240  83.611  0.00  0.00    +0.000 C 
ATOM     12  C   UNL     1      77.919  81.645  83.213  0.00  0.00    +0.000 C 
ENDBRANCH   3  10
TORSDOF 1
ENDMDL
