MODEL 1
REMARK VINA RESULT:      -6.8      0.000      0.000
REMARK  Name = 10639_Physcion.pdbqt.pdb
REMARK  3 active torsions:
REMARK  status: ('A' for Active; 'I' for Inactive)
REMARK    1  A    between atoms: C_10  and  O_18
REMARK    2  A    between atoms: C_12  and  O_20
REMARK    3  A    between atoms: C_15  and  O_22
REMARK                            x       y       z     vdW  Elec       q    Type
REMARK                         _______ _______ _______ _____ _____    ______ ____
ROOT
ATOM      1  O   UNL     1      60.043  51.937  59.693  0.00  0.00    +0.000 OA
ATOM      2  O   UNL     1      64.594  54.704  59.549  0.00  0.00    +0.000 OA
ATOM      3  C   UNL     1      63.540  52.621  59.439  0.00  0.00    +0.000 A 
ATOM      4  C   UNL     1      62.346  51.906  59.478  0.00  0.00    +0.000 A 
ATOM      5  C   UNL     1      61.054  54.095  59.815  0.00  0.00    +0.000 A 
ATOM      6  C   UNL     1      62.266  54.786  59.772  0.00  0.00    +0.000 A 
ATOM      7  C   UNL     1      61.063  52.617  59.667  0.00  0.00    +0.000 C 
ATOM      8  C   UNL     1      63.542  54.080  59.584  0.00  0.00    +0.000 C 
ATOM      9  C   UNL     1      64.760  51.965  59.262  0.00  0.00    +0.000 A 
ATOM     10  C   UNL     1      62.390  50.511  59.336  0.00  0.00    +0.000 A 
ATOM     11  C   UNL     1      64.787  50.582  59.122  0.00  0.00    +0.000 A 
ATOM     12  C   UNL     1      59.878  54.833  59.996  0.00  0.00    +0.000 A 
ATOM     13  C   UNL     1      62.308  56.178  59.906  0.00  0.00    +0.000 A 
ATOM     14  C   UNL     1      63.605  49.850  59.158  0.00  0.00    +0.000 A 
ATOM     15  C   UNL     1      61.135  56.905  60.086  0.00  0.00    +0.000 A 
ATOM     16  C   UNL     1      59.921  56.223  60.130  0.00  0.00    +0.000 A 
ATOM     17  C   UNL     1      66.098  49.880  58.932  0.00  0.00    +0.000 C 
ENDROOT
BRANCH  10  18
ATOM     18  O   UNL     1      61.271  49.723  59.361  0.00  0.00    +0.000 OA
ATOM     19  H   UNL     1      60.544  50.186  58.881  0.00  0.00    +0.000 HD
ENDBRANCH  10  18
BRANCH  12  20
ATOM     20  O   UNL     1      58.656  54.227  60.049  0.00  0.00    +0.000 OA
ATOM     21  H   UNL     1      58.628  53.598  60.792  0.00  0.00    +0.000 HD
ENDBRANCH  12  20
BRANCH  15  22
ATOM     22  O   UNL     1      61.283  58.264  60.208  0.00  0.00    +0.000 OA
ATOM     23  C   UNL     1      60.085  58.987  60.287  0.00  0.00    +0.000 C 
ENDBRANCH  15  22
TORSDOF 3
ENDMDL
MODEL 2
REMARK VINA RESULT:      -6.2      1.235      5.822
REMARK  Name = 10639_Physcion.pdbqt.pdb
REMARK  3 active torsions:
REMARK  status: ('A' for Active; 'I' for Inactive)
REMARK    1  A    between atoms: C_10  and  O_18
REMARK    2  A    between atoms: C_12  and  O_20
REMARK    3  A    between atoms: C_15  and  O_22
REMARK                            x       y       z     vdW  Elec       q    Type
REMARK                         _______ _______ _______ _____ _____    ______ ____
ROOT
ATOM      1  O   UNL     1      60.228  51.761  59.562  0.00  0.00    +0.000 OA
ATOM      2  O   UNL     1      64.736  54.599  59.643  0.00  0.00    +0.000 OA
ATOM      3  C   UNL     1      62.402  54.587  59.773  0.00  0.00    +0.000 A 
ATOM      4  C   UNL     1      61.229  53.837  59.750  0.00  0.00    +0.000 A 
ATOM      5  C   UNL     1      62.610  51.701  59.420  0.00  0.00    +0.000 A 
ATOM      6  C   UNL     1      63.769  52.477  59.447  0.00  0.00    +0.000 A 
ATOM      7  C   UNL     1      61.292  52.370  59.573  0.00  0.00    +0.000 C 
ATOM      8  C   UNL     1      63.709  53.936  59.622  0.00  0.00    +0.000 C 
ATOM      9  C   UNL     1      62.362  55.973  59.938  0.00  0.00    +0.000 A 
ATOM     10  C   UNL     1      60.003  54.500  59.897  0.00  0.00    +0.000 A 
ATOM     11  C   UNL     1      61.137  56.616  60.083  0.00  0.00    +0.000 A 
ATOM     12  C   UNL     1      62.743  50.317  59.249  0.00  0.00    +0.000 A 
ATOM     13  C   UNL     1      65.032  51.892  59.307  0.00  0.00    +0.000 A 
ATOM     14  C   UNL     1      59.954  55.885  60.063  0.00  0.00    +0.000 A 
ATOM     15  C   UNL     1      65.157  50.517  59.138  0.00  0.00    +0.000 A 
ATOM     16  C   UNL     1      64.005  49.735  59.110  0.00  0.00    +0.000 A 
ATOM     17  C   UNL     1      61.096  58.104  60.261  0.00  0.00    +0.000 C 
ENDROOT
BRANCH  10  18
ATOM     18  O   UNL     1      58.797  53.850  59.888  0.00  0.00    +0.000 OA
ATOM     19  H   UNL     1      58.286  54.116  60.688  0.00  0.00    +0.000 HD
ENDBRANCH  10  18
BRANCH  12  20
ATOM     20  O   UNL     1      61.655  49.494  59.213  0.00  0.00    +0.000 OA
ATOM     21  H   UNL     1      61.233  49.461  60.091  0.00  0.00    +0.000 HD
ENDBRANCH  12  20
BRANCH  15  22
ATOM     22  O   UNL     1      66.438  50.042  59.010  0.00  0.00    +0.000 OA
ATOM     23  C   UNL     1      67.423  50.808  59.649  0.00  0.00    +0.000 C 
ENDBRANCH  15  22
TORSDOF 3
ENDMDL
MODEL 3
REMARK VINA RESULT:      -5.8     20.866     22.072
REMARK  Name = 10639_Physcion.pdbqt.pdb
REMARK  3 active torsions:
REMARK  status: ('A' for Active; 'I' for Inactive)
REMARK    1  A    between atoms: C_10  and  O_18
REMARK    2  A    between atoms: C_12  and  O_20
REMARK    3  A    between atoms: C_15  and  O_22
REMARK                            x       y       z     vdW  Elec       q    Type
REMARK                         _______ _______ _______ _____ _____    ______ ____
ROOT
ATOM      1  O   UNL     1      51.683  35.862  56.277  0.00  0.00    +0.000 OA
ATOM      2  O   UNL     1      53.453  31.930  59.406  0.00  0.00    +0.000 OA
ATOM      3  C   UNL     1      53.303  32.833  57.255  0.00  0.00    +0.000 A 
ATOM      4  C   UNL     1      52.836  33.865  56.445  0.00  0.00    +0.000 A 
ATOM      5  C   UNL     1      51.797  34.996  58.497  0.00  0.00    +0.000 A 
ATOM      6  C   UNL     1      52.276  33.949  59.285  0.00  0.00    +0.000 A 
ATOM      7  C   UNL     1      52.068  34.981  57.037  0.00  0.00    +0.000 C 
ATOM      8  C   UNL     1      53.041  32.839  58.698  0.00  0.00    +0.000 C 
ATOM      9  C   UNL     1      54.030  31.771  56.712  0.00  0.00    +0.000 A 
ATOM     10  C   UNL     1      53.110  33.819  55.070  0.00  0.00    +0.000 A 
ATOM     11  C   UNL     1      54.294  31.740  55.348  0.00  0.00    +0.000 A 
ATOM     12  C   UNL     1      51.076  36.021  59.125  0.00  0.00    +0.000 A 
ATOM     13  C   UNL     1      52.046  33.920  60.665  0.00  0.00    +0.000 A 
ATOM     14  C   UNL     1      53.836  32.761  54.521  0.00  0.00    +0.000 A 
ATOM     15  C   UNL     1      51.329  34.942  61.282  0.00  0.00    +0.000 A 
ATOM     16  C   UNL     1      50.847  35.991  60.502  0.00  0.00    +0.000 A 
ATOM     17  C   UNL     1      55.075  30.599  54.768  0.00  0.00    +0.000 C 
ENDROOT
BRANCH  10  18
ATOM     18  O   UNL     1      52.694  34.785  54.194  0.00  0.00    +0.000 OA
ATOM     19  H   UNL     1      52.099  34.373  53.524  0.00  0.00    +0.000 HD
ENDBRANCH  10  18
BRANCH  12  20
ATOM     20  O   UNL     1      50.576  37.077  58.420  0.00  0.00    +0.000 OA
ATOM     21  H   UNL     1      51.011  37.132  57.550  0.00  0.00    +0.000 HD
ENDBRANCH  12  20
BRANCH  15  22
ATOM     22  O   UNL     1      51.158  34.821  62.638  0.00  0.00    +0.000 OA
ATOM     23  C   UNL     1      51.623  35.905  63.394  0.00  0.00    +0.000 C 
ENDBRANCH  15  22
TORSDOF 3
ENDMDL
MODEL 4
REMARK VINA RESULT:      -5.7      9.482     10.741
REMARK  Name = 10639_Physcion.pdbqt.pdb
REMARK  3 active torsions:
REMARK  status: ('A' for Active; 'I' for Inactive)
REMARK    1  A    between atoms: C_10  and  O_18
REMARK    2  A    between atoms: C_12  and  O_20
REMARK    3  A    between atoms: C_15  and  O_22
REMARK                            x       y       z     vdW  Elec       q    Type
REMARK                         _______ _______ _______ _____ _____    ______ ____
ROOT
ATOM      1  O   UNL     1      68.274  58.701  62.598  0.00  0.00    +0.000 OA
ATOM      2  O   UNL     1      69.428  60.740  67.383  0.00  0.00    +0.000 OA
ATOM      3  C   UNL     1      69.559  58.919  65.923  0.00  0.00    +0.000 A 
ATOM      4  C   UNL     1      69.253  58.394  64.670  0.00  0.00    +0.000 A 
ATOM      5  C   UNL     1      68.104  60.597  64.037  0.00  0.00    +0.000 A 
ATOM      6  C   UNL     1      68.424  61.097  65.300  0.00  0.00    +0.000 A 
ATOM      7  C   UNL     1      68.516  59.213  63.685  0.00  0.00    +0.000 C 
ATOM      8  C   UNL     1      69.157  60.283  66.281  0.00  0.00    +0.000 C 
ATOM      9  C   UNL     1      70.255  58.158  66.866  0.00  0.00    +0.000 A 
ATOM     10  C   UNL     1      69.657  57.085  64.371  0.00  0.00    +0.000 A 
ATOM     11  C   UNL     1      70.649  56.862  66.553  0.00  0.00    +0.000 A 
ATOM     12  C   UNL     1      67.403  61.429  63.153  0.00  0.00    +0.000 A 
ATOM     13  C   UNL     1      68.057  62.393  65.677  0.00  0.00    +0.000 A 
ATOM     14  C   UNL     1      70.352  56.320  65.308  0.00  0.00    +0.000 A 
ATOM     15  C   UNL     1      67.361  63.214  64.794  0.00  0.00    +0.000 A 
ATOM     16  C   UNL     1      67.038  62.722  63.531  0.00  0.00    +0.000 A 
ATOM     17  C   UNL     1      71.395  56.048  67.567  0.00  0.00    +0.000 C 
ENDROOT
BRANCH  10  18
ATOM     18  O   UNL     1      69.403  56.483  63.168  0.00  0.00    +0.000 OA
ATOM     19  H   UNL     1      69.216  57.179  62.495  0.00  0.00    +0.000 HD
ENDBRANCH  10  18
BRANCH  12  20
ATOM     20  O   UNL     1      67.056  61.009  61.902  0.00  0.00    +0.000 OA
ATOM     21  H   UNL     1      67.622  60.264  61.631  0.00  0.00    +0.000 HD
ENDBRANCH  12  20
BRANCH  15  22
ATOM     22  O   UNL     1      67.048  64.467  65.258  0.00  0.00    +0.000 OA
ATOM     23  C   UNL     1      65.943  65.070  64.642  0.00  0.00    +0.000 C 
ENDBRANCH  15  22
TORSDOF 3
ENDMDL
MODEL 5
REMARK VINA RESULT:      -5.6      1.516      2.027
REMARK  Name = 10639_Physcion.pdbqt.pdb
REMARK  3 active torsions:
REMARK  status: ('A' for Active; 'I' for Inactive)
REMARK    1  A    between atoms: C_10  and  O_18
REMARK    2  A    between atoms: C_12  and  O_20
REMARK    3  A    between atoms: C_15  and  O_22
REMARK                            x       y       z     vdW  Elec       q    Type
REMARK                         _______ _______ _______ _____ _____    ______ ____
ROOT
ATOM      1  O   UNL     1      59.733  54.150  59.848  0.00  0.00    +0.000 OA
ATOM      2  O   UNL     1      64.965  54.782  59.073  0.00  0.00    +0.000 OA
ATOM      3  C   UNL     1      63.163  53.313  59.315  0.00  0.00    +0.000 A 
ATOM      4  C   UNL     1      61.795  53.157  59.518  0.00  0.00    +0.000 A 
ATOM      5  C   UNL     1      61.526  55.706  59.610  0.00  0.00    +0.000 A 
ATOM      6  C   UNL     1      62.901  55.832  59.406  0.00  0.00    +0.000 A 
ATOM      7  C   UNL     1      60.929  54.346  59.673  0.00  0.00    +0.000 C 
ATOM      8  C   UNL     1      63.763  54.650  59.252  0.00  0.00    +0.000 C 
ATOM      9  C   UNL     1      63.995  52.200  59.166  0.00  0.00    +0.000 A 
ATOM     10  C   UNL     1      61.264  51.860  59.571  0.00  0.00    +0.000 A 
ATOM     11  C   UNL     1      63.453  50.921  59.222  0.00  0.00    +0.000 A 
ATOM     12  C   UNL     1      60.768  56.875  59.749  0.00  0.00    +0.000 A 
ATOM     13  C   UNL     1      63.508  57.090  59.340  0.00  0.00    +0.000 A 
ATOM     14  C   UNL     1      62.089  50.744  59.424  0.00  0.00    +0.000 A 
ATOM     15  C   UNL     1      62.748  58.248  59.478  0.00  0.00    +0.000 A 
ATOM     16  C   UNL     1      61.375  58.131  59.683  0.00  0.00    +0.000 A 
ATOM     17  C   UNL     1      64.348  49.729  59.062  0.00  0.00    +0.000 C 
ENDROOT
BRANCH  10  18
ATOM     18  O   UNL     1      59.933  51.606  59.767  0.00  0.00    +0.000 OA
ATOM     19  H   UNL     1      59.688  51.878  60.682  0.00  0.00    +0.000 HD
ENDBRANCH  10  18
BRANCH  12  20
ATOM     20  O   UNL     1      59.419  56.831  59.951  0.00  0.00    +0.000 OA
ATOM     21  H   UNL     1      58.988  56.353  59.220  0.00  0.00    +0.000 HD
ENDBRANCH  12  20
BRANCH  15  22
ATOM     22  O   UNL     1      63.437  59.432  59.399  0.00  0.00    +0.000 OA
ATOM     23  C   UNL     1      64.016  59.699  58.150  0.00  0.00    +0.000 C 
ENDBRANCH  15  22
TORSDOF 3
ENDMDL
MODEL 6
REMARK VINA RESULT:      -5.5      2.064      4.257
REMARK  Name = 10639_Physcion.pdbqt.pdb
REMARK  3 active torsions:
REMARK  status: ('A' for Active; 'I' for Inactive)
REMARK    1  A    between atoms: C_10  and  O_18
REMARK    2  A    between atoms: C_12  and  O_20
REMARK    3  A    between atoms: C_15  and  O_22
REMARK                            x       y       z     vdW  Elec       q    Type
REMARK                         _______ _______ _______ _____ _____    ______ ____
ROOT
ATOM      1  O   UNL     1      61.818  55.200  59.207  0.00  0.00    +0.000 OA
ATOM      2  O   UNL     1      61.237  49.905  59.298  0.00  0.00    +0.000 OA
ATOM      3  C   UNL     1      62.689  51.737  59.276  0.00  0.00    +0.000 A 
ATOM      4  C   UNL     1      62.831  53.122  59.252  0.00  0.00    +0.000 A 
ATOM      5  C   UNL     1      60.279  53.376  59.227  0.00  0.00    +0.000 A 
ATOM      6  C   UNL     1      60.167  51.985  59.252  0.00  0.00    +0.000 A 
ATOM      7  C   UNL     1      61.633  53.988  59.226  0.00  0.00    +0.000 C 
ATOM      8  C   UNL     1      61.357  51.122  59.277  0.00  0.00    +0.000 C 
ATOM      9  C   UNL     1      63.810  50.904  59.301  0.00  0.00    +0.000 A 
ATOM     10  C   UNL     1      64.123  53.667  59.252  0.00  0.00    +0.000 A 
ATOM     11  C   UNL     1      65.084  51.460  59.300  0.00  0.00    +0.000 A 
ATOM     12  C   UNL     1      59.102  54.135  59.203  0.00  0.00    +0.000 A 
ATOM     13  C   UNL     1      58.914  51.362  59.253  0.00  0.00    +0.000 A 
ATOM     14  C   UNL     1      65.247  52.840  59.276  0.00  0.00    +0.000 A 
ATOM     15  C   UNL     1      57.749  52.123  59.230  0.00  0.00    +0.000 A 
ATOM     16  C   UNL     1      57.852  53.512  59.205  0.00  0.00    +0.000 A 
ATOM     17  C   UNL     1      66.285  50.563  59.327  0.00  0.00    +0.000 C 
ENDROOT
BRANCH  10  18
ATOM     18  O   UNL     1      64.364  55.014  59.229  0.00  0.00    +0.000 OA
ATOM     19  H   UNL     1      64.677  55.267  58.329  0.00  0.00    +0.000 HD
ENDBRANCH  10  18
BRANCH  12  20
ATOM     20  O   UNL     1      59.133  55.499  59.179  0.00  0.00    +0.000 OA
ATOM     21  H   UNL     1      59.378  55.810  58.289  0.00  0.00    +0.000 HD
ENDBRANCH  12  20
BRANCH  15  22
ATOM     22  O   UNL     1      56.571  51.418  59.233  0.00  0.00    +0.000 OA
ATOM     23  C   UNL     1      55.677  51.751  58.206  0.00  0.00    +0.000 C 
ENDBRANCH  15  22
TORSDOF 3
ENDMDL
MODEL 7
REMARK VINA RESULT:      -5.4      8.562     12.873
REMARK  Name = 10639_Physcion.pdbqt.pdb
REMARK  3 active torsions:
REMARK  status: ('A' for Active; 'I' for Inactive)
REMARK    1  A    between atoms: C_10  and  O_18
REMARK    2  A    between atoms: C_12  and  O_20
REMARK    3  A    between atoms: C_15  and  O_22
REMARK                            x       y       z     vdW  Elec       q    Type
REMARK                         _______ _______ _______ _____ _____    ______ ____
ROOT
ATOM      1  O   UNL     1      67.080  43.101  54.363  0.00  0.00    +0.000 OA
ATOM      2  O   UNL     1      62.149  45.113  54.235  0.00  0.00    +0.000 OA
ATOM      3  C   UNL     1      64.425  45.475  54.628  0.00  0.00    +0.000 A 
ATOM      4  C   UNL     1      65.710  44.940  54.659  0.00  0.00    +0.000 A 
ATOM      5  C   UNL     1      64.772  42.662  53.946  0.00  0.00    +0.000 A 
ATOM      6  C   UNL     1      63.495  43.225  53.924  0.00  0.00    +0.000 A 
ATOM      7  C   UNL     1      65.928  43.517  54.320  0.00  0.00    +0.000 C 
ATOM      8  C   UNL     1      63.276  44.639  54.261  0.00  0.00    +0.000 C 
ATOM      9  C   UNL     1      64.201  46.816  54.945  0.00  0.00    +0.000 A 
ATOM     10  C   UNL     1      66.779  45.775  55.016  0.00  0.00    +0.000 A 
ATOM     11  C   UNL     1      65.271  47.631  55.297  0.00  0.00    +0.000 A 
ATOM     12  C   UNL     1      64.905  41.308  53.614  0.00  0.00    +0.000 A 
ATOM     13  C   UNL     1      62.376  42.459  53.578  0.00  0.00    +0.000 A 
ATOM     14  C   UNL     1      66.562  47.116  55.334  0.00  0.00    +0.000 A 
ATOM     15  C   UNL     1      62.516  41.115  53.249  0.00  0.00    +0.000 A 
ATOM     16  C   UNL     1      63.787  40.546  53.269  0.00  0.00    +0.000 A 
ATOM     17  C   UNL     1      65.028  49.071  55.638  0.00  0.00    +0.000 C 
ENDROOT
BRANCH  10  18
ATOM     18  O   UNL     1      68.076  45.342  55.075  0.00  0.00    +0.000 OA
ATOM     19  H   UNL     1      68.305  45.147  56.014  0.00  0.00    +0.000 HD
ENDBRANCH  10  18
BRANCH  12  20
ATOM     20  O   UNL     1      66.122  40.689  53.614  0.00  0.00    +0.000 OA
ATOM     21  H   UNL     1      66.047  39.809  53.204  0.00  0.00    +0.000 HD
ENDBRANCH  12  20
BRANCH  15  22
ATOM     22  O   UNL     1      61.358  40.452  52.925  0.00  0.00    +0.000 OA
ATOM     23  C   UNL     1      61.366  39.077  53.194  0.00  0.00    +0.000 C 
ENDBRANCH  15  22
TORSDOF 3
ENDMDL
MODEL 8
REMARK VINA RESULT:      -5.3      2.056      4.350
REMARK  Name = 10639_Physcion.pdbqt.pdb
REMARK  3 active torsions:
REMARK  status: ('A' for Active; 'I' for Inactive)
REMARK    1  A    between atoms: C_10  and  O_18
REMARK    2  A    between atoms: C_12  and  O_20
REMARK    3  A    between atoms: C_15  and  O_22
REMARK                            x       y       z     vdW  Elec       q    Type
REMARK                         _______ _______ _______ _____ _____    ______ ____
ROOT
ATOM      1  O   UNL     1      64.134  54.876  59.855  0.00  0.00    +0.000 OA
ATOM      2  O   UNL     1      63.425  49.665  59.000  0.00  0.00    +0.000 OA
ATOM      3  C   UNL     1      64.919  51.428  59.354  0.00  0.00    +0.000 A 
ATOM      4  C   UNL     1      65.095  52.791  59.577  0.00  0.00    +0.000 A 
ATOM      5  C   UNL     1      62.553  53.124  59.497  0.00  0.00    +0.000 A 
ATOM      6  C   UNL     1      62.407  51.754  59.275  0.00  0.00    +0.000 A 
ATOM      7  C   UNL     1      63.920  53.686  59.657  0.00  0.00    +0.000 C 
ATOM      8  C   UNL     1      63.575  50.863  59.196  0.00  0.00    +0.000 C 
ATOM      9  C   UNL     1      66.018  50.569  59.276  0.00  0.00    +0.000 A 
ATOM     10  C   UNL     1      66.398  53.288  59.723  0.00  0.00    +0.000 A 
ATOM     11  C   UNL     1      67.304  51.077  59.423  0.00  0.00    +0.000 A 
ATOM     12  C   UNL     1      61.397  53.912  59.561  0.00  0.00    +0.000 A 
ATOM     13  C   UNL     1      61.141  51.180  59.119  0.00  0.00    +0.000 A 
ATOM     14  C   UNL     1      67.500  52.436  59.646  0.00  0.00    +0.000 A 
ATOM     15  C   UNL     1      59.996  51.968  59.183  0.00  0.00    +0.000 A 
ATOM     16  C   UNL     1      60.134  53.337  59.405  0.00  0.00    +0.000 A 
ATOM     17  C   UNL     1      68.481  50.153  59.339  0.00  0.00    +0.000 C 
ENDROOT
BRANCH  10  18
ATOM     18  O   UNL     1      66.672  54.611  59.945  0.00  0.00    +0.000 OA
ATOM     19  H   UNL     1      66.658  55.088  59.082  0.00  0.00    +0.000 HD
ENDBRANCH  10  18
BRANCH  12  20
ATOM     20  O   UNL     1      61.461  55.258  59.776  0.00  0.00    +0.000 OA
ATOM     21  H   UNL     1      61.214  55.737  58.964  0.00  0.00    +0.000 HD
ENDBRANCH  12  20
BRANCH  15  22
ATOM     22  O   UNL     1      58.804  51.310  59.018  0.00  0.00    +0.000 OA
ATOM     23  C   UNL     1      57.679  52.139  58.906  0.00  0.00    +0.000 C 
ENDBRANCH  15  22
TORSDOF 3
ENDMDL
MODEL 9
REMARK VINA RESULT:      -5.3     16.700     18.395
REMARK  Name = 10639_Physcion.pdbqt.pdb
REMARK  3 active torsions:
REMARK  status: ('A' for Active; 'I' for Inactive)
REMARK    1  A    between atoms: C_10  and  O_18
REMARK    2  A    between atoms: C_12  and  O_20
REMARK    3  A    between atoms: C_15  and  O_22
REMARK                            x       y       z     vdW  Elec       q    Type
REMARK                         _______ _______ _______ _____ _____    ______ ____
ROOT
ATOM      1  O   UNL     1      57.800  37.442  66.946  0.00  0.00    +0.000 OA
ATOM      2  O   UNL     1      59.781  40.198  71.053  0.00  0.00    +0.000 OA
ATOM      3  C   UNL     1      57.926  39.170  70.069  0.00  0.00    +0.000 A 
ATOM      4  C   UNL     1      57.417  38.450  68.992  0.00  0.00    +0.000 A 
ATOM      5  C   UNL     1      59.734  38.472  67.892  0.00  0.00    +0.000 A 
ATOM      6  C   UNL     1      60.217  39.193  68.985  0.00  0.00    +0.000 A 
ATOM      7  C   UNL     1      58.302  38.076  67.867  0.00  0.00    +0.000 C 
ATOM      8  C   UNL     1      59.338  39.565  70.104  0.00  0.00    +0.000 C 
ATOM      9  C   UNL     1      57.105  39.531  71.140  0.00  0.00    +0.000 A 
ATOM     10  C   UNL     1      56.061  38.093  69.000  0.00  0.00    +0.000 A 
ATOM     11  C   UNL     1      55.762  39.170  71.133  0.00  0.00    +0.000 A 
ATOM     12  C   UNL     1      60.628  38.152  66.863  0.00  0.00    +0.000 A 
ATOM     13  C   UNL     1      61.557  39.587  69.053  0.00  0.00    +0.000 A 
ATOM     14  C   UNL     1      55.235  38.451  70.066  0.00  0.00    +0.000 A 
ATOM     15  C   UNL     1      62.440  39.266  68.027  0.00  0.00    +0.000 A 
ATOM     16  C   UNL     1      61.966  38.546  66.932  0.00  0.00    +0.000 A 
ATOM     17  C   UNL     1      54.883  39.559  72.283  0.00  0.00    +0.000 C 
ENDROOT
BRANCH  10  18
ATOM     18  O   UNL     1      55.470  37.386  67.987  0.00  0.00    +0.000 OA
ATOM     19  H   UNL     1      54.558  37.734  67.847  0.00  0.00    +0.000 HD
ENDBRANCH  10  18
BRANCH  12  20
ATOM     20  O   UNL     1      60.228  37.449  65.763  0.00  0.00    +0.000 OA
ATOM     21  H   UNL     1      59.581  36.768  66.020  0.00  0.00    +0.000 HD
ENDBRANCH  12  20
BRANCH  15  22
ATOM     22  O   UNL     1      63.732  39.698  68.189  0.00  0.00    +0.000 OA
ATOM     23  C   UNL     1      63.958  40.483  69.328  0.00  0.00    +0.000 C 
ENDBRANCH  15  22
TORSDOF 3
ENDMDL
