MODEL 1
REMARK VINA RESULT:      -6.2      0.000      0.000
REMARK  Name = 10940649_MilnamideD.pdbqt.pdb
REMARK  7 active torsions:
REMARK  status: ('A' for Active; 'I' for Inactive)
REMARK    1  A    between atoms: C_3  and  C_8
REMARK    2  A    between atoms: C_22  and  C_25
REMARK    3  A    between atoms: C_22  and  C_38
REMARK    4  A    between atoms: N_24  and  C_27
REMARK    5  A    between atoms: C_27  and  C_28
REMARK    6  A    between atoms: C_32  and  C_35
REMARK    7  A    between atoms: C_35  and  O_36
REMARK                            x       y       z     vdW  Elec       q    Type
REMARK                         _______ _______ _______ _____ _____    ______ ____
ROOT
ATOM      1  O   UNL     1      51.188  36.241  61.685  0.00  0.00    +0.000 OA
ATOM      2  N   UNL     1      49.241  35.262  61.047  0.00  0.00    +0.000 N 
ATOM      3  C   UNL     1      50.563  35.609  60.842  0.00  0.00    +0.000 C 
ATOM      4  H   UNL     1      48.725  34.824  60.276  0.00  0.00    +0.000 HD
ATOM      5  C   UNL     1      48.503  35.530  62.225  0.00  0.00    +0.000 C 
ENDROOT
BRANCH   3   9
ATOM      6  N   UNL     1      50.849  35.888  58.299  0.00  0.00    +0.000 NA
ATOM      7  N   UNL     1      53.035  33.545  56.037  0.00  0.00    +0.000 N 
ATOM      8  C   UNL     1      51.890  33.790  59.581  0.00  0.00    +0.000 C 
ATOM      9  C   UNL     1      51.173  35.172  59.544  0.00  0.00    +0.000 C 
ATOM     10  C   UNL     1      52.552  33.385  58.226  0.00  0.00    +0.000 A 
ATOM     11  C   UNL     1      52.371  34.113  57.067  0.00  0.00    +0.000 A 
ATOM     12  C   UNL     1      50.848  32.662  59.843  0.00  0.00    +0.000 C 
ATOM     13  C   UNL     1      53.068  33.839  60.595  0.00  0.00    +0.000 C 
ATOM     14  C   UNL     1      53.390  32.277  57.843  0.00  0.00    +0.000 A 
ATOM     15  C   UNL     1      51.560  35.241  57.227  0.00  0.00    +0.000 C 
ATOM     16  C   UNL     1      53.678  32.409  56.470  0.00  0.00    +0.000 A 
ATOM     17  C   UNL     1      51.306  37.268  58.353  0.00  0.00    +0.000 C 
ATOM     18  C   UNL     1      53.926  31.175  58.539  0.00  0.00    +0.000 A 
ATOM     19  C   UNL     1      53.042  34.050  54.707  0.00  0.00    +0.000 C 
ATOM     20  C   UNL     1      54.478  31.483  55.783  0.00  0.00    +0.000 A 
ATOM     21  C   UNL     1      54.722  30.251  57.861  0.00  0.00    +0.000 A 
ATOM     22  C   UNL     1      54.993  30.406  56.507  0.00  0.00    +0.000 A 
ENDBRANCH   3   9
BRANCH   5  25
ATOM     23  O   UNL     1      49.023  37.244  63.713  0.00  0.00    +0.000 OA
ATOM     24  N   UNL     1      49.911  35.105  64.182  0.00  0.00    +0.000 N 
ATOM     25  C   UNL     1      49.187  36.061  63.429  0.00  0.00    +0.000 C 
ATOM     26  C   UNL     1      50.113  33.710  63.775  0.00  0.00    +0.000 C 
BRANCH  24  27
ATOM     27  C   UNL     1      50.475  35.454  65.422  0.00  0.00    +0.000 C 
ATOM     28  C   UNL     1      51.616  36.324  65.503  0.00  0.00    +0.000 C 
ATOM     29  C   UNL     1      52.649  37.111  65.583  0.00  0.00    +0.000 C 
ATOM     30  C   UNL     1      52.387  38.466  66.208  0.00  0.00    +0.000 C 
BRANCH  27  31
ATOM     31  C   UNL     1      49.918  34.972  66.678  0.00  0.00    +0.000 C 
ATOM     32  C   UNL     1      50.803  34.284  67.698  0.00  0.00    +0.000 C 
ATOM     33  C   UNL     1      48.688  35.647  67.256  0.00  0.00    +0.000 C 
ENDBRANCH  27  31
BRANCH  29  35
ATOM     34  O   UNL     1      55.042  37.202  65.296  0.00  0.00    +0.000 OA
ATOM     35  C   UNL     1      53.972  36.652  65.080  0.00  0.00    +0.000 C 
BRANCH  35  36
ATOM     36  O   UNL     1      53.928  35.533  64.326  0.00  0.00    +0.000 OA
ATOM     37  H   UNL     1      53.520  34.852  64.900  0.00  0.00    +0.000 HD
ENDBRANCH  35  36
ENDBRANCH  29  35
ENDBRANCH  24  27
ENDBRANCH   5  25
BRANCH   5  38
ATOM     38  C   UNL     1      47.073  35.067  62.454  0.00  0.00    +0.000 C 
ATOM     39  C   UNL     1      46.147  36.092  61.724  0.00  0.00    +0.000 C 
ATOM     40  C   UNL     1      46.905  33.682  61.766  0.00  0.00    +0.000 C 
ATOM     41  C   UNL     1      46.674  35.001  63.949  0.00  0.00    +0.000 C 
ENDBRANCH   5  38
TORSDOF 7
ENDMDL
MODEL 2
REMARK VINA RESULT:      -6.2     39.158     42.818
REMARK  Name = 10940649_MilnamideD.pdbqt.pdb
REMARK  7 active torsions:
REMARK  status: ('A' for Active; 'I' for Inactive)
REMARK    1  A    between atoms: C_3  and  C_8
REMARK    2  A    between atoms: C_22  and  C_25
REMARK    3  A    between atoms: C_22  and  C_38
REMARK    4  A    between atoms: N_24  and  C_27
REMARK    5  A    between atoms: C_27  and  C_28
REMARK    6  A    between atoms: C_32  and  C_35
REMARK    7  A    between atoms: C_35  and  O_36
REMARK                            x       y       z     vdW  Elec       q    Type
REMARK                         _______ _______ _______ _____ _____    ______ ____
ROOT
ATOM      1  O   UNL     1      57.251  70.717  82.594  0.00  0.00    +0.000 OA
ATOM      2  N   UNL     1      55.562  71.329  81.205  0.00  0.00    +0.000 N 
ATOM      3  C   UNL     1      56.768  71.554  81.841  0.00  0.00    +0.000 C 
ATOM      4  H   UNL     1      55.143  72.094  80.665  0.00  0.00    +0.000 HD
ATOM      5  C   UNL     1      54.804  70.136  81.297  0.00  0.00    +0.000 C 
ENDROOT
BRANCH   3   9
ATOM      6  N   UNL     1      57.419  73.937  82.565  0.00  0.00    +0.000 NA
ATOM      7  N   UNL     1      59.364  76.492  80.312  0.00  0.00    +0.000 N 
ATOM      8  C   UNL     1      57.857  73.086  80.072  0.00  0.00    +0.000 C 
ATOM      9  C   UNL     1      57.437  72.865  81.556  0.00  0.00    +0.000 C 
ATOM     10  C   UNL     1      58.590  74.441  79.819  0.00  0.00    +0.000 A 
ATOM     11  C   UNL     1      58.702  75.415  80.790  0.00  0.00    +0.000 A 
ATOM     12  C   UNL     1      56.589  73.169  79.171  0.00  0.00    +0.000 C 
ATOM     13  C   UNL     1      58.886  71.997  79.653  0.00  0.00    +0.000 C 
ATOM     14  C   UNL     1      59.234  74.998  78.656  0.00  0.00    +0.000 A 
ATOM     15  C   UNL     1      58.116  75.068  82.011  0.00  0.00    +0.000 C 
ATOM     16  C   UNL     1      59.711  76.279  78.999  0.00  0.00    +0.000 A 
ATOM     17  C   UNL     1      58.129  73.536  83.769  0.00  0.00    +0.000 C 
ATOM     18  C   UNL     1      59.451  74.530  77.344  0.00  0.00    +0.000 A 
ATOM     19  C   UNL     1      59.636  77.669  81.065  0.00  0.00    +0.000 C 
ATOM     20  C   UNL     1      60.392  77.092  78.081  0.00  0.00    +0.000 A 
ATOM     21  C   UNL     1      60.127  75.335  76.427  0.00  0.00    +0.000 A 
ATOM     22  C   UNL     1      60.590  76.593  76.793  0.00  0.00    +0.000 A 
ENDBRANCH   3   9
BRANCH   5  25
ATOM     23  O   UNL     1      56.089  68.194  81.302  0.00  0.00    +0.000 OA
ATOM     24  N   UNL     1      55.089  68.828  83.347  0.00  0.00    +0.000 N 
ATOM     25  C   UNL     1      55.374  68.941  81.965  0.00  0.00    +0.000 C 
ATOM     26  C   UNL     1      54.192  69.726  84.083  0.00  0.00    +0.000 C 
BRANCH  24  27
ATOM     27  C   UNL     1      55.697  67.823  84.120  0.00  0.00    +0.000 C 
ATOM     28  C   UNL     1      56.688  68.142  85.111  0.00  0.00    +0.000 C 
ATOM     29  C   UNL     1      57.586  68.423  86.009  0.00  0.00    +0.000 C 
ATOM     30  C   UNL     1      57.169  68.181  87.444  0.00  0.00    +0.000 C 
BRANCH  27  31
ATOM     31  C   UNL     1      55.335  66.421  83.971  0.00  0.00    +0.000 C 
ATOM     32  C   UNL     1      56.124  65.342  84.687  0.00  0.00    +0.000 C 
ATOM     33  C   UNL     1      53.897  66.050  83.654  0.00  0.00    +0.000 C 
ENDBRANCH  27  31
BRANCH  29  35
ATOM     34  O   UNL     1      59.793  69.336  86.345  0.00  0.00    +0.000 OA
ATOM     35  C   UNL     1      58.916  68.943  85.589  0.00  0.00    +0.000 C 
BRANCH  35  36
ATOM     36  O   UNL     1      59.116  68.962  84.255  0.00  0.00    +0.000 OA
ATOM     37  H   UNL     1      58.220  68.981  83.860  0.00  0.00    +0.000 HD
ENDBRANCH  35  36
ENDBRANCH  29  35
ENDBRANCH  24  27
ENDBRANCH   5  25
BRANCH   5  38
ATOM     38  C   UNL     1      53.519  69.886  80.524  0.00  0.00    +0.000 C 
ATOM     39  C   UNL     1      53.879  69.992  79.008  0.00  0.00    +0.000 C 
ATOM     40  C   UNL     1      53.064  68.427  80.816  0.00  0.00    +0.000 C 
ATOM     41  C   UNL     1      52.394  70.899  80.849  0.00  0.00    +0.000 C 
ENDBRANCH   5  38
TORSDOF 7
ENDMDL
MODEL 3
REMARK VINA RESULT:      -6.2      6.131     10.042
REMARK  Name = 10940649_MilnamideD.pdbqt.pdb
REMARK  7 active torsions:
REMARK  status: ('A' for Active; 'I' for Inactive)
REMARK    1  A    between atoms: C_3  and  C_8
REMARK    2  A    between atoms: C_22  and  C_25
REMARK    3  A    between atoms: C_22  and  C_38
REMARK    4  A    between atoms: N_24  and  C_27
REMARK    5  A    between atoms: C_27  and  C_28
REMARK    6  A    between atoms: C_32  and  C_35
REMARK    7  A    between atoms: C_35  and  O_36
REMARK                            x       y       z     vdW  Elec       q    Type
REMARK                         _______ _______ _______ _____ _____    ______ ____
ROOT
ATOM      1  O   UNL     1      57.488  36.827  67.714  0.00  0.00    +0.000 OA
ATOM      2  N   UNL     1      59.290  36.700  66.339  0.00  0.00    +0.000 N 
ATOM      3  C   UNL     1      57.991  36.386  66.688  0.00  0.00    +0.000 C 
ATOM      4  H   UNL     1      59.707  36.229  65.528  0.00  0.00    +0.000 HD
ATOM      5  C   UNL     1      60.137  37.577  67.060  0.00  0.00    +0.000 C 
ENDROOT
BRANCH   3   9
ATOM      6  N   UNL     1      57.881  34.249  65.256  0.00  0.00    +0.000 NA
ATOM      7  N   UNL     1      54.837  33.242  62.996  0.00  0.00    +0.000 N 
ATOM      8  C   UNL     1      55.951  36.091  65.135  0.00  0.00    +0.000 C 
ATOM      9  C   UNL     1      57.248  35.485  65.748  0.00  0.00    +0.000 C 
ATOM     10  C   UNL     1      55.178  35.111  64.196  0.00  0.00    +0.000 A 
ATOM     11  C   UNL     1      55.692  33.886  63.821  0.00  0.00    +0.000 A 
ATOM     12  C   UNL     1      56.314  37.290  64.211  0.00  0.00    +0.000 C 
ATOM     13  C   UNL     1      54.942  36.424  66.272  0.00  0.00    +0.000 C 
ATOM     14  C   UNL     1      53.908  35.206  63.521  0.00  0.00    +0.000 A 
ATOM     15  C   UNL     1      56.947  33.606  64.369  0.00  0.00    +0.000 C 
ATOM     16  C   UNL     1      53.723  34.020  62.783  0.00  0.00    +0.000 A 
ATOM     17  C   UNL     1      58.150  33.327  66.347  0.00  0.00    +0.000 C 
ATOM     18  C   UNL     1      52.904  36.194  63.469  0.00  0.00    +0.000 A 
ATOM     19  C   UNL     1      55.079  31.960  62.427  0.00  0.00    +0.000 C 
ATOM     20  C   UNL     1      52.576  33.796  62.007  0.00  0.00    +0.000 A 
ATOM     21  C   UNL     1      51.762  35.976  62.698  0.00  0.00    +0.000 A 
ATOM     22  C   UNL     1      51.602  34.796  61.983  0.00  0.00    +0.000 A 
ENDBRANCH   3   9
BRANCH   5  25
ATOM     23  O   UNL     1      59.093  39.473  67.917  0.00  0.00    +0.000 OA
ATOM     24  N   UNL     1      59.645  37.762  69.451  0.00  0.00    +0.000 N 
ATOM     25  C   UNL     1      59.595  38.383  68.180  0.00  0.00    +0.000 C 
ATOM     26  C   UNL     1      60.295  36.474  69.718  0.00  0.00    +0.000 C 
BRANCH  24  27
ATOM     27  C   UNL     1      59.026  38.362  70.562  0.00  0.00    +0.000 C 
ATOM     28  C   UNL     1      57.613  38.626  70.575  0.00  0.00    +0.000 C 
ATOM     29  C   UNL     1      56.335  38.868  70.594  0.00  0.00    +0.000 C 
ATOM     30  C   UNL     1      55.532  38.046  71.579  0.00  0.00    +0.000 C 
BRANCH  27  31
ATOM     31  C   UNL     1      59.779  38.720  71.755  0.00  0.00    +0.000 C 
ATOM     32  C   UNL     1      59.449  38.085  73.092  0.00  0.00    +0.000 C 
ATOM     33  C   UNL     1      61.211  39.202  71.618  0.00  0.00    +0.000 C 
ENDBRANCH  27  31
BRANCH  29  35
ATOM     34  O   UNL     1      54.570  40.102  69.507  0.00  0.00    +0.000 OA
ATOM     35  C   UNL     1      55.762  39.898  69.684  0.00  0.00    +0.000 C 
BRANCH  35  36
ATOM     36  O   UNL     1      56.679  40.636  69.025  0.00  0.00    +0.000 OA
ATOM     37  H   UNL     1      57.396  40.796  69.672  0.00  0.00    +0.000 HD
ENDBRANCH  35  36
ENDBRANCH  29  35
ENDBRANCH  24  27
ENDBRANCH   5  25
BRANCH   5  38
ATOM     38  C   UNL     1      61.537  37.966  66.610  0.00  0.00    +0.000 C 
ATOM     39  C   UNL     1      61.373  38.769  65.280  0.00  0.00    +0.000 C 
ATOM     40  C   UNL     1      62.135  38.918  67.684  0.00  0.00    +0.000 C 
ATOM     41  C   UNL     1      62.466  36.753  66.358  0.00  0.00    +0.000 C 
ENDBRANCH   5  38
TORSDOF 7
ENDMDL
MODEL 4
REMARK VINA RESULT:      -6.1     32.165     36.353
REMARK  Name = 10940649_MilnamideD.pdbqt.pdb
REMARK  7 active torsions:
REMARK  status: ('A' for Active; 'I' for Inactive)
REMARK    1  A    between atoms: C_3  and  C_8
REMARK    2  A    between atoms: C_22  and  C_25
REMARK    3  A    between atoms: C_22  and  C_38
REMARK    4  A    between atoms: N_24  and  C_27
REMARK    5  A    between atoms: C_27  and  C_28
REMARK    6  A    between atoms: C_32  and  C_35
REMARK    7  A    between atoms: C_35  and  O_36
REMARK                            x       y       z     vdW  Elec       q    Type
REMARK                         _______ _______ _______ _____ _____    ______ ____
ROOT
ATOM      1  O   UNL     1      68.818  64.776  65.384  0.00  0.00    +0.000 OA
ATOM      2  N   UNL     1      67.556  65.791  63.792  0.00  0.00    +0.000 N 
ATOM      3  C   UNL     1      68.303  65.802  64.955  0.00  0.00    +0.000 C 
ATOM      4  H   UNL     1      67.058  66.647  63.523  0.00  0.00    +0.000 HD
ATOM      5  C   UNL     1      67.355  64.659  62.964  0.00  0.00    +0.000 C 
ENDROOT
BRANCH   3   9
ATOM      6  N   UNL     1      69.777  67.660  65.955  0.00  0.00    +0.000 NA
ATOM      7  N   UNL     1      68.401  70.878  67.726  0.00  0.00    +0.000 N 
ATOM      8  C   UNL     1      67.124  67.697  66.249  0.00  0.00    +0.000 C 
ATOM      9  C   UNL     1      68.441  67.124  65.647  0.00  0.00    +0.000 C 
ATOM     10  C   UNL     1      67.293  69.096  66.923  0.00  0.00    +0.000 A 
ATOM     11  C   UNL     1      68.528  69.683  67.109  0.00  0.00    +0.000 A 
ATOM     12  C   UNL     1      66.629  66.779  67.405  0.00  0.00    +0.000 C 
ATOM     13  C   UNL     1      66.088  67.931  65.112  0.00  0.00    +0.000 C 
ATOM     14  C   UNL     1      66.349  70.023  67.494  0.00  0.00    +0.000 A 
ATOM     15  C   UNL     1      69.597  68.921  66.626  0.00  0.00    +0.000 C 
ATOM     16  C   UNL     1      67.074  71.128  67.984  0.00  0.00    +0.000 A 
ATOM     17  C   UNL     1      70.531  67.920  64.738  0.00  0.00    +0.000 C 
ATOM     18  C   UNL     1      64.948  70.019  67.643  0.00  0.00    +0.000 A 
ATOM     19  C   UNL     1      69.490  71.728  68.067  0.00  0.00    +0.000 C 
ATOM     20  C   UNL     1      66.444  72.217  68.606  0.00  0.00    +0.000 A 
ATOM     21  C   UNL     1      64.317  71.099  68.261  0.00  0.00    +0.000 A 
ATOM     22  C   UNL     1      65.054  72.178  68.731  0.00  0.00    +0.000 A 
ENDBRANCH   3   9
BRANCH   5  25
ATOM     23  O   UNL     1      69.232  63.306  62.710  0.00  0.00    +0.000 OA
ATOM     24  N   UNL     1      67.492  62.486  64.082  0.00  0.00    +0.000 N 
ATOM     25  C   UNL     1      68.116  63.411  63.211  0.00  0.00    +0.000 C 
ATOM     26  C   UNL     1      66.136  62.641  64.621  0.00  0.00    +0.000 C 
BRANCH  24  27
ATOM     27  C   UNL     1      68.180  61.336  64.512  0.00  0.00    +0.000 C 
ATOM     28  C   UNL     1      69.204  61.413  65.517  0.00  0.00    +0.000 C 
ATOM     29  C   UNL     1      70.133  61.475  66.425  0.00  0.00    +0.000 C 
ATOM     30  C   UNL     1      69.798  60.811  67.744  0.00  0.00    +0.000 C 
BRANCH  27  31
ATOM     31  C   UNL     1      67.870  60.018  63.979  0.00  0.00    +0.000 C 
ATOM     32  C   UNL     1      67.009  59.871  62.740  0.00  0.00    +0.000 C 
ATOM     33  C   UNL     1      68.831  58.869  64.223  0.00  0.00    +0.000 C 
ENDBRANCH  27  31
BRANCH  29  35
ATOM     34  O   UNL     1      71.537  63.180  65.456  0.00  0.00    +0.000 OA
ATOM     35  C   UNL     1      71.418  62.165  66.127  0.00  0.00    +0.000 C 
BRANCH  35  36
ATOM     36  O   UNL     1      72.508  61.576  66.662  0.00  0.00    +0.000 OA
ATOM     37  H   UNL     1      72.800  60.920  65.996  0.00  0.00    +0.000 HD
ENDBRANCH  35  36
ENDBRANCH  29  35
ENDBRANCH  24  27
ENDBRANCH   5  25
BRANCH   5  38
ATOM     38  C   UNL     1      66.593  64.696  61.649  0.00  0.00    +0.000 C 
ATOM     39  C   UNL     1      65.187  65.300  61.962  0.00  0.00    +0.000 C 
ATOM     40  C   UNL     1      67.340  65.669  60.693  0.00  0.00    +0.000 C 
ATOM     41  C   UNL     1      66.412  63.302  60.999  0.00  0.00    +0.000 C 
ENDBRANCH   5  38
TORSDOF 7
ENDMDL
MODEL 5
REMARK VINA RESULT:      -6.1     27.333     32.656
REMARK  Name = 10940649_MilnamideD.pdbqt.pdb
REMARK  7 active torsions:
REMARK  status: ('A' for Active; 'I' for Inactive)
REMARK    1  A    between atoms: C_3  and  C_8
REMARK    2  A    between atoms: C_22  and  C_25
REMARK    3  A    between atoms: C_22  and  C_38
REMARK    4  A    between atoms: N_24  and  C_27
REMARK    5  A    between atoms: C_27  and  C_28
REMARK    6  A    between atoms: C_32  and  C_35
REMARK    7  A    between atoms: C_35  and  O_36
REMARK                            x       y       z     vdW  Elec       q    Type
REMARK                         _______ _______ _______ _____ _____    ______ ____
ROOT
ATOM      1  O   UNL     1      51.926  60.098  82.838  0.00  0.00    +0.000 OA
ATOM      2  N   UNL     1      53.544  58.511  82.710  0.00  0.00    +0.000 N 
ATOM      3  C   UNL     1      52.350  59.079  82.308  0.00  0.00    +0.000 C 
ATOM      4  H   UNL     1      53.813  57.604  82.313  0.00  0.00    +0.000 HD
ATOM      5  C   UNL     1      54.408  59.046  83.697  0.00  0.00    +0.000 C 
ENDROOT
BRANCH   3   9
ATOM      6  N   UNL     1      51.519  59.008  79.873  0.00  0.00    +0.000 NA
ATOM      7  N   UNL     1      49.358  56.113  78.344  0.00  0.00    +0.000 N 
ATOM      8  C   UNL     1      50.767  57.153  81.640  0.00  0.00    +0.000 C 
ATOM      9  C   UNL     1      51.620  58.380  81.201  0.00  0.00    +0.000 C 
ATOM     10  C   UNL     1      50.055  56.423  80.458  0.00  0.00    +0.000 A 
ATOM     11  C   UNL     1      50.054  56.923  79.172  0.00  0.00    +0.000 A 
ATOM     12  C   UNL     1      49.595  57.625  82.552  0.00  0.00    +0.000 C 
ATOM     13  C   UNL     1      51.692  56.073  82.271  0.00  0.00    +0.000 C 
ATOM     14  C   UNL     1      49.277  55.212  80.388  0.00  0.00    +0.000 A 
ATOM     15  C   UNL     1      50.757  58.124  79.030  0.00  0.00    +0.000 C 
ATOM     16  C   UNL     1      48.860  55.045  79.052  0.00  0.00    +0.000 A 
ATOM     17  C   UNL     1      52.831  59.163  79.265  0.00  0.00    +0.000 C 
ATOM     18  C   UNL     1      48.888  54.247  81.338  0.00  0.00    +0.000 A 
ATOM     19  C   UNL     1      49.164  56.356  76.955  0.00  0.00    +0.000 C 
ATOM     20  C   UNL     1      48.078  53.953  78.646  0.00  0.00    +0.000 A 
ATOM     21  C   UNL     1      48.110  53.160  80.940  0.00  0.00    +0.000 A 
ATOM     22  C   UNL     1      47.716  53.017  79.616  0.00  0.00    +0.000 A 
ENDBRANCH   3   9
BRANCH   5  25
ATOM     23  O   UNL     1      53.644  60.485  85.359  0.00  0.00    +0.000 OA
ATOM     24  N   UNL     1      54.629  61.472  83.452  0.00  0.00    +0.000 N 
ATOM     25  C   UNL     1      54.161  60.400  84.249  0.00  0.00    +0.000 C 
ATOM     26  C   UNL     1      55.202  61.317  82.110  0.00  0.00    +0.000 C 
BRANCH  24  27
ATOM     27  C   UNL     1      54.589  62.791  83.937  0.00  0.00    +0.000 C 
ATOM     28  C   UNL     1      53.352  63.518  84.016  0.00  0.00    +0.000 C 
ATOM     29  C   UNL     1      52.236  64.183  84.090  0.00  0.00    +0.000 C 
ATOM     30  C   UNL     1      51.752  64.486  85.492  0.00  0.00    +0.000 C 
BRANCH  27  31
ATOM     31  C   UNL     1      55.789  63.470  84.403  0.00  0.00    +0.000 C 
ATOM     32  C   UNL     1      55.924  64.974  84.267  0.00  0.00    +0.000 C 
ATOM     33  C   UNL     1      56.604  62.859  85.528  0.00  0.00    +0.000 C 
ENDBRANCH  27  31
BRANCH  29  35
ATOM     34  O   UNL     1      50.964  65.660  82.669  0.00  0.00    +0.000 OA
ATOM     35  C   UNL     1      51.533  64.591  82.844  0.00  0.00    +0.000 C 
BRANCH  35  36
ATOM     36  O   UNL     1      51.552  63.668  81.860  0.00  0.00    +0.000 OA
ATOM     37  H   UNL     1      51.222  64.132  81.064  0.00  0.00    +0.000 HD
ENDBRANCH  35  36
ENDBRANCH  29  35
ENDBRANCH  24  27
ENDBRANCH   5  25
BRANCH   5  38
ATOM     38  C   UNL     1      55.754  58.441  84.064  0.00  0.00    +0.000 C 
ATOM     39  C   UNL     1      55.459  57.049  84.708  0.00  0.00    +0.000 C 
ATOM     40  C   UNL     1      56.548  58.210  82.746  0.00  0.00    +0.000 C 
ATOM     41  C   UNL     1      56.567  59.299  85.063  0.00  0.00    +0.000 C 
ENDBRANCH   5  38
TORSDOF 7
ENDMDL
MODEL 6
REMARK VINA RESULT:      -6.1      4.574      8.169
REMARK  Name = 10940649_MilnamideD.pdbqt.pdb
REMARK  7 active torsions:
REMARK  status: ('A' for Active; 'I' for Inactive)
REMARK    1  A    between atoms: C_3  and  C_8
REMARK    2  A    between atoms: C_22  and  C_25
REMARK    3  A    between atoms: C_22  and  C_38
REMARK    4  A    between atoms: N_24  and  C_27
REMARK    5  A    between atoms: C_27  and  C_28
REMARK    6  A    between atoms: C_32  and  C_35
REMARK    7  A    between atoms: C_35  and  O_36
REMARK                            x       y       z     vdW  Elec       q    Type
REMARK                         _______ _______ _______ _____ _____    ______ ____
ROOT
ATOM      1  O   UNL     1      54.643  36.036  63.775  0.00  0.00    +0.000 OA
ATOM      2  N   UNL     1      54.535  33.917  62.966  0.00  0.00    +0.000 N 
ATOM      3  C   UNL     1      55.173  34.939  63.643  0.00  0.00    +0.000 C 
ATOM      4  H   UNL     1      55.054  33.049  62.789  0.00  0.00    +0.000 HD
ATOM      5  C   UNL     1      53.229  33.991  62.423  0.00  0.00    +0.000 C 
ENDROOT
BRANCH   3   9
ATOM      6  N   UNL     1      56.883  33.243  64.551  0.00  0.00    +0.000 NA
ATOM      7  N   UNL     1      60.471  34.174  65.836  0.00  0.00    +0.000 N 
ATOM      8  C   UNL     1      57.376  35.866  64.617  0.00  0.00    +0.000 C 
ATOM      9  C   UNL     1      56.532  34.628  64.193  0.00  0.00    +0.000 C 
ATOM     10  C   UNL     1      58.801  35.509  65.144  0.00  0.00    +0.000 A 
ATOM     11  C   UNL     1      59.204  34.208  65.367  0.00  0.00    +0.000 A 
ATOM     12  C   UNL     1      56.696  36.581  65.822  0.00  0.00    +0.000 C 
ATOM     13  C   UNL     1      57.630  36.773  63.378  0.00  0.00    +0.000 C 
ATOM     14  C   UNL     1      59.929  36.320  65.529  0.00  0.00    +0.000 A 
ATOM     15  C   UNL     1      58.229  33.253  65.062  0.00  0.00    +0.000 C 
ATOM     16  C   UNL     1      60.957  35.454  65.953  0.00  0.00    +0.000 A 
ATOM     17  C   UNL     1      56.869  32.379  63.381  0.00  0.00    +0.000 C 
ATOM     18  C   UNL     1      60.166  37.709  65.560  0.00  0.00    +0.000 A 
ATOM     19  C   UNL     1      61.172  32.982  66.171  0.00  0.00    +0.000 C 
ATOM     20  C   UNL     1      62.200  35.932  66.396  0.00  0.00    +0.000 A 
ATOM     21  C   UNL     1      61.399  38.190  66.000  0.00  0.00    +0.000 A 
ATOM     22  C   UNL     1      62.397  37.314  66.408  0.00  0.00    +0.000 A 
ENDBRANCH   3   9
BRANCH   5  25
ATOM     23  O   UNL     1      52.252  36.027  61.858  0.00  0.00    +0.000 OA
ATOM     24  N   UNL     1      51.685  35.108  63.959  0.00  0.00    +0.000 N 
ATOM     25  C   UNL     1      52.365  35.159  62.718  0.00  0.00    +0.000 C 
ATOM     26  C   UNL     1      51.888  34.066  64.973  0.00  0.00    +0.000 C 
BRANCH  24  27
ATOM     27  C   UNL     1      50.722  36.080  64.285  0.00  0.00    +0.000 C 
ATOM     28  C   UNL     1      49.456  36.130  63.607  0.00  0.00    +0.000 C 
ATOM     29  C   UNL     1      48.308  36.183  62.997  0.00  0.00    +0.000 C 
ATOM     30  C   UNL     1      47.104  35.837  63.847  0.00  0.00    +0.000 C 
BRANCH  27  31
ATOM     31  C   UNL     1      50.952  37.060  65.336  0.00  0.00    +0.000 C 
ATOM     32  C   UNL     1      52.302  37.734  65.478  0.00  0.00    +0.000 C 
ATOM     33  C   UNL     1      49.783  37.861  65.879  0.00  0.00    +0.000 C 
ENDBRANCH  27  31
BRANCH  29  35
ATOM     34  O   UNL     1      47.390  37.272  61.051  0.00  0.00    +0.000 OA
ATOM     35  C   UNL     1      48.249  36.567  61.560  0.00  0.00    +0.000 C 
BRANCH  35  36
ATOM     36  O   UNL     1      49.248  36.065  60.804  0.00  0.00    +0.000 OA
ATOM     37  H   UNL     1      48.808  35.680  60.019  0.00  0.00    +0.000 HD
ENDBRANCH  35  36
ENDBRANCH  29  35
ENDBRANCH  24  27
ENDBRANCH   5  25
BRANCH   5  38
ATOM     38  C   UNL     1      52.522  32.824  61.752  0.00  0.00    +0.000 C 
ATOM     39  C   UNL     1      53.079  32.740  60.295  0.00  0.00    +0.000 C 
ATOM     40  C   UNL     1      52.928  31.525  62.505  0.00  0.00    +0.000 C 
ATOM     41  C   UNL     1      50.983  32.981  61.697  0.00  0.00    +0.000 C 
ENDBRANCH   5  38
TORSDOF 7
ENDMDL
MODEL 7
REMARK VINA RESULT:      -6.1      8.076     13.142
REMARK  Name = 10940649_MilnamideD.pdbqt.pdb
REMARK  7 active torsions:
REMARK  status: ('A' for Active; 'I' for Inactive)
REMARK    1  A    between atoms: C_3  and  C_8
REMARK    2  A    between atoms: C_22  and  C_25
REMARK    3  A    between atoms: C_22  and  C_38
REMARK    4  A    between atoms: N_24  and  C_27
REMARK    5  A    between atoms: C_27  and  C_28
REMARK    6  A    between atoms: C_32  and  C_35
REMARK    7  A    between atoms: C_35  and  O_36
REMARK                            x       y       z     vdW  Elec       q    Type
REMARK                         _______ _______ _______ _____ _____    ______ ____
ROOT
ATOM      1  O   UNL     1      57.321  37.809  69.629  0.00  0.00    +0.000 OA
ATOM      2  N   UNL     1      55.914  36.256  68.754  0.00  0.00    +0.000 N 
ATOM      3  C   UNL     1      56.232  37.248  69.662  0.00  0.00    +0.000 C 
ATOM      4  H   UNL     1      55.034  35.742  68.879  0.00  0.00    +0.000 HD
ATOM      5  C   UNL     1      56.745  35.829  67.690  0.00  0.00    +0.000 C 
ENDROOT
BRANCH   3   9
ATOM      6  N   UNL     1      54.826  36.622  71.725  0.00  0.00    +0.000 NA
ATOM      7  N   UNL     1      52.047  38.901  73.297  0.00  0.00    +0.000 N 
ATOM      8  C   UNL     1      54.328  38.852  70.344  0.00  0.00    +0.000 C 
ATOM      9  C   UNL     1      55.179  37.589  70.673  0.00  0.00    +0.000 C 
ATOM     10  C   UNL     1      53.271  39.204  71.438  0.00  0.00    +0.000 A 
ATOM     11  C   UNL     1      53.011  38.375  72.509  0.00  0.00    +0.000 A 
ATOM     12  C   UNL     1      53.476  38.596  69.065  0.00  0.00    +0.000 C 
ATOM     13  C   UNL     1      55.253  40.101  70.273  0.00  0.00    +0.000 C 
ATOM     14  C   UNL     1      52.370  40.317  71.599  0.00  0.00    +0.000 A 
ATOM     15  C   UNL     1      53.786  37.211  72.528  0.00  0.00    +0.000 C 
ATOM     16  C   UNL     1      51.622  40.099  72.773  0.00  0.00    +0.000 A 
ATOM     17  C   UNL     1      55.958  36.364  72.601  0.00  0.00    +0.000 C 
ATOM     18  C   UNL     1      52.120  41.486  70.852  0.00  0.00    +0.000 A 
ATOM     19  C   UNL     1      51.546  38.283  74.478  0.00  0.00    +0.000 C 
ATOM     20  C   UNL     1      50.647  41.006  73.217  0.00  0.00    +0.000 A 
ATOM     21  C   UNL     1      51.152  42.391  71.288  0.00  0.00    +0.000 A 
ATOM     22  C   UNL     1      50.432  42.153  72.451  0.00  0.00    +0.000 A 
ENDBRANCH   3   9
BRANCH   5  25
ATOM     23  O   UNL     1      57.884  37.575  66.653  0.00  0.00    +0.000 OA
ATOM     24  N   UNL     1      59.160  36.100  67.987  0.00  0.00    +0.000 N 
ATOM     25  C   UNL     1      57.982  36.579  67.365  0.00  0.00    +0.000 C 
ATOM     26  C   UNL     1      59.231  34.877  68.795  0.00  0.00    +0.000 C 
BRANCH  24  27
ATOM     27  C   UNL     1      60.366  36.815  67.877  0.00  0.00    +0.000 C 
ATOM     28  C   UNL     1      60.764  37.762  68.882  0.00  0.00    +0.000 C 
ATOM     29  C   UNL     1      61.132  38.621  69.788  0.00  0.00    +0.000 C 
ATOM     30  C   UNL     1      62.349  38.230  70.599  0.00  0.00    +0.000 C 
BRANCH  27  31
ATOM     31  C   UNL     1      61.275  36.614  66.758  0.00  0.00    +0.000 C 
ATOM     32  C   UNL     1      61.169  35.371  65.896  0.00  0.00    +0.000 C 
ATOM     33  C   UNL     1      61.882  37.818  66.063  0.00  0.00    +0.000 C 
ENDBRANCH  27  31
BRANCH  29  35
ATOM     34  O   UNL     1      60.250  40.502  71.014  0.00  0.00    +0.000 OA
ATOM     35  C   UNL     1      60.366  39.885  69.965  0.00  0.00    +0.000 C 
BRANCH  35  36
ATOM     36  O   UNL     1      59.769  40.340  68.843  0.00  0.00    +0.000 OA
ATOM     37  H   UNL     1      59.695  41.309  68.966  0.00  0.00    +0.000 HD
ENDBRANCH  35  36
ENDBRANCH  29  35
ENDBRANCH  24  27
ENDBRANCH   5  25
BRANCH   5  38
ATOM     38  C   UNL     1      56.337  34.790  66.659  0.00  0.00    +0.000 C 
ATOM     39  C   UNL     1      55.036  35.322  65.976  0.00  0.00    +0.000 C 
ATOM     40  C   UNL     1      57.458  34.719  65.583  0.00  0.00    +0.000 C 
ATOM     41  C   UNL     1      56.054  33.393  67.265  0.00  0.00    +0.000 C 
ENDBRANCH   5  38
TORSDOF 7
ENDMDL
MODEL 8
REMARK VINA RESULT:      -6.1     27.371     32.773
REMARK  Name = 10940649_MilnamideD.pdbqt.pdb
REMARK  7 active torsions:
REMARK  status: ('A' for Active; 'I' for Inactive)
REMARK    1  A    between atoms: C_3  and  C_8
REMARK    2  A    between atoms: C_22  and  C_25
REMARK    3  A    between atoms: C_22  and  C_38
REMARK    4  A    between atoms: N_24  and  C_27
REMARK    5  A    between atoms: C_27  and  C_28
REMARK    6  A    between atoms: C_32  and  C_35
REMARK    7  A    between atoms: C_35  and  O_36
REMARK                            x       y       z     vdW  Elec       q    Type
REMARK                         _______ _______ _______ _____ _____    ______ ____
ROOT
ATOM      1  O   UNL     1      51.907  60.107  82.796  0.00  0.00    +0.000 OA
ATOM      2  N   UNL     1      53.515  58.508  82.696  0.00  0.00    +0.000 N 
ATOM      3  C   UNL     1      52.329  59.081  82.278  0.00  0.00    +0.000 C 
ATOM      4  H   UNL     1      53.781  57.596  82.308  0.00  0.00    +0.000 HD
ATOM      5  C   UNL     1      54.375  59.045  83.685  0.00  0.00    +0.000 C 
ENDROOT
BRANCH   3   9
ATOM      6  N   UNL     1      51.507  59.002  79.840  0.00  0.00    +0.000 NA
ATOM      7  N   UNL     1      49.355  56.101  78.311  0.00  0.00    +0.000 N 
ATOM      8  C   UNL     1      50.751  57.152  81.610  0.00  0.00    +0.000 C 
ATOM      9  C   UNL     1      51.604  58.378  81.170  0.00  0.00    +0.000 C 
ATOM     10  C   UNL     1      50.045  56.417  80.427  0.00  0.00    +0.000 A 
ATOM     11  C   UNL     1      50.047  56.914  79.139  0.00  0.00    +0.000 A 
ATOM     12  C   UNL     1      49.575  57.623  82.516  0.00  0.00    +0.000 C 
ATOM     13  C   UNL     1      51.675  56.074  82.247  0.00  0.00    +0.000 C 
ATOM     14  C   UNL     1      49.269  55.205  80.357  0.00  0.00    +0.000 A 
ATOM     15  C   UNL     1      50.749  58.116  78.997  0.00  0.00    +0.000 C 
ATOM     16  C   UNL     1      48.856  55.034  79.020  0.00  0.00    +0.000 A 
ATOM     17  C   UNL     1      52.821  59.158  79.237  0.00  0.00    +0.000 C 
ATOM     18  C   UNL     1      48.877  54.242  81.309  0.00  0.00    +0.000 A 
ATOM     19  C   UNL     1      49.166  56.339  76.921  0.00  0.00    +0.000 C 
ATOM     20  C   UNL     1      48.077  53.939  78.614  0.00  0.00    +0.000 A 
ATOM     21  C   UNL     1      48.102  53.152  80.910  0.00  0.00    +0.000 A 
ATOM     22  C   UNL     1      47.713  53.005  79.585  0.00  0.00    +0.000 A 
ENDBRANCH   3   9
BRANCH   5  25
ATOM     23  O   UNL     1      53.567  60.504  85.310  0.00  0.00    +0.000 OA
ATOM     24  N   UNL     1      54.659  61.465  83.448  0.00  0.00    +0.000 N 
ATOM     25  C   UNL     1      54.132  60.405  84.224  0.00  0.00    +0.000 C 
ATOM     26  C   UNL     1      55.289  61.295  82.134  0.00  0.00    +0.000 C 
BRANCH  24  27
ATOM     27  C   UNL     1      54.626  62.786  83.930  0.00  0.00    +0.000 C 
ATOM     28  C   UNL     1      55.035  63.100  85.271  0.00  0.00    +0.000 C 
ATOM     29  C   UNL     1      55.403  63.392  86.484  0.00  0.00    +0.000 C 
ATOM     30  C   UNL     1      56.669  64.214  86.599  0.00  0.00    +0.000 C 
BRANCH  27  31
ATOM     31  C   UNL     1      54.201  63.895  83.088  0.00  0.00    +0.000 C 
ATOM     32  C   UNL     1      52.745  64.050  82.697  0.00  0.00    +0.000 C 
ATOM     33  C   UNL     1      54.997  65.188  83.099  0.00  0.00    +0.000 C 
ENDBRANCH  27  31
BRANCH  29  35
ATOM     34  O   UNL     1      54.976  62.858  88.798  0.00  0.00    +0.000 OA
ATOM     35  C   UNL     1      54.590  62.922  87.639  0.00  0.00    +0.000 C 
BRANCH  35  36
ATOM     36  O   UNL     1      53.334  62.544  87.324  0.00  0.00    +0.000 OA
ATOM     37  H   UNL     1      53.225  61.654  87.719  0.00  0.00    +0.000 HD
ENDBRANCH  35  36
ENDBRANCH  29  35
ENDBRANCH  24  27
ENDBRANCH   5  25
BRANCH   5  38
ATOM     38  C   UNL     1      55.713  58.434  84.069  0.00  0.00    +0.000 C 
ATOM     39  C   UNL     1      55.401  57.059  84.744  0.00  0.00    +0.000 C 
ATOM     40  C   UNL     1      56.507  58.164  82.759  0.00  0.00    +0.000 C 
ATOM     41  C   UNL     1      56.533  59.305  85.051  0.00  0.00    +0.000 C 
ENDBRANCH   5  38
TORSDOF 7
ENDMDL
MODEL 9
REMARK VINA RESULT:      -6.0     25.720     28.677
REMARK  Name = 10940649_MilnamideD.pdbqt.pdb
REMARK  7 active torsions:
REMARK  status: ('A' for Active; 'I' for Inactive)
REMARK    1  A    between atoms: C_3  and  C_8
REMARK    2  A    between atoms: C_22  and  C_25
REMARK    3  A    between atoms: C_22  and  C_38
REMARK    4  A    between atoms: N_24  and  C_27
REMARK    5  A    between atoms: C_27  and  C_28
REMARK    6  A    between atoms: C_32  and  C_35
REMARK    7  A    between atoms: C_35  and  O_36
REMARK                            x       y       z     vdW  Elec       q    Type
REMARK                         _______ _______ _______ _____ _____    ______ ____
ROOT
ATOM      1  O   UNL     1      50.733  47.964  85.742  0.00  0.00    +0.000 OA
ATOM      2  N   UNL     1      52.246  47.886  87.432  0.00  0.00    +0.000 N 
ATOM      3  C   UNL     1      51.134  47.415  86.761  0.00  0.00    +0.000 C 
ATOM      4  H   UNL     1      52.488  47.463  88.335  0.00  0.00    +0.000 HD
ATOM      5  C   UNL     1      53.052  48.972  87.012  0.00  0.00    +0.000 C 
ENDROOT
BRANCH   3   9
ATOM      6  N   UNL     1      49.625  46.348  88.552  0.00  0.00    +0.000 NA
ATOM      7  N   UNL     1      48.804  42.519  88.774  0.00  0.00    +0.000 N 
ATOM      8  C   UNL     1      50.946  44.841  86.787  0.00  0.00    +0.000 C 
ATOM      9  C   UNL     1      50.461  46.212  87.348  0.00  0.00    +0.000 C 
ATOM     10  C   UNL     1      50.193  43.612  87.387  0.00  0.00    +0.000 A 
ATOM     11  C   UNL     1      49.303  43.728  88.435  0.00  0.00    +0.000 A 
ATOM     12  C   UNL     1      52.433  44.604  87.184  0.00  0.00    +0.000 C 
ATOM     13  C   UNL     1      50.658  44.772  85.259  0.00  0.00    +0.000 C 
ATOM     14  C   UNL     1      50.235  42.203  87.087  0.00  0.00    +0.000 A 
ATOM     15  C   UNL     1      49.130  45.039  88.890  0.00  0.00    +0.000 C 
ATOM     16  C   UNL     1      49.352  41.548  87.969  0.00  0.00    +0.000 A 
ATOM     17  C   UNL     1      48.471  47.196  88.297  0.00  0.00    +0.000 C 
ATOM     18  C   UNL     1      50.946  41.427  86.150  0.00  0.00    +0.000 A 
ATOM     19  C   UNL     1      47.867  42.300  89.823  0.00  0.00    +0.000 C 
ATOM     20  C   UNL     1      49.160  40.159  87.937  0.00  0.00    +0.000 A 
ATOM     21  C   UNL     1      50.759  40.044  86.114  0.00  0.00    +0.000 A 
ATOM     22  C   UNL     1      49.879  39.425  86.993  0.00  0.00    +0.000 A 
ENDBRANCH   3   9
BRANCH   5  25
ATOM     23  O   UNL     1      53.424  49.070  84.716  0.00  0.00    +0.000 OA
ATOM     24  N   UNL     1      51.926  50.651  85.631  0.00  0.00    +0.000 N 
ATOM     25  C   UNL     1      52.847  49.577  85.673  0.00  0.00    +0.000 C 
ATOM     26  C   UNL     1      51.296  51.248  86.814  0.00  0.00    +0.000 C 
BRANCH  24  27
ATOM     27  C   UNL     1      51.535  51.206  84.400  0.00  0.00    +0.000 C 
ATOM     28  C   UNL     1      50.589  50.538  83.549  0.00  0.00    +0.000 C 
ATOM     29  C   UNL     1      49.733  49.939  82.773  0.00  0.00    +0.000 C 
ATOM     30  C   UNL     1      48.397  50.635  82.619  0.00  0.00    +0.000 C 
BRANCH  27  31
ATOM     31  C   UNL     1      52.048  52.489  83.942  0.00  0.00    +0.000 C 
ATOM     32  C   UNL     1      51.115  53.520  83.338  0.00  0.00    +0.000 C 
ATOM     33  C   UNL     1      53.300  53.063  84.581  0.00  0.00    +0.000 C 
ENDBRANCH  27  31
BRANCH  29  35
ATOM     34  O   UNL     1      49.824  48.351  80.960  0.00  0.00    +0.000 OA
ATOM     35  C   UNL     1      50.104  48.660  82.110  0.00  0.00    +0.000 C 
BRANCH  35  36
ATOM     36  O   UNL     1      50.802  47.806  82.887  0.00  0.00    +0.000 OA
ATOM     37  H   UNL     1      50.704  46.930  82.461  0.00  0.00    +0.000 HD
ENDBRANCH  35  36
ENDBRANCH  29  35
ENDBRANCH  24  27
ENDBRANCH   5  25
BRANCH   5  38
ATOM     38  C   UNL     1      54.316  49.419  87.730  0.00  0.00    +0.000 C 
ATOM     39  C   UNL     1      53.922  49.658  89.223  0.00  0.00    +0.000 C 
ATOM     40  C   UNL     1      55.334  48.245  87.677  0.00  0.00    +0.000 C 
ATOM     41  C   UNL     1      54.929  50.718  87.154  0.00  0.00    +0.000 C 
ENDBRANCH   5  38
TORSDOF 7
ENDMDL
