MODEL 1
REMARK VINA RESULT:      -7.4      0.000      0.000
REMARK  Name = 11167602_Regorafenib.pdbqt.pdb
REMARK  6 active torsions:
REMARK  status: ('A' for Active; 'I' for Inactive)
REMARK    1  A    between atoms: C_2  and  N_10
REMARK    2  A    between atoms: C_3  and  O_25
REMARK    3  A    between atoms: N_9  and  C_15
REMARK    4  A    between atoms: C_16  and  C_24
REMARK    5  A    between atoms: O_25  and  C_27
REMARK    6  A    between atoms: C_29  and  C_34
REMARK                            x       y       z     vdW  Elec       q    Type
REMARK                         _______ _______ _______ _____ _____    ______ ____
ROOT
ATOM      1  F   UNL     1      53.299  39.532  69.037  0.00  0.00    +0.000 F 
ATOM      2  C   UNL     1      54.520  39.953  71.021  0.00  0.00    +0.000 A 
ATOM      3  C   UNL     1      52.440  41.614  71.874  0.00  0.00    +0.000 A 
ATOM      4  C   UNL     1      53.389  40.152  70.224  0.00  0.00    +0.000 A 
ATOM      5  C   UNL     1      54.604  40.615  72.244  0.00  0.00    +0.000 A 
ATOM      6  C   UNL     1      52.353  40.987  70.632  0.00  0.00    +0.000 A 
ATOM      7  C   UNL     1      53.574  41.455  72.667  0.00  0.00    +0.000 A 
ENDROOT
BRANCH   2  10
ATOM      8  O   UNL     1      56.573  40.482  69.036  0.00  0.00    +0.000 OA
ATOM      9  N   UNL     1      57.343  38.331  69.389  0.00  0.00    +0.000 N 
ATOM     10  N   UNL     1      55.527  39.085  70.548  0.00  0.00    +0.000 N 
ATOM     11  C   UNL     1      56.490  39.402  69.604  0.00  0.00    +0.000 C 
ATOM     12  H   UNL     1      57.199  37.495  69.937  0.00  0.00    +0.000 HD
ATOM     13  H   UNL     1      55.518  38.152  70.936  0.00  0.00    +0.000 HD
BRANCH   9  15
ATOM     14 CL   UNL     1      61.954  38.359  65.675  0.00  0.00    +0.000 Cl
ATOM     15  C   UNL     1      58.423  38.315  68.487  0.00  0.00    +0.000 A 
ATOM     16  C   UNL     1      60.637  39.174  67.931  0.00  0.00    +0.000 A 
ATOM     17  C   UNL     1      59.520  39.128  68.773  0.00  0.00    +0.000 A 
ATOM     18  C   UNL     1      58.442  37.533  67.337  0.00  0.00    +0.000 A 
ATOM     19  C   UNL     1      60.636  38.382  66.781  0.00  0.00    +0.000 A 
ATOM     20  C   UNL     1      59.543  37.566  66.487  0.00  0.00    +0.000 A 
BRANCH  16  24
ATOM     21  F   UNL     1      61.810  41.219  67.567  0.00  0.00    +0.000 F 
ATOM     22  F   UNL     1      61.748  40.465  69.598  0.00  0.00    +0.000 F 
ATOM     23  F   UNL     1      62.995  39.484  68.100  0.00  0.00    +0.000 F 
ATOM     24  C   UNL     1      61.781  40.066  68.297  0.00  0.00    +0.000 C 
ENDBRANCH  16  24
ENDBRANCH   9  15
ENDBRANCH   2  10
BRANCH   3  25
ATOM     25  O   UNL     1      51.491  42.510  72.307  0.00  0.00    +0.000 OA
BRANCH  25  27
ATOM     26  N   UNL     1      47.587  41.038  72.365  0.00  0.00    +0.000 NA
ATOM     27  C   UNL     1      50.177  42.099  72.319  0.00  0.00    +0.000 A 
ATOM     28  C   UNL     1      49.203  42.626  71.477  0.00  0.00    +0.000 A 
ATOM     29  C   UNL     1      47.936  42.071  71.548  0.00  0.00    +0.000 A 
ATOM     30  C   UNL     1      49.875  41.028  73.154  0.00  0.00    +0.000 A 
ATOM     31  C   UNL     1      48.577  40.544  73.145  0.00  0.00    +0.000 A 
BRANCH  29  34
ATOM     32  O   UNL     1      45.771  42.051  70.613  0.00  0.00    +0.000 OA
ATOM     33  N   UNL     1      47.229  43.789  70.047  0.00  0.00    +0.000 N 
ATOM     34  C   UNL     1      46.853  42.623  70.692  0.00  0.00    +0.000 C 
ATOM     35  C   UNL     1      46.520  44.645  69.136  0.00  0.00    +0.000 C 
ATOM     36  H   UNL     1      48.181  44.092  70.249  0.00  0.00    +0.000 HD
ENDBRANCH  29  34
ENDBRANCH  25  27
ENDBRANCH   3  25
TORSDOF 6
ENDMDL
MODEL 2
REMARK VINA RESULT:      -7.4      1.836      2.289
REMARK  Name = 11167602_Regorafenib.pdbqt.pdb
REMARK  6 active torsions:
REMARK  status: ('A' for Active; 'I' for Inactive)
REMARK    1  A    between atoms: C_2  and  N_10
REMARK    2  A    between atoms: C_3  and  O_25
REMARK    3  A    between atoms: N_9  and  C_15
REMARK    4  A    between atoms: C_16  and  C_24
REMARK    5  A    between atoms: O_25  and  C_27
REMARK    6  A    between atoms: C_29  and  C_34
REMARK                            x       y       z     vdW  Elec       q    Type
REMARK                         _______ _______ _______ _____ _____    ______ ____
ROOT
ATOM      1  F   UNL     1      53.376  39.561  69.180  0.00  0.00    +0.000 F 
ATOM      2  C   UNL     1      54.560  40.051  71.170  0.00  0.00    +0.000 A 
ATOM      3  C   UNL     1      52.415  41.653  71.977  0.00  0.00    +0.000 A 
ATOM      4  C   UNL     1      53.431  40.201  70.358  0.00  0.00    +0.000 A 
ATOM      5  C   UNL     1      54.607  40.734  72.385  0.00  0.00    +0.000 A 
ATOM      6  C   UNL     1      52.364  41.006  70.743  0.00  0.00    +0.000 A 
ATOM      7  C   UNL     1      53.545  41.544  72.784  0.00  0.00    +0.000 A 
ENDROOT
BRANCH   2  10
ATOM      8  O   UNL     1      56.530  40.569  69.100  0.00  0.00    +0.000 OA
ATOM      9  N   UNL     1      57.425  38.487  69.557  0.00  0.00    +0.000 N 
ATOM     10  N   UNL     1      55.601  39.212  70.721  0.00  0.00    +0.000 N 
ATOM     11  C   UNL     1      56.520  39.522  69.733  0.00  0.00    +0.000 C 
ATOM     12  H   UNL     1      57.341  37.679  70.157  0.00  0.00    +0.000 HD
ATOM     13  H   UNL     1      55.652  38.305  71.163  0.00  0.00    +0.000 HD
BRANCH   9  15
ATOM     14 CL   UNL     1      61.797  38.339  65.566  0.00  0.00    +0.000 Cl
ATOM     15  C   UNL     1      58.481  38.475  68.627  0.00  0.00    +0.000 A 
ATOM     16  C   UNL     1      59.377  37.536  66.561  0.00  0.00    +0.000 A 
ATOM     17  C   UNL     1      58.375  37.613  67.535  0.00  0.00    +0.000 A 
ATOM     18  C   UNL     1      59.611  39.277  68.747  0.00  0.00    +0.000 A 
ATOM     19  C   UNL     1      60.503  38.349  66.702  0.00  0.00    +0.000 A 
ATOM     20  C   UNL     1      60.619  39.214  67.789  0.00  0.00    +0.000 A 
BRANCH  16  24
ATOM     21  F   UNL     1      59.074  37.228  64.216  0.00  0.00    +0.000 F 
ATOM     22  F   UNL     1      60.249  35.738  65.263  0.00  0.00    +0.000 F 
ATOM     23  F   UNL     1      58.085  35.818  65.531  0.00  0.00    +0.000 F 
ATOM     24  C   UNL     1      59.200  36.590  65.415  0.00  0.00    +0.000 C 
ENDBRANCH  16  24
ENDBRANCH   9  15
ENDBRANCH   2  10
BRANCH   3  25
ATOM     25  O   UNL     1      51.431  42.522  72.387  0.00  0.00    +0.000 OA
BRANCH  25  27
ATOM     26  N   UNL     1      47.565  40.955  72.301  0.00  0.00    +0.000 NA
ATOM     27  C   UNL     1      50.128  42.079  72.354  0.00  0.00    +0.000 A 
ATOM     28  C   UNL     1      49.156  42.624  71.522  0.00  0.00    +0.000 A 
ATOM     29  C   UNL     1      47.902  42.036  71.542  0.00  0.00    +0.000 A 
ATOM     30  C   UNL     1      49.839  40.961  73.130  0.00  0.00    +0.000 A 
ATOM     31  C   UNL     1      48.554  40.447  73.072  0.00  0.00    +0.000 A 
BRANCH  29  34
ATOM     32  O   UNL     1      45.730  42.047  70.625  0.00  0.00    +0.000 OA
ATOM     33  N   UNL     1      47.208  43.764  70.047  0.00  0.00    +0.000 N 
ATOM     34  C   UNL     1      46.821  42.604  70.695  0.00  0.00    +0.000 C 
ATOM     35  C   UNL     1      46.503  44.632  69.143  0.00  0.00    +0.000 C 
ATOM     36  H   UNL     1      48.165  44.054  70.243  0.00  0.00    +0.000 HD
ENDBRANCH  29  34
ENDBRANCH  25  27
ENDBRANCH   3  25
TORSDOF 6
ENDMDL
MODEL 3
REMARK VINA RESULT:      -7.1      6.901     11.406
REMARK  Name = 11167602_Regorafenib.pdbqt.pdb
REMARK  6 active torsions:
REMARK  status: ('A' for Active; 'I' for Inactive)
REMARK    1  A    between atoms: C_2  and  N_10
REMARK    2  A    between atoms: C_3  and  O_25
REMARK    3  A    between atoms: N_9  and  C_15
REMARK    4  A    between atoms: C_16  and  C_24
REMARK    5  A    between atoms: O_25  and  C_27
REMARK    6  A    between atoms: C_29  and  C_34
REMARK                            x       y       z     vdW  Elec       q    Type
REMARK                         _______ _______ _______ _____ _____    ______ ____
ROOT
ATOM      1  F   UNL     1      57.279  33.550  65.908  0.00  0.00    +0.000 F 
ATOM      2  C   UNL     1      57.398  35.327  64.349  0.00  0.00    +0.000 A 
ATOM      3  C   UNL     1      59.590  36.336  65.760  0.00  0.00    +0.000 A 
ATOM      4  C   UNL     1      57.877  34.677  65.490  0.00  0.00    +0.000 A 
ATOM      5  C   UNL     1      58.021  36.504  63.936  0.00  0.00    +0.000 A 
ATOM      6  C   UNL     1      58.958  35.177  66.209  0.00  0.00    +0.000 A 
ATOM      7  C   UNL     1      59.106  37.017  64.645  0.00  0.00    +0.000 A 
ENDROOT
BRANCH   2  10
ATOM      8  O   UNL     1      54.770  36.472  63.880  0.00  0.00    +0.000 OA
ATOM      9  N   UNL     1      54.234  34.541  62.726  0.00  0.00    +0.000 N 
ATOM     10  N   UNL     1      56.304  34.758  63.664  0.00  0.00    +0.000 N 
ATOM     11  C   UNL     1      55.074  35.362  63.462  0.00  0.00    +0.000 C 
ATOM     12  H   UNL     1      54.600  33.656  62.407  0.00  0.00    +0.000 HD
ATOM     13  H   UNL     1      56.448  33.823  63.310  0.00  0.00    +0.000 HD
BRANCH   9  15
ATOM     14 CL   UNL     1      48.714  35.855  61.033  0.00  0.00    +0.000 Cl
ATOM     15  C   UNL     1      52.912  34.848  62.355  0.00  0.00    +0.000 A 
ATOM     16  C   UNL     1      51.393  35.535  60.574  0.00  0.00    +0.000 A 
ATOM     17  C   UNL     1      52.677  35.214  61.030  0.00  0.00    +0.000 A 
ATOM     18  C   UNL     1      51.841  34.800  63.243  0.00  0.00    +0.000 A 
ATOM     19  C   UNL     1      50.334  35.482  61.482  0.00  0.00    +0.000 A 
ATOM     20  C   UNL     1      50.558  35.116  62.809  0.00  0.00    +0.000 A 
BRANCH  16  24
ATOM     21  F   UNL     1      52.394  36.067  58.476  0.00  0.00    +0.000 F 
ATOM     22  F   UNL     1      50.511  34.995  58.427  0.00  0.00    +0.000 F 
ATOM     23  F   UNL     1      50.560  37.104  58.984  0.00  0.00    +0.000 F 
ATOM     24  C   UNL     1      51.211  35.919  59.139  0.00  0.00    +0.000 C 
ENDBRANCH  16  24
ENDBRANCH   9  15
ENDBRANCH   2  10
BRANCH   3  25
ATOM     25  O   UNL     1      60.614  36.927  66.462  0.00  0.00    +0.000 OA
BRANCH  25  27
ATOM     26  N   UNL     1      60.028  40.515  68.510  0.00  0.00    +0.000 NA
ATOM     27  C   UNL     1      60.342  38.099  67.132  0.00  0.00    +0.000 A 
ATOM     28  C   UNL     1      59.334  38.222  68.082  0.00  0.00    +0.000 A 
ATOM     29  C   UNL     1      59.215  39.441  68.727  0.00  0.00    +0.000 A 
ATOM     30  C   UNL     1      61.211  39.159  66.892  0.00  0.00    +0.000 A 
ATOM     31  C   UNL     1      61.008  40.335  67.596  0.00  0.00    +0.000 A 
BRANCH  29  34
ATOM     32  O   UNL     1      58.403  39.904  70.892  0.00  0.00    +0.000 OA
ATOM     33  N   UNL     1      56.871  39.461  69.181  0.00  0.00    +0.000 N 
ATOM     34  C   UNL     1      58.132  39.631  69.727  0.00  0.00    +0.000 C 
ATOM     35  C   UNL     1      55.561  39.544  69.766  0.00  0.00    +0.000 C 
ATOM     36  H   UNL     1      56.871  39.233  68.188  0.00  0.00    +0.000 HD
ENDBRANCH  29  34
ENDBRANCH  25  27
ENDBRANCH   3  25
TORSDOF 6
ENDMDL
MODEL 4
REMARK VINA RESULT:      -7.0      8.054     11.873
REMARK  Name = 11167602_Regorafenib.pdbqt.pdb
REMARK  6 active torsions:
REMARK  status: ('A' for Active; 'I' for Inactive)
REMARK    1  A    between atoms: C_2  and  N_10
REMARK    2  A    between atoms: C_3  and  O_25
REMARK    3  A    between atoms: N_9  and  C_15
REMARK    4  A    between atoms: C_16  and  C_24
REMARK    5  A    between atoms: O_25  and  C_27
REMARK    6  A    between atoms: C_29  and  C_34
REMARK                            x       y       z     vdW  Elec       q    Type
REMARK                         _______ _______ _______ _____ _____    ______ ____
ROOT
ATOM      1  F   UNL     1      54.022  35.623  66.444  0.00  0.00    +0.000 F 
ATOM      2  C   UNL     1      55.473  36.480  64.782  0.00  0.00    +0.000 A 
ATOM      3  C   UNL     1      57.562  36.367  66.635  0.00  0.00    +0.000 A 
ATOM      4  C   UNL     1      55.253  36.021  66.083  0.00  0.00    +0.000 A 
ATOM      5  C   UNL     1      56.753  36.903  64.427  0.00  0.00    +0.000 A 
ATOM      6  C   UNL     1      56.281  35.973  67.018  0.00  0.00    +0.000 A 
ATOM      7  C   UNL     1      57.795  36.860  65.353  0.00  0.00    +0.000 A 
ENDROOT
BRANCH   2  10
ATOM      8  O   UNL     1      54.807  34.539  62.727  0.00  0.00    +0.000 OA
ATOM      9  N   UNL     1      52.954  35.831  62.234  0.00  0.00    +0.000 N 
ATOM     10  N   UNL     1      54.385  36.493  63.883  0.00  0.00    +0.000 N 
ATOM     11  C   UNL     1      54.113  35.527  62.929  0.00  0.00    +0.000 C 
ATOM     12  H   UNL     1      52.444  36.659  62.505  0.00  0.00    +0.000 HD
ATOM     13  H   UNL     1      53.772  37.294  63.950  0.00  0.00    +0.000 HD
BRANCH   9  15
ATOM     14 CL   UNL     1      50.722  32.660  57.758  0.00  0.00    +0.000 Cl
ATOM     15  C   UNL     1      52.401  35.063  61.191  0.00  0.00    +0.000 A 
ATOM     16  C   UNL     1      52.438  34.512  58.815  0.00  0.00    +0.000 A 
ATOM     17  C   UNL     1      52.926  35.234  59.910  0.00  0.00    +0.000 A 
ATOM     18  C   UNL     1      51.369  34.151  61.382  0.00  0.00    +0.000 A 
ATOM     19  C   UNL     1      51.400  33.602  59.029  0.00  0.00    +0.000 A 
ATOM     20  C   UNL     1      50.869  33.424  60.306  0.00  0.00    +0.000 A 
BRANCH  16  24
ATOM     21  F   UNL     1      54.003  35.716  57.478  0.00  0.00    +0.000 F 
ATOM     22  F   UNL     1      53.662  33.638  56.966  0.00  0.00    +0.000 F 
ATOM     23  F   UNL     1      52.139  35.140  56.535  0.00  0.00    +0.000 F 
ATOM     24  C   UNL     1      53.047  34.743  57.468  0.00  0.00    +0.000 C 
ENDBRANCH  16  24
ENDBRANCH   9  15
ENDBRANCH   2  10
BRANCH   3  25
ATOM     25  O   UNL     1      58.608  36.417  67.526  0.00  0.00    +0.000 OA
BRANCH  25  27
ATOM     26  N   UNL     1      59.355  40.194  69.135  0.00  0.00    +0.000 NA
ATOM     27  C   UNL     1      58.929  37.639  68.074  0.00  0.00    +0.000 A 
ATOM     28  C   UNL     1      60.149  38.274  67.868  0.00  0.00    +0.000 A 
ATOM     29  C   UNL     1      60.311  39.532  68.424  0.00  0.00    +0.000 A 
ATOM     30  C   UNL     1      57.913  38.284  68.773  0.00  0.00    +0.000 A 
ATOM     31  C   UNL     1      58.177  39.545  69.284  0.00  0.00    +0.000 A 
BRANCH  29  34
ATOM     32  O   UNL     1      61.650  41.357  67.765  0.00  0.00    +0.000 OA
ATOM     33  N   UNL     1      62.681  39.485  68.713  0.00  0.00    +0.000 N 
ATOM     34  C   UNL     1      61.610  40.236  68.260  0.00  0.00    +0.000 C 
ATOM     35  C   UNL     1      64.091  39.761  68.747  0.00  0.00    +0.000 C 
ATOM     36  H   UNL     1      62.425  38.572  69.087  0.00  0.00    +0.000 HD
ENDBRANCH  29  34
ENDBRANCH  25  27
ENDBRANCH   3  25
TORSDOF 6
ENDMDL
MODEL 5
REMARK VINA RESULT:      -7.0      2.200      3.233
REMARK  Name = 11167602_Regorafenib.pdbqt.pdb
REMARK  6 active torsions:
REMARK  status: ('A' for Active; 'I' for Inactive)
REMARK    1  A    between atoms: C_2  and  N_10
REMARK    2  A    between atoms: C_3  and  O_25
REMARK    3  A    between atoms: N_9  and  C_15
REMARK    4  A    between atoms: C_16  and  C_24
REMARK    5  A    between atoms: O_25  and  C_27
REMARK    6  A    between atoms: C_29  and  C_34
REMARK                            x       y       z     vdW  Elec       q    Type
REMARK                         _______ _______ _______ _____ _____    ______ ____
ROOT
ATOM      1  F   UNL     1      53.296  39.734  69.082  0.00  0.00    +0.000 F 
ATOM      2  C   UNL     1      54.292  40.435  71.112  0.00  0.00    +0.000 A 
ATOM      3  C   UNL     1      52.001  41.946  71.641  0.00  0.00    +0.000 A 
ATOM      4  C   UNL     1      53.223  40.455  70.211  0.00  0.00    +0.000 A 
ATOM      5  C   UNL     1      54.206  41.201  72.273  0.00  0.00    +0.000 A 
ATOM      6  C   UNL     1      52.083  41.214  70.457  0.00  0.00    +0.000 A 
ATOM      7  C   UNL     1      53.070  41.967  72.534  0.00  0.00    +0.000 A 
ENDROOT
BRANCH   2  10
ATOM      8  O   UNL     1      56.224  40.786  68.972  0.00  0.00    +0.000 OA
ATOM      9  N   UNL     1      57.309  38.905  69.764  0.00  0.00    +0.000 N 
ATOM     10  N   UNL     1      55.413  39.636  70.802  0.00  0.00    +0.000 N 
ATOM     11  C   UNL     1      56.308  39.863  69.771  0.00  0.00    +0.000 C 
ATOM     12  H   UNL     1      57.297  38.204  70.491  0.00  0.00    +0.000 HD
ATOM     13  H   UNL     1      55.546  38.824  71.389  0.00  0.00    +0.000 HD
BRANCH   9  15
ATOM     14 CL   UNL     1      61.710  38.517  65.821  0.00  0.00    +0.000 Cl
ATOM     15  C   UNL     1      58.370  38.839  68.842  0.00  0.00    +0.000 A 
ATOM     16  C   UNL     1      59.334  37.704  66.909  0.00  0.00    +0.000 A 
ATOM     17  C   UNL     1      58.322  37.843  67.866  0.00  0.00    +0.000 A 
ATOM     18  C   UNL     1      59.451  39.714  68.861  0.00  0.00    +0.000 A 
ATOM     19  C   UNL     1      60.410  38.593  66.947  0.00  0.00    +0.000 A 
ATOM     20  C   UNL     1      60.468  39.591  67.919  0.00  0.00    +0.000 A 
BRANCH  16  24
ATOM     21  F   UNL     1      59.087  37.091  64.618  0.00  0.00    +0.000 F 
ATOM     22  F   UNL     1      60.307  35.799  65.859  0.00  0.00    +0.000 F 
ATOM     23  F   UNL     1      58.138  35.813  66.088  0.00  0.00    +0.000 F 
ATOM     24  C   UNL     1      59.219  36.615  65.890  0.00  0.00    +0.000 C 
ENDBRANCH  16  24
ENDBRANCH   9  15
ENDBRANCH   2  10
BRANCH   3  25
ATOM     25  O   UNL     1      50.938  42.776  71.913  0.00  0.00    +0.000 OA
BRANCH  25  27
ATOM     26  N   UNL     1      47.060  41.267  72.209  0.00  0.00    +0.000 NA
ATOM     27  C   UNL     1      49.690  42.207  72.025  0.00  0.00    +0.000 A 
ATOM     28  C   UNL     1      49.365  41.255  72.986  0.00  0.00    +0.000 A 
ATOM     29  C   UNL     1      48.052  40.817  73.027  0.00  0.00    +0.000 A 
ATOM     30  C   UNL     1      48.706  42.714  71.181  0.00  0.00    +0.000 A 
ATOM     31  C   UNL     1      47.421  42.211  71.309  0.00  0.00    +0.000 A 
BRANCH  29  34
ATOM     32  O   UNL     1      48.523  39.104  74.578  0.00  0.00    +0.000 OA
ATOM     33  N   UNL     1      46.294  39.690  74.184  0.00  0.00    +0.000 N 
ATOM     34  C   UNL     1      47.665  39.777  74.015  0.00  0.00    +0.000 C 
ATOM     35  C   UNL     1      45.488  38.840  75.018  0.00  0.00    +0.000 C 
ATOM     36  H   UNL     1      45.758  40.343  73.613  0.00  0.00    +0.000 HD
ENDBRANCH  29  34
ENDBRANCH  25  27
ENDBRANCH   3  25
TORSDOF 6
ENDMDL
MODEL 6
REMARK VINA RESULT:      -6.9      8.199     10.929
REMARK  Name = 11167602_Regorafenib.pdbqt.pdb
REMARK  6 active torsions:
REMARK  status: ('A' for Active; 'I' for Inactive)
REMARK    1  A    between atoms: C_2  and  N_10
REMARK    2  A    between atoms: C_3  and  O_25
REMARK    3  A    between atoms: N_9  and  C_15
REMARK    4  A    between atoms: C_16  and  C_24
REMARK    5  A    between atoms: O_25  and  C_27
REMARK    6  A    between atoms: C_29  and  C_34
REMARK                            x       y       z     vdW  Elec       q    Type
REMARK                         _______ _______ _______ _____ _____    ______ ____
ROOT
ATOM      1  F   UNL     1      53.037  36.539  65.215  0.00  0.00    +0.000 F 
ATOM      2  C   UNL     1      54.411  35.254  63.779  0.00  0.00    +0.000 A 
ATOM      3  C   UNL     1      52.357  35.292  61.883  0.00  0.00    +0.000 A 
ATOM      4  C   UNL     1      53.206  35.912  64.040  0.00  0.00    +0.000 A 
ATOM      5  C   UNL     1      54.565  34.596  62.560  0.00  0.00    +0.000 A 
ATOM      6  C   UNL     1      52.171  35.927  63.110  0.00  0.00    +0.000 A 
ATOM      7  C   UNL     1      53.538  34.601  61.617  0.00  0.00    +0.000 A 
ENDROOT
BRANCH   2  10
ATOM      8  O   UNL     1      56.048  37.505  64.608  0.00  0.00    +0.000 OA
ATOM      9  N   UNL     1      57.048  36.096  66.145  0.00  0.00    +0.000 N 
ATOM     10  N   UNL     1      55.420  35.288  64.764  0.00  0.00    +0.000 N 
ATOM     11  C   UNL     1      56.161  36.401  65.124  0.00  0.00    +0.000 C 
ATOM     12  H   UNL     1      57.035  35.158  66.517  0.00  0.00    +0.000 HD
ATOM     13  H   UNL     1      55.611  34.409  65.225  0.00  0.00    +0.000 HD
BRANCH   9  15
ATOM     14 CL   UNL     1      60.955  39.853  68.528  0.00  0.00    +0.000 Cl
ATOM     15  C   UNL     1      57.954  36.997  66.736  0.00  0.00    +0.000 A 
ATOM     16  C   UNL     1      60.170  38.014  66.660  0.00  0.00    +0.000 A 
ATOM     17  C   UNL     1      59.207  37.141  66.140  0.00  0.00    +0.000 A 
ATOM     18  C   UNL     1      57.656  37.741  67.873  0.00  0.00    +0.000 A 
ATOM     19  C   UNL     1      59.850  38.750  67.803  0.00  0.00    +0.000 A 
ATOM     20  C   UNL     1      58.600  38.613  68.405  0.00  0.00    +0.000 A 
BRANCH  16  24
ATOM     21  F   UNL     1      61.983  36.913  65.571  0.00  0.00    +0.000 F 
ATOM     22  F   UNL     1      61.446  38.883  64.846  0.00  0.00    +0.000 F 
ATOM     23  F   UNL     1      62.463  38.658  66.763  0.00  0.00    +0.000 F 
ATOM     24  C   UNL     1      61.494  38.121  65.972  0.00  0.00    +0.000 C 
ENDBRANCH  16  24
ENDBRANCH   9  15
ENDBRANCH   2  10
BRANCH   3  25
ATOM     25  O   UNL     1      51.353  35.202  60.948  0.00  0.00    +0.000 OA
BRANCH  25  27
ATOM     26  N   UNL     1      52.122  36.047  56.935  0.00  0.00    +0.000 NA
ATOM     27  C   UNL     1      51.676  35.443  59.631  0.00  0.00    +0.000 A 
ATOM     28  C   UNL     1      52.279  34.499  58.806  0.00  0.00    +0.000 A 
ATOM     29  C   UNL     1      52.486  34.853  57.484  0.00  0.00    +0.000 A 
ATOM     30  C   UNL     1      51.266  36.667  59.113  0.00  0.00    +0.000 A 
ATOM     31  C   UNL     1      51.516  36.920  57.773  0.00  0.00    +0.000 A 
BRANCH  29  34
ATOM     32  O   UNL     1      53.743  32.912  57.023  0.00  0.00    +0.000 OA
ATOM     33  N   UNL     1      53.031  34.247  55.240  0.00  0.00    +0.000 N 
ATOM     34  C   UNL     1      53.157  33.891  56.571  0.00  0.00    +0.000 C 
ATOM     35  C   UNL     1      53.515  33.625  54.037  0.00  0.00    +0.000 C 
ATOM     36  H   UNL     1      52.505  35.105  55.082  0.00  0.00    +0.000 HD
ENDBRANCH  29  34
ENDBRANCH  25  27
ENDBRANCH   3  25
TORSDOF 6
ENDMDL
MODEL 7
REMARK VINA RESULT:      -6.6      8.264     10.023
REMARK  Name = 11167602_Regorafenib.pdbqt.pdb
REMARK  6 active torsions:
REMARK  status: ('A' for Active; 'I' for Inactive)
REMARK    1  A    between atoms: C_2  and  N_10
REMARK    2  A    between atoms: C_3  and  O_25
REMARK    3  A    between atoms: N_9  and  C_15
REMARK    4  A    between atoms: C_16  and  C_24
REMARK    5  A    between atoms: O_25  and  C_27
REMARK    6  A    between atoms: C_29  and  C_34
REMARK                            x       y       z     vdW  Elec       q    Type
REMARK                         _______ _______ _______ _____ _____    ______ ____
ROOT
ATOM      1  F   UNL     1      57.047  33.457  63.765  0.00  0.00    +0.000 F 
ATOM      2  C   UNL     1      56.309  35.705  63.698  0.00  0.00    +0.000 A 
ATOM      3  C   UNL     1      53.729  34.776  63.156  0.00  0.00    +0.000 A 
ATOM      4  C   UNL     1      56.046  34.335  63.595  0.00  0.00    +0.000 A 
ATOM      5  C   UNL     1      55.262  36.605  63.504  0.00  0.00    +0.000 A 
ATOM      6  C   UNL     1      54.770  33.862  63.312  0.00  0.00    +0.000 A 
ATOM      7  C   UNL     1      53.976  36.145  63.220  0.00  0.00    +0.000 A 
ENDROOT
BRANCH   2  10
ATOM      8  O   UNL     1      57.487  36.241  66.298  0.00  0.00    +0.000 OA
ATOM      9  N   UNL     1      59.470  36.704  65.204  0.00  0.00    +0.000 N 
ATOM     10  N   UNL     1      57.626  36.114  63.996  0.00  0.00    +0.000 N 
ATOM     11  C   UNL     1      58.133  36.342  65.264  0.00  0.00    +0.000 C 
ATOM     12  H   UNL     1      59.912  36.728  64.297  0.00  0.00    +0.000 HD
ATOM     13  H   UNL     1      58.229  36.259  63.199  0.00  0.00    +0.000 HD
BRANCH   9  15
ATOM     14 CL   UNL     1      62.832  38.146  69.860  0.00  0.00    +0.000 Cl
ATOM     15  C   UNL     1      60.282  37.016  66.310  0.00  0.00    +0.000 A 
ATOM     16  C   UNL     1      60.965  38.700  67.937  0.00  0.00    +0.000 A 
ATOM     17  C   UNL     1      60.195  38.304  66.838  0.00  0.00    +0.000 A 
ATOM     18  C   UNL     1      61.157  36.104  66.894  0.00  0.00    +0.000 A 
ATOM     19  C   UNL     1      61.837  37.770  68.507  0.00  0.00    +0.000 A 
ATOM     20  C   UNL     1      61.932  36.480  67.986  0.00  0.00    +0.000 A 
BRANCH  16  24
ATOM     21  F   UNL     1      60.417  40.143  69.756  0.00  0.00    +0.000 F 
ATOM     22  F   UNL     1      61.986  40.801  68.413  0.00  0.00    +0.000 F 
ATOM     23  F   UNL     1      59.903  40.827  67.765  0.00  0.00    +0.000 F 
ATOM     24  C   UNL     1      60.822  40.097  68.453  0.00  0.00    +0.000 C 
ENDBRANCH  16  24
ENDBRANCH   9  15
ENDBRANCH   2  10
BRANCH   3  25
ATOM     25  O   UNL     1      52.459  34.383  62.801  0.00  0.00    +0.000 OA
BRANCH  25  27
ATOM     26  N   UNL     1      50.643  35.849  59.343  0.00  0.00    +0.000 NA
ATOM     27  C   UNL     1      51.931  34.891  61.635  0.00  0.00    +0.000 A 
ATOM     28  C   UNL     1      52.548  34.761  60.395  0.00  0.00    +0.000 A 
ATOM     29  C   UNL     1      51.872  35.261  59.295  0.00  0.00    +0.000 A 
ATOM     30  C   UNL     1      50.667  35.464  61.732  0.00  0.00    +0.000 A 
ATOM     31  C   UNL     1      50.075  35.928  60.568  0.00  0.00    +0.000 A 
BRANCH  29  34
ATOM     32  O   UNL     1      52.539  36.157  57.218  0.00  0.00    +0.000 OA
ATOM     33  N   UNL     1      53.005  33.913  57.683  0.00  0.00    +0.000 N 
ATOM     34  C   UNL     1      52.504  35.175  57.953  0.00  0.00    +0.000 C 
ATOM     35  C   UNL     1      53.681  33.383  56.530  0.00  0.00    +0.000 C 
ATOM     36  H   UNL     1      52.867  33.237  58.433  0.00  0.00    +0.000 HD
ENDBRANCH  29  34
ENDBRANCH  25  27
ENDBRANCH   3  25
TORSDOF 6
ENDMDL
MODEL 8
REMARK VINA RESULT:      -6.6     15.917     16.956
REMARK  Name = 11167602_Regorafenib.pdbqt.pdb
REMARK  6 active torsions:
REMARK  status: ('A' for Active; 'I' for Inactive)
REMARK    1  A    between atoms: C_2  and  N_10
REMARK    2  A    between atoms: C_3  and  O_25
REMARK    3  A    between atoms: N_9  and  C_15
REMARK    4  A    between atoms: C_16  and  C_24
REMARK    5  A    between atoms: O_25  and  C_27
REMARK    6  A    between atoms: C_29  and  C_34
REMARK                            x       y       z     vdW  Elec       q    Type
REMARK                         _______ _______ _______ _____ _____    ______ ____
ROOT
ATOM      1  F   UNL     1      55.138  53.257  59.473  0.00  0.00    +0.000 F 
ATOM      2  C   UNL     1      56.667  51.883  58.300  0.00  0.00    +0.000 A 
ATOM      3  C   UNL     1      54.642  49.977  58.020  0.00  0.00    +0.000 A 
ATOM      4  C   UNL     1      55.393  52.108  58.829  0.00  0.00    +0.000 A 
ATOM      5  C   UNL     1      56.919  50.678  57.646  0.00  0.00    +0.000 A 
ATOM      6  C   UNL     1      54.381  51.161  58.708  0.00  0.00    +0.000 A 
ATOM      7  C   UNL     1      55.915  49.720  57.516  0.00  0.00    +0.000 A 
ENDROOT
BRANCH   2  10
ATOM      8  O   UNL     1      59.345  51.653  59.402  0.00  0.00    +0.000 OA
ATOM      9  N   UNL     1      59.625  53.904  58.956  0.00  0.00    +0.000 N 
ATOM     10  N   UNL     1      57.642  52.891  58.453  0.00  0.00    +0.000 N 
ATOM     11  C   UNL     1      58.912  52.715  58.976  0.00  0.00    +0.000 C 
ATOM     12  H   UNL     1      59.178  54.715  58.554  0.00  0.00    +0.000 HD
ATOM     13  H   UNL     1      57.363  53.817  58.160  0.00  0.00    +0.000 HD
BRANCH   9  15
ATOM     14 CL   UNL     1      65.110  54.681  61.046  0.00  0.00    +0.000 Cl
ATOM     15  C   UNL     1      60.941  54.075  59.424  0.00  0.00    +0.000 A 
ATOM     16  C   UNL     1      62.386  54.872  61.220  0.00  0.00    +0.000 A 
ATOM     17  C   UNL     1      61.113  54.664  60.677  0.00  0.00    +0.000 A 
ATOM     18  C   UNL     1      62.063  53.685  58.701  0.00  0.00    +0.000 A 
ATOM     19  C   UNL     1      63.499  54.474  60.477  0.00  0.00    +0.000 A 
ATOM     20  C   UNL     1      63.337  53.884  59.224  0.00  0.00    +0.000 A 
BRANCH  16  24
ATOM     21  F   UNL     1      63.133  54.714  63.480  0.00  0.00    +0.000 F 
ATOM     22  F   UNL     1      63.207  56.671  62.551  0.00  0.00    +0.000 F 
ATOM     23  F   UNL     1      61.292  55.799  63.125  0.00  0.00    +0.000 F 
ATOM     24  C   UNL     1      62.500  55.509  62.570  0.00  0.00    +0.000 C 
ENDBRANCH  16  24
ENDBRANCH   9  15
ENDBRANCH   2  10
BRANCH   3  25
ATOM     25  O   UNL     1      53.713  48.967  57.927  0.00  0.00    +0.000 OA
BRANCH  25  27
ATOM     26  N   UNL     1      50.166  49.995  55.986  0.00  0.00    +0.000 NA
ATOM     27  C   UNL     1      52.504  49.257  57.336  0.00  0.00    +0.000 A 
ATOM     28  C   UNL     1      51.330  49.458  58.054  0.00  0.00    +0.000 A 
ATOM     29  C   UNL     1      50.200  49.811  57.336  0.00  0.00    +0.000 A 
ATOM     30  C   UNL     1      52.526  49.456  55.959  0.00  0.00    +0.000 A 
ATOM     31  C   UNL     1      51.340  49.814  55.337  0.00  0.00    +0.000 A 
BRANCH  29  34
ATOM     32  O   UNL     1      48.886  50.587  59.133  0.00  0.00    +0.000 OA
ATOM     33  N   UNL     1      47.839  49.458  57.374  0.00  0.00    +0.000 N 
ATOM     34  C   UNL     1      48.914  50.003  58.055  0.00  0.00    +0.000 C 
ATOM     35  C   UNL     1      46.437  49.406  57.690  0.00  0.00    +0.000 C 
ATOM     36  H   UNL     1      48.084  49.011  56.491  0.00  0.00    +0.000 HD
ENDBRANCH  29  34
ENDBRANCH  25  27
ENDBRANCH   3  25
TORSDOF 6
ENDMDL
MODEL 9
REMARK VINA RESULT:      -6.6      6.628     11.218
REMARK  Name = 11167602_Regorafenib.pdbqt.pdb
REMARK  6 active torsions:
REMARK  status: ('A' for Active; 'I' for Inactive)
REMARK    1  A    between atoms: C_2  and  N_10
REMARK    2  A    between atoms: C_3  and  O_25
REMARK    3  A    between atoms: N_9  and  C_15
REMARK    4  A    between atoms: C_16  and  C_24
REMARK    5  A    between atoms: O_25  and  C_27
REMARK    6  A    between atoms: C_29  and  C_34
REMARK                            x       y       z     vdW  Elec       q    Type
REMARK                         _______ _______ _______ _____ _____    ______ ____
ROOT
ATOM      1  F   UNL     1      56.716  33.684  65.501  0.00  0.00    +0.000 F 
ATOM      2  C   UNL     1      56.948  35.512  64.017  0.00  0.00    +0.000 A 
ATOM      3  C   UNL     1      59.168  36.350  65.494  0.00  0.00    +0.000 A 
ATOM      4  C   UNL     1      57.377  34.794  65.136  0.00  0.00    +0.000 A 
ATOM      5  C   UNL     1      57.636  36.671  63.659  0.00  0.00    +0.000 A 
ATOM      6  C   UNL     1      58.472  35.208  65.888  0.00  0.00    +0.000 A 
ATOM      7  C   UNL     1      58.736  37.099  64.402  0.00  0.00    +0.000 A 
ENDROOT
BRANCH   2  10
ATOM      8  O   UNL     1      54.290  36.664  63.814  0.00  0.00    +0.000 OA
ATOM      9  N   UNL     1      53.735  34.912  62.412  0.00  0.00    +0.000 N 
ATOM     10  N   UNL     1      55.836  35.029  63.296  0.00  0.00    +0.000 N 
ATOM     11  C   UNL     1      54.591  35.633  63.229  0.00  0.00    +0.000 C 
ATOM     12  H   UNL     1      54.100  34.089  61.955  0.00  0.00    +0.000 HD
ATOM     13  H   UNL     1      55.978  34.157  62.805  0.00  0.00    +0.000 HD
BRANCH   9  15
ATOM     14 CL   UNL     1      48.075  36.324  61.397  0.00  0.00    +0.000 Cl
ATOM     15  C   UNL     1      52.395  35.244  62.137  0.00  0.00    +0.000 A 
ATOM     16  C   UNL     1      50.208  35.838  63.040  0.00  0.00    +0.000 A 
ATOM     17  C   UNL     1      51.554  35.499  63.221  0.00  0.00    +0.000 A 
ATOM     18  C   UNL     1      51.881  35.330  60.848  0.00  0.00    +0.000 A 
ATOM     19  C   UNL     1      49.712  35.917  61.738  0.00  0.00    +0.000 A 
ATOM     20  C   UNL     1      50.545  35.664  60.648  0.00  0.00    +0.000 A 
BRANCH  16  24
ATOM     21  F   UNL     1      50.055  35.987  65.416  0.00  0.00    +0.000 F 
ATOM     22  F   UNL     1      48.832  37.353  64.261  0.00  0.00    +0.000 F 
ATOM     23  F   UNL     1      48.317  35.236  64.361  0.00  0.00    +0.000 F 
ATOM     24  C   UNL     1      49.362  36.100  64.246  0.00  0.00    +0.000 C 
ENDBRANCH  16  24
ENDBRANCH   9  15
ENDBRANCH   2  10
BRANCH   3  25
ATOM     25  O   UNL     1      60.212  36.859  66.231  0.00  0.00    +0.000 OA
BRANCH  25  27
ATOM     26  N   UNL     1      59.749  40.324  68.509  0.00  0.00    +0.000 NA
ATOM     27  C   UNL     1      59.980  37.996  66.973  0.00  0.00    +0.000 A 
ATOM     28  C   UNL     1      58.944  38.112  67.893  0.00  0.00    +0.000 A 
ATOM     29  C   UNL     1      58.869  39.288  68.619  0.00  0.00    +0.000 A 
ATOM     30  C   UNL     1      60.917  39.016  66.841  0.00  0.00    +0.000 A 
ATOM     31  C   UNL     1      60.754  40.151  67.619  0.00  0.00    +0.000 A 
BRANCH  29  34
ATOM     32  O   UNL     1      57.972  39.980  70.687  0.00  0.00    +0.000 OA
ATOM     33  N   UNL     1      56.548  39.014  69.104  0.00  0.00    +0.000 N 
ATOM     34  C   UNL     1      57.760  39.473  69.590  0.00  0.00    +0.000 C 
ATOM     35  C   UNL     1      55.235  38.987  69.689  0.00  0.00    +0.000 C 
ATOM     36  H   UNL     1      56.594  38.622  68.165  0.00  0.00    +0.000 HD
ENDBRANCH  29  34
ENDBRANCH  25  27
ENDBRANCH   3  25
TORSDOF 6
ENDMDL
