MODEL 1
REMARK VINA RESULT:      -5.4      0.000      0.000
REMARK  Name = 114778_Kahweol.pdbqt.pdb
REMARK  3 active torsions:
REMARK  status: ('A' for Active; 'I' for Inactive)
REMARK    1  A    between atoms: C_8  and  O_21
REMARK    2  A    between atoms: C_8  and  C_23
REMARK    3  A    between atoms: C_23  and  O_24
REMARK                            x       y       z     vdW  Elec       q    Type
REMARK                         _______ _______ _______ _____ _____    ______ ____
ROOT
ATOM      1  O   UNL     1      60.521  32.214  66.932  0.00  0.00    +0.000 OA
ATOM      2  C   UNL     1      61.170  38.417  67.497  0.00  0.00    +0.000 C 
ATOM      3  C   UNL     1      59.837  37.552  67.433  0.00  0.00    +0.000 C 
ATOM      4  C   UNL     1      60.102  40.321  68.478  0.00  0.00    +0.000 C 
ATOM      5  C   UNL     1      60.771  39.831  67.261  0.00  0.00    +0.000 C 
ATOM      6  C   UNL     1      61.548  38.588  68.917  0.00  0.00    +0.000 C 
ATOM      7  C   UNL     1      59.677  36.375  66.464  0.00  0.00    +0.000 C 
ATOM      8  C   UNL     1      61.071  39.797  69.618  0.00  0.00    +0.000 C 
ATOM      9  C   UNL     1      62.167  37.815  66.650  0.00  0.00    +0.000 C 
ATOM     10  C   UNL     1      58.703  38.269  67.994  0.00  0.00    +0.000 C 
ATOM     11  C   UNL     1      58.778  39.717  68.493  0.00  0.00    +0.000 C 
ATOM     12  C   UNL     1      61.058  35.671  65.974  0.00  0.00    +0.000 C 
ATOM     13  C   UNL     1      62.192  36.512  65.916  0.00  0.00    +0.000 C 
ATOM     14  C   UNL     1      58.955  36.872  65.170  0.00  0.00    +0.000 C 
ATOM     15  C   UNL     1      58.902  35.294  67.133  0.00  0.00    +0.000 C 
ATOM     16  C   UNL     1      61.189  34.245  66.170  0.00  0.00    +0.000 A 
ATOM     17  C   UNL     1      59.041  34.116  67.305  0.00  0.00    +0.000 C 
ATOM     18  C   UNL     1      60.211  33.512  66.809  0.00  0.00    +0.000 A 
ATOM     19  C   UNL     1      62.203  33.313  65.870  0.00  0.00    +0.000 A 
ATOM     20  C   UNL     1      61.753  32.087  66.340  0.00  0.00    +0.000 A 
ENDROOT
BRANCH   8  21
ATOM     21  O   UNL     1      62.153  40.695  69.793  0.00  0.00    +0.000 OA
ATOM     22  H   UNL     1      61.982  41.157  70.631  0.00  0.00    +0.000 HD
ENDBRANCH   8  21
BRANCH   8  23
ATOM     23  C   UNL     1      60.411  39.561  70.908  0.00  0.00    +0.000 C 
BRANCH  23  24
ATOM     24  O   UNL     1      59.814  39.363  72.084  0.00  0.00    +0.000 OA
ATOM     25  H   UNL     1      59.657  38.415  72.240  0.00  0.00    +0.000 HD
ENDBRANCH  23  24
ENDBRANCH   8  23
TORSDOF 3
ENDMDL
MODEL 2
REMARK VINA RESULT:      -5.2     35.919     39.479
REMARK  Name = 114778_Kahweol.pdbqt.pdb
REMARK  3 active torsions:
REMARK  status: ('A' for Active; 'I' for Inactive)
REMARK    1  A    between atoms: C_8  and  O_21
REMARK    2  A    between atoms: C_8  and  C_23
REMARK    3  A    between atoms: C_23  and  O_24
REMARK                            x       y       z     vdW  Elec       q    Type
REMARK                         _______ _______ _______ _____ _____    ______ ____
ROOT
ATOM      1  O   UNL     1      55.977  72.883  91.223  0.00  0.00    +0.000 OA
ATOM      2  C   UNL     1      58.661  70.210  86.237  0.00  0.00    +0.000 C 
ATOM      3  C   UNL     1      57.767  69.541  87.370  0.00  0.00    +0.000 C 
ATOM      4  C   UNL     1      58.331  68.426  84.674  0.00  0.00    +0.000 C 
ATOM      5  C   UNL     1      59.336  69.095  85.517  0.00  0.00    +0.000 C 
ATOM      6  C   UNL     1      57.777  70.612  85.122  0.00  0.00    +0.000 C 
ATOM      7  C   UNL     1      57.921  69.911  88.850  0.00  0.00    +0.000 C 
ATOM      8  C   UNL     1      57.587  69.659  84.010  0.00  0.00    +0.000 C 
ATOM      9  C   UNL     1      59.458  71.259  86.817  0.00  0.00    +0.000 C 
ATOM     10  C   UNL     1      57.193  68.280  86.930  0.00  0.00    +0.000 C 
ATOM     11  C   UNL     1      57.499  67.638  85.571  0.00  0.00    +0.000 C 
ATOM     12  C   UNL     1      58.547  71.381  89.149  0.00  0.00    +0.000 C 
ATOM     13  C   UNL     1      59.445  71.879  88.178  0.00  0.00    +0.000 C 
ATOM     14  C   UNL     1      58.875  68.880  89.537  0.00  0.00    +0.000 C 
ATOM     15  C   UNL     1      56.579  69.917  89.494  0.00  0.00    +0.000 C 
ATOM     16  C   UNL     1      57.788  72.271  89.998  0.00  0.00    +0.000 A 
ATOM     17  C   UNL     1      55.957  70.681  90.178  0.00  0.00    +0.000 C 
ATOM     18  C   UNL     1      56.547  71.920  90.486  0.00  0.00    +0.000 A 
ATOM     19  C   UNL     1      58.009  73.578  90.477  0.00  0.00    +0.000 A 
ATOM     20  C   UNL     1      56.889  73.910  91.227  0.00  0.00    +0.000 A 
ENDROOT
BRANCH   8  21
ATOM     21  O   UNL     1      58.306  70.112  82.876  0.00  0.00    +0.000 OA
ATOM     22  H   UNL     1      59.029  69.474  82.748  0.00  0.00    +0.000 HD
ENDBRANCH   8  21
BRANCH   8  23
ATOM     23  C   UNL     1      56.193  69.391  83.636  0.00  0.00    +0.000 C 
BRANCH  23  24
ATOM     24  O   UNL     1      54.928  69.160  83.283  0.00  0.00    +0.000 OA
ATOM     25  H   UNL     1      54.512  68.515  83.883  0.00  0.00    +0.000 HD
ENDBRANCH  23  24
ENDBRANCH   8  23
TORSDOF 3
ENDMDL
MODEL 3
REMARK VINA RESULT:      -5.1     34.694     37.832
REMARK  Name = 114778_Kahweol.pdbqt.pdb
REMARK  3 active torsions:
REMARK  status: ('A' for Active; 'I' for Inactive)
REMARK    1  A    between atoms: C_8  and  O_21
REMARK    2  A    between atoms: C_8  and  C_23
REMARK    3  A    between atoms: C_23  and  O_24
REMARK                            x       y       z     vdW  Elec       q    Type
REMARK                         _______ _______ _______ _____ _____    ______ ____
ROOT
ATOM      1  O   UNL     1      55.227  69.080  81.763  0.00  0.00    +0.000 OA
ATOM      2  C   UNL     1      57.429  69.079  87.626  0.00  0.00    +0.000 C 
ATOM      3  C   UNL     1      57.987  69.844  86.347  0.00  0.00    +0.000 C 
ATOM      4  C   UNL     1      58.567  70.489  89.189  0.00  0.00    +0.000 C 
ATOM      5  C   UNL     1      58.508  69.121  88.649  0.00  0.00    +0.000 C 
ATOM      6  C   UNL     1      56.494  69.978  88.337  0.00  0.00    +0.000 C 
ATOM      7  C   UNL     1      58.050  69.181  84.967  0.00  0.00    +0.000 C 
ATOM      8  C   UNL     1      57.034  70.814  89.428  0.00  0.00    +0.000 C 
ATOM      9  C   UNL     1      56.890  67.807  87.220  0.00  0.00    +0.000 C 
ATOM     10  C   UNL     1      58.828  70.970  86.719  0.00  0.00    +0.000 C 
ATOM     11  C   UNL     1      59.202  71.309  88.167  0.00  0.00    +0.000 C 
ATOM     12  C   UNL     1      57.004  67.961  84.721  0.00  0.00    +0.000 C 
ATOM     13  C   UNL     1      56.640  67.219  85.867  0.00  0.00    +0.000 C 
ATOM     14  C   UNL     1      59.479  68.584  84.752  0.00  0.00    +0.000 C 
ATOM     15  C   UNL     1      57.726  70.192  83.924  0.00  0.00    +0.000 C 
ATOM     16  C   UNL     1      56.129  68.051  83.574  0.00  0.00    +0.000 A 
ATOM     17  C   UNL     1      56.975  70.255  82.991  0.00  0.00    +0.000 C 
ATOM     18  C   UNL     1      56.128  69.158  82.752  0.00  0.00    +0.000 A 
ATOM     19  C   UNL     1      55.132  67.206  83.046  0.00  0.00    +0.000 A 
ATOM     20  C   UNL     1      54.615  67.864  81.938  0.00  0.00    +0.000 A 
ENDROOT
BRANCH   8  21
ATOM     21  O   UNL     1      56.611  70.290  90.674  0.00  0.00    +0.000 OA
ATOM     22  H   UNL     1      56.811  70.975  91.333  0.00  0.00    +0.000 HD
ENDBRANCH   8  21
BRANCH   8  23
ATOM     23  C   UNL     1      56.703  72.243  89.354  0.00  0.00    +0.000 C 
BRANCH  23  24
ATOM     24  O   UNL     1      56.416  73.544  89.298  0.00  0.00    +0.000 OA
ATOM     25  H   UNL     1      56.734  73.935  88.465  0.00  0.00    +0.000 HD
ENDBRANCH  23  24
ENDBRANCH   8  23
TORSDOF 3
ENDMDL
MODEL 4
REMARK VINA RESULT:      -5.1     26.401     30.261
REMARK  Name = 114778_Kahweol.pdbqt.pdb
REMARK  3 active torsions:
REMARK  status: ('A' for Active; 'I' for Inactive)
REMARK    1  A    between atoms: C_8  and  O_21
REMARK    2  A    between atoms: C_8  and  C_23
REMARK    3  A    between atoms: C_23  and  O_24
REMARK                            x       y       z     vdW  Elec       q    Type
REMARK                         _______ _______ _______ _____ _____    ______ ____
ROOT
ATOM      1  O   UNL     1      52.763  64.377  86.651  0.00  0.00    +0.000 OA
ATOM      2  C   UNL     1      55.135  60.939  81.985  0.00  0.00    +0.000 C 
ATOM      3  C   UNL     1      54.712  60.483  83.449  0.00  0.00    +0.000 C 
ATOM      4  C   UNL     1      55.065  58.724  81.080  0.00  0.00    +0.000 C 
ATOM      5  C   UNL     1      55.964  59.839  81.421  0.00  0.00    +0.000 C 
ATOM      6  C   UNL     1      53.977  60.749  81.084  0.00  0.00    +0.000 C 
ATOM      7  C   UNL     1      55.024  61.332  84.687  0.00  0.00    +0.000 C 
ATOM      8  C   UNL     1      53.876  59.473  80.348  0.00  0.00    +0.000 C 
ATOM      9  C   UNL     1      55.675  62.272  82.041  0.00  0.00    +0.000 C 
ATOM     10  C   UNL     1      54.470  59.051  83.518  0.00  0.00    +0.000 C 
ATOM     11  C   UNL     1      54.692  58.095  82.339  0.00  0.00    +0.000 C 
ATOM     12  C   UNL     1      55.226  62.922  84.419  0.00  0.00    +0.000 C 
ATOM     13  C   UNL     1      55.733  63.275  83.148  0.00  0.00    +0.000 C 
ATOM     14  C   UNL     1      56.354  60.824  85.333  0.00  0.00    +0.000 C 
ATOM     15  C   UNL     1      53.888  61.235  85.644  0.00  0.00    +0.000 C 
ATOM     16  C   UNL     1      54.409  63.838  85.183  0.00  0.00    +0.000 A 
ATOM     17  C   UNL     1      53.207  62.013  86.251  0.00  0.00    +0.000 C 
ATOM     18  C   UNL     1      53.445  63.386  86.060  0.00  0.00    +0.000 A 
ATOM     19  C   UNL     1      54.315  65.243  85.233  0.00  0.00    +0.000 A 
ATOM     20  C   UNL     1      53.309  65.531  86.146  0.00  0.00    +0.000 A 
ENDROOT
BRANCH   8  21
ATOM     21  O   UNL     1      54.199  59.691  78.986  0.00  0.00    +0.000 OA
ATOM     22  H   UNL     1      55.141  59.929  78.971  0.00  0.00    +0.000 HD
ENDBRANCH   8  21
BRANCH   8  23
ATOM     23  C   UNL     1      52.581  58.787  80.445  0.00  0.00    +0.000 C 
BRANCH  23  24
ATOM     24  O   UNL     1      51.399  58.177  80.545  0.00  0.00    +0.000 OA
ATOM     25  H   UNL     1      51.168  57.728  79.712  0.00  0.00    +0.000 HD
ENDBRANCH  23  24
ENDBRANCH   8  23
TORSDOF 3
ENDMDL
MODEL 5
REMARK VINA RESULT:      -5.1     10.023     12.392
REMARK  Name = 114778_Kahweol.pdbqt.pdb
REMARK  3 active torsions:
REMARK  status: ('A' for Active; 'I' for Inactive)
REMARK    1  A    between atoms: C_8  and  O_21
REMARK    2  A    between atoms: C_8  and  C_23
REMARK    3  A    between atoms: C_23  and  O_24
REMARK                            x       y       z     vdW  Elec       q    Type
REMARK                         _______ _______ _______ _____ _____    ______ ____
ROOT
ATOM      1  O   UNL     1      53.652  32.081  54.888  0.00  0.00    +0.000 OA
ATOM      2  C   UNL     1      52.161  34.959  60.246  0.00  0.00    +0.000 C 
ATOM      3  C   UNL     1      51.997  33.426  59.854  0.00  0.00    +0.000 C 
ATOM      4  C   UNL     1      52.023  34.558  62.602  0.00  0.00    +0.000 C 
ATOM      5  C   UNL     1      51.330  35.178  61.461  0.00  0.00    +0.000 C 
ATOM      6  C   UNL     1      53.471  35.133  60.911  0.00  0.00    +0.000 C 
ATOM      7  C   UNL     1      51.508  32.990  58.469  0.00  0.00    +0.000 C 
ATOM      8  C   UNL     1      53.516  35.047  62.385  0.00  0.00    +0.000 C 
ATOM      9  C   UNL     1      51.936  35.774  59.081  0.00  0.00    +0.000 C 
ATOM     10  C   UNL     1      51.887  32.579  61.031  0.00  0.00    +0.000 C 
ATOM     11  C   UNL     1      51.839  33.121  62.465  0.00  0.00    +0.000 C 
ATOM     12  C   UNL     1      51.752  34.056  57.265  0.00  0.00    +0.000 C 
ATOM     13  C   UNL     1      51.756  35.419  57.639  0.00  0.00    +0.000 C 
ATOM     14  C   UNL     1      49.966  32.740  58.526  0.00  0.00    +0.000 C 
ATOM     15  C   UNL     1      52.239  31.760  58.058  0.00  0.00    +0.000 C 
ATOM     16  C   UNL     1      52.469  33.594  56.099  0.00  0.00    +0.000 A 
ATOM     17  C   UNL     1      52.850  31.406  57.089  0.00  0.00    +0.000 C 
ATOM     18  C   UNL     1      52.989  32.319  56.028  0.00  0.00    +0.000 A 
ATOM     19  C   UNL     1      52.848  34.207  54.887  0.00  0.00    +0.000 A 
ATOM     20  C   UNL     1      53.557  33.250  54.174  0.00  0.00    +0.000 A 
ENDROOT
BRANCH   8  21
ATOM     21  O   UNL     1      53.688  36.346  62.925  0.00  0.00    +0.000 OA
ATOM     22  H   UNL     1      54.555  36.652  62.609  0.00  0.00    +0.000 HD
ENDBRANCH   8  21
BRANCH   8  23
ATOM     23  C   UNL     1      54.533  34.143  62.936  0.00  0.00    +0.000 C 
BRANCH  23  24
ATOM     24  O   UNL     1      55.466  33.324  63.421  0.00  0.00    +0.000 OA
ATOM     25  H   UNL     1      55.711  33.576  64.330  0.00  0.00    +0.000 HD
ENDBRANCH  23  24
ENDBRANCH   8  23
TORSDOF 3
ENDMDL
MODEL 6
REMARK VINA RESULT:      -4.9     26.100     29.027
REMARK  Name = 114778_Kahweol.pdbqt.pdb
REMARK  3 active torsions:
REMARK  status: ('A' for Active; 'I' for Inactive)
REMARK    1  A    between atoms: C_8  and  O_21
REMARK    2  A    between atoms: C_8  and  C_23
REMARK    3  A    between atoms: C_23  and  O_24
REMARK                            x       y       z     vdW  Elec       q    Type
REMARK                         _______ _______ _______ _____ _____    ______ ____
ROOT
ATOM      1  O   UNL     1      60.655  66.925  70.780  0.00  0.00    +0.000 OA
ATOM      2  C   UNL     1      57.200  65.475  65.762  0.00  0.00    +0.000 C 
ATOM      3  C   UNL     1      58.519  64.771  66.307  0.00  0.00    +0.000 C 
ATOM      4  C   UNL     1      56.523  63.594  64.446  0.00  0.00    +0.000 C 
ATOM      5  C   UNL     1      57.001  64.985  64.372  0.00  0.00    +0.000 C 
ATOM      6  C   UNL     1      56.029  64.787  66.348  0.00  0.00    +0.000 C 
ATOM      7  C   UNL     1      59.709  65.576  66.839  0.00  0.00    +0.000 C 
ATOM      8  C   UNL     1      55.416  63.687  65.576  0.00  0.00    +0.000 C 
ATOM      9  C   UNL     1      57.284  66.892  66.006  0.00  0.00    +0.000 C 
ATOM     10  C   UNL     1      58.648  63.411  65.808  0.00  0.00    +0.000 C 
ATOM     11  C   UNL     1      57.676  62.780  64.803  0.00  0.00    +0.000 C 
ATOM     12  C   UNL     1      59.364  67.065  67.393  0.00  0.00    +0.000 C 
ATOM     13  C   UNL     1      58.264  67.710  66.784  0.00  0.00    +0.000 C 
ATOM     14  C   UNL     1      60.752  65.767  65.690  0.00  0.00    +0.000 C 
ATOM     15  C   UNL     1      60.308  64.856  67.997  0.00  0.00    +0.000 C 
ATOM     16  C   UNL     1      59.775  67.390  68.740  0.00  0.00    +0.000 A 
ATOM     17  C   UNL     1      60.619  65.141  69.119  0.00  0.00    +0.000 C 
ATOM     18  C   UNL     1      60.378  66.456  69.555  0.00  0.00    +0.000 A 
ATOM     19  C   UNL     1      59.665  68.549  69.535  0.00  0.00    +0.000 A 
ATOM     20  C   UNL     1      60.222  68.228  70.765  0.00  0.00    +0.000 A 
ENDROOT
BRANCH   8  21
ATOM     21  O   UNL     1      54.188  64.130  65.023  0.00  0.00    +0.000 OA
ATOM     22  H   UNL     1      54.409  64.895  64.466  0.00  0.00    +0.000 HD
ENDBRANCH   8  21
BRANCH   8  23
ATOM     23  C   UNL     1      55.203  62.437  66.316  0.00  0.00    +0.000 C 
BRANCH  23  24
ATOM     24  O   UNL     1      55.027  61.302  66.994  0.00  0.00    +0.000 OA
ATOM     25  H   UNL     1      55.880  60.868  67.172  0.00  0.00    +0.000 HD
ENDBRANCH  23  24
ENDBRANCH   8  23
TORSDOF 3
ENDMDL
MODEL 7
REMARK VINA RESULT:      -4.8     39.519     41.466
REMARK  Name = 114778_Kahweol.pdbqt.pdb
REMARK  3 active torsions:
REMARK  status: ('A' for Active; 'I' for Inactive)
REMARK    1  A    between atoms: C_8  and  O_21
REMARK    2  A    between atoms: C_8  and  C_23
REMARK    3  A    between atoms: C_23  and  O_24
REMARK                            x       y       z     vdW  Elec       q    Type
REMARK                         _______ _______ _______ _____ _____    ______ ____
ROOT
ATOM      1  O   UNL     1      61.919  77.820  81.093  0.00  0.00    +0.000 OA
ATOM      2  C   UNL     1      58.396  76.475  76.092  0.00  0.00    +0.000 C 
ATOM      3  C   UNL     1      58.045  76.316  77.636  0.00  0.00    +0.000 C 
ATOM      4  C   UNL     1      56.111  76.422  75.382  0.00  0.00    +0.000 C 
ATOM      5  C   UNL     1      57.384  75.683  75.343  0.00  0.00    +0.000 C 
ATOM      6  C   UNL     1      57.929  77.805  75.642  0.00  0.00    +0.000 C 
ATOM      7  C   UNL     1      59.064  75.786  78.651  0.00  0.00    +0.000 C 
ATOM      8  C   UNL     1      56.579  77.900  75.051  0.00  0.00    +0.000 C 
ATOM      9  C   UNL     1      59.795  76.201  75.893  0.00  0.00    +0.000 C 
ATOM     10  C   UNL     1      56.609  76.256  77.858  0.00  0.00    +0.000 C 
ATOM     11  C   UNL     1      55.575  76.251  76.725  0.00  0.00    +0.000 C 
ATOM     12  C   UNL     1      60.627  75.977  78.247  0.00  0.00    +0.000 C 
ATOM     13  C   UNL     1      60.912  75.976  76.863  0.00  0.00    +0.000 C 
ATOM     14  C   UNL     1      58.845  74.250  78.841  0.00  0.00    +0.000 C 
ATOM     15  C   UNL     1      58.899  76.518  79.937  0.00  0.00    +0.000 C 
ATOM     16  C   UNL     1      61.483  76.660  79.190  0.00  0.00    +0.000 A 
ATOM     17  C   UNL     1      59.623  77.101  80.694  0.00  0.00    +0.000 C 
ATOM     18  C   UNL     1      60.987  77.192  80.361  0.00  0.00    +0.000 A 
ATOM     19  C   UNL     1      62.854  76.990  79.194  0.00  0.00    +0.000 A 
ATOM     20  C   UNL     1      63.081  77.686  80.374  0.00  0.00    +0.000 A 
ENDROOT
BRANCH   8  21
ATOM     21  O   UNL     1      56.692  78.075  73.650  0.00  0.00    +0.000 OA
ATOM     22  H   UNL     1      56.177  78.871  73.438  0.00  0.00    +0.000 HD
ENDBRANCH   8  21
BRANCH   8  23
ATOM     23  C   UNL     1      55.715  78.946  75.612  0.00  0.00    +0.000 C 
BRANCH  23  24
ATOM     24  O   UNL     1      54.919  79.883  76.128  0.00  0.00    +0.000 OA
ATOM     25  H   UNL     1      54.766  79.725  77.076  0.00  0.00    +0.000 HD
ENDBRANCH  23  24
ENDBRANCH   8  23
TORSDOF 3
ENDMDL
MODEL 8
REMARK VINA RESULT:      -4.8     40.229     43.782
REMARK  Name = 114778_Kahweol.pdbqt.pdb
REMARK  3 active torsions:
REMARK  status: ('A' for Active; 'I' for Inactive)
REMARK    1  A    between atoms: C_8  and  O_21
REMARK    2  A    between atoms: C_8  and  C_23
REMARK    3  A    between atoms: C_23  and  O_24
REMARK                            x       y       z     vdW  Elec       q    Type
REMARK                         _______ _______ _______ _____ _____    ______ ____
ROOT
ATOM      1  O   UNL     1      60.383  82.525  82.517  0.00  0.00    +0.000 OA
ATOM      2  C   UNL     1      61.282  77.567  78.798  0.00  0.00    +0.000 C 
ATOM      3  C   UNL     1      60.365  77.695  80.092  0.00  0.00    +0.000 C 
ATOM      4  C   UNL     1      60.145  75.634  77.962  0.00  0.00    +0.000 C 
ATOM      5  C   UNL     1      61.421  76.112  78.519  0.00  0.00    +0.000 C 
ATOM      6  C   UNL     1      60.459  77.884  77.610  0.00  0.00    +0.000 C 
ATOM      7  C   UNL     1      60.830  78.442  81.347  0.00  0.00    +0.000 C 
ATOM      8  C   UNL     1      59.804  76.764  76.905  0.00  0.00    +0.000 C 
ATOM      9  C   UNL     1      62.465  78.368  78.975  0.00  0.00    +0.000 C 
ATOM     10  C   UNL     1      59.331  76.673  80.122  0.00  0.00    +0.000 C 
ATOM     11  C   UNL     1      59.212  75.556  79.077  0.00  0.00    +0.000 C 
ATOM     12  C   UNL     1      61.967  79.579  81.112  0.00  0.00    +0.000 C 
ATOM     13  C   UNL     1      62.848  79.356  80.030  0.00  0.00    +0.000 C 
ATOM     14  C   UNL     1      61.439  77.415  82.356  0.00  0.00    +0.000 C 
ATOM     15  C   UNL     1      59.672  79.162  81.944  0.00  0.00    +0.000 C 
ATOM     16  C   UNL     1      61.687  80.914  81.591  0.00  0.00    +0.000 A 
ATOM     17  C   UNL     1      59.453  80.281  82.314  0.00  0.00    +0.000 C 
ATOM     18  C   UNL     1      60.476  81.235  82.168  0.00  0.00    +0.000 A 
ATOM     19  C   UNL     1      62.414  82.121  81.580  0.00  0.00    +0.000 A 
ATOM     20  C   UNL     1      61.590  83.075  82.162  0.00  0.00    +0.000 A 
ENDROOT
BRANCH   8  21
ATOM     21  O   UNL     1      60.483  76.516  75.687  0.00  0.00    +0.000 OA
ATOM     22  H   UNL     1      61.386  76.257  75.934  0.00  0.00    +0.000 HD
ENDBRANCH   8  21
BRANCH   8  23
ATOM     23  C   UNL     1      58.368  76.934  76.646  0.00  0.00    +0.000 C 
BRANCH  23  24
ATOM     24  O   UNL     1      57.065  77.073  76.399  0.00  0.00    +0.000 OA
ATOM     25  H   UNL     1      56.533  76.600  77.064  0.00  0.00    +0.000 HD
ENDBRANCH  23  24
ENDBRANCH   8  23
TORSDOF 3
ENDMDL
MODEL 9
REMARK VINA RESULT:      -4.8     13.141     14.756
REMARK  Name = 114778_Kahweol.pdbqt.pdb
REMARK  3 active torsions:
REMARK  status: ('A' for Active; 'I' for Inactive)
REMARK    1  A    between atoms: C_8  and  O_21
REMARK    2  A    between atoms: C_8  and  C_23
REMARK    3  A    between atoms: C_23  and  O_24
REMARK                            x       y       z     vdW  Elec       q    Type
REMARK                         _______ _______ _______ _____ _____    ______ ____
ROOT
ATOM      1  O   UNL     1      72.288  39.505  59.879  0.00  0.00    +0.000 OA
ATOM      2  C   UNL     1      73.042  45.083  62.624  0.00  0.00    +0.000 C 
ATOM      3  C   UNL     1      71.818  44.072  62.732  0.00  0.00    +0.000 C 
ATOM      4  C   UNL     1      72.471  46.270  64.623  0.00  0.00    +0.000 C 
ATOM      5  C   UNL     1      72.563  46.387  63.158  0.00  0.00    +0.000 C 
ATOM      6  C   UNL     1      73.986  44.792  63.725  0.00  0.00    +0.000 C 
ATOM      7  C   UNL     1      71.276  43.321  61.511  0.00  0.00    +0.000 C 
ATOM      8  C   UNL     1      73.839  45.554  64.982  0.00  0.00    +0.000 C 
ATOM      9  C   UNL     1      73.590  45.025  61.294  0.00  0.00    +0.000 C 
ATOM     10  C   UNL     1      71.023  44.315  63.924  0.00  0.00    +0.000 C 
ATOM     11  C   UNL     1      71.286  45.470  64.899  0.00  0.00    +0.000 C 
ATOM     12  C   UNL     1      72.325  43.110  60.287  0.00  0.00    +0.000 C 
ATOM     13  C   UNL     1      73.316  44.107  60.145  0.00  0.00    +0.000 C 
ATOM     14  C   UNL     1      70.065  44.114  60.919  0.00  0.00    +0.000 C 
ATOM     15  C   UNL     1      70.872  41.948  61.923  0.00  0.00    +0.000 C 
ATOM     16  C   UNL     1      72.544  41.760  59.819  0.00  0.00    +0.000 A 
ATOM     17  C   UNL     1      71.086  40.835  61.531  0.00  0.00    +0.000 C 
ATOM     18  C   UNL     1      71.940  40.679  60.425  0.00  0.00    +0.000 A 
ATOM     19  C   UNL     1      73.345  41.205  58.801  0.00  0.00    +0.000 A 
ATOM     20  C   UNL     1      73.152  39.831  58.863  0.00  0.00    +0.000 A 
ENDROOT
BRANCH   8  21
ATOM     21  O   UNL     1      74.881  46.509  65.076  0.00  0.00    +0.000 OA
ATOM     22  H   UNL     1      74.975  46.706  66.023  0.00  0.00    +0.000 HD
ENDBRANCH   8  21
BRANCH   8  23
ATOM     23  C   UNL     1      73.794  44.747  66.208  0.00  0.00    +0.000 C 
BRANCH  23  24
ATOM     24  O   UNL     1      73.739  44.005  67.315  0.00  0.00    +0.000 OA
ATOM     25  H   UNL     1      72.876  44.103  67.756  0.00  0.00    +0.000 HD
ENDBRANCH  23  24
ENDBRANCH   8  23
TORSDOF 3
ENDMDL
