MODEL 1
REMARK VINA RESULT:      -4.0      0.000      0.000
REMARK  Name = 1174_Uracil.pdbqt.pdb
REMARK  0 active torsions:
REMARK  status: ('A' for Active; 'I' for Inactive)
REMARK                            x       y       z     vdW  Elec       q    Type
REMARK                         _______ _______ _______ _____ _____    ______ ____
ROOT
ATOM      1  O   UNL     1      62.647  36.379  56.941  0.00  0.00    +0.000 OA
ATOM      2  O   UNL     1      61.099  39.055  53.489  0.00  0.00    +0.000 OA
ATOM      3  N   UNL     1      61.926  37.688  55.178  0.00  0.00    +0.000 N 
ATOM      4  N   UNL     1      60.822  37.764  57.244  0.00  0.00    +0.000 N 
ATOM      5  C   UNL     1      61.864  37.207  56.494  0.00  0.00    +0.000 A 
ATOM      6  C   UNL     1      61.054  38.629  54.633  0.00  0.00    +0.000 A 
ATOM      7  C   UNL     1      59.990  38.669  56.703  0.00  0.00    +0.000 A 
ATOM      8  C   UNL     1      60.062  39.064  55.581  0.00  0.00    +0.000 A 
ATOM      9  H   UNL     1      62.654  37.327  54.584  0.00  0.00    +0.000 HD
ATOM     10  H   UNL     1      60.710  37.467  58.205  0.00  0.00    +0.000 HD
ENDROOT
TORSDOF 0
ENDMDL
MODEL 2
REMARK VINA RESULT:      -3.6      2.292      2.911
REMARK  Name = 1174_Uracil.pdbqt.pdb
REMARK  0 active torsions:
REMARK  status: ('A' for Active; 'I' for Inactive)
REMARK                            x       y       z     vdW  Elec       q    Type
REMARK                         _______ _______ _______ _____ _____    ______ ____
ROOT
ATOM      1  O   UNL     1      61.611  41.251  55.921  0.00  0.00    +0.000 OA
ATOM      2  O   UNL     1      62.800  37.515  53.450  0.00  0.00    +0.000 OA
ATOM      3  N   UNL     1      62.193  39.425  54.630  0.00  0.00    +0.000 N 
ATOM      4  N   UNL     1      62.224  39.285  56.969  0.00  0.00    +0.000 N 
ATOM      5  C   UNL     1      61.978  40.086  55.849  0.00  0.00    +0.000 A 
ATOM      6  C   UNL     1      62.611  38.101  54.506  0.00  0.00    +0.000 A 
ATOM      7  C   UNL     1      62.626  38.011  56.832  0.00  0.00    +0.000 A 
ATOM      8  C   UNL     1      62.803  37.469  55.785  0.00  0.00    +0.000 A 
ATOM      9  H   UNL     1      62.033  39.946  53.784  0.00  0.00    +0.000 HD
ATOM     10  H   UNL     1      62.092  39.690  57.888  0.00  0.00    +0.000 HD
ENDROOT
TORSDOF 0
ENDMDL
MODEL 3
REMARK VINA RESULT:      -3.5     30.375     31.360
REMARK  Name = 1174_Uracil.pdbqt.pdb
REMARK  0 active torsions:
REMARK  status: ('A' for Active; 'I' for Inactive)
REMARK                            x       y       z     vdW  Elec       q    Type
REMARK                         _______ _______ _______ _____ _____    ______ ____
ROOT
ATOM      1  O   UNL     1      49.486  50.863  84.490  0.00  0.00    +0.000 OA
ATOM      2  O   UNL     1      51.728  47.124  82.917  0.00  0.00    +0.000 OA
ATOM      3  N   UNL     1      50.635  48.991  83.768  0.00  0.00    +0.000 N 
ATOM      4  N   UNL     1      49.177  50.122  82.323  0.00  0.00    +0.000 N 
ATOM      5  C   UNL     1      49.743  50.061  83.601  0.00  0.00    +0.000 A 
ATOM      6  C   UNL     1      50.953  48.058  82.783  0.00  0.00    +0.000 A 
ATOM      7  C   UNL     1      49.494  49.215  81.384  0.00  0.00    +0.000 A 
ATOM      8  C   UNL     1      50.256  48.313  81.549  0.00  0.00    +0.000 A 
ATOM      9  H   UNL     1      51.077  48.891  84.667  0.00  0.00    +0.000 HD
ATOM     10  H   UNL     1      48.522  50.867  82.122  0.00  0.00    +0.000 HD
ENDROOT
TORSDOF 0
ENDMDL
MODEL 4
REMARK VINA RESULT:      -3.3      1.794      2.838
REMARK  Name = 1174_Uracil.pdbqt.pdb
REMARK  0 active torsions:
REMARK  status: ('A' for Active; 'I' for Inactive)
REMARK                            x       y       z     vdW  Elec       q    Type
REMARK                         _______ _______ _______ _____ _____    ______ ____
ROOT
ATOM      1  O   UNL     1      64.034  37.270  53.701  0.00  0.00    +0.000 OA
ATOM      2  O   UNL     1      61.129  37.225  57.311  0.00  0.00    +0.000 OA
ATOM      3  N   UNL     1      62.627  37.201  55.532  0.00  0.00    +0.000 N 
ATOM      4  N   UNL     1      62.149  38.605  53.718  0.00  0.00    +0.000 N 
ATOM      5  C   UNL     1      63.022  37.660  54.268  0.00  0.00    +0.000 A 
ATOM      6  C   UNL     1      61.483  37.620  56.210  0.00  0.00    +0.000 A 
ATOM      7  C   UNL     1      61.050  38.999  54.384  0.00  0.00    +0.000 A 
ATOM      8  C   UNL     1      60.734  38.594  55.460  0.00  0.00    +0.000 A 
ATOM      9  H   UNL     1      63.213  36.518  55.983  0.00  0.00    +0.000 HD
ATOM     10  H   UNL     1      62.365  38.986  52.806  0.00  0.00    +0.000 HD
ENDROOT
TORSDOF 0
ENDMDL
MODEL 5
REMARK VINA RESULT:      -3.2     10.243     10.500
REMARK  Name = 1174_Uracil.pdbqt.pdb
REMARK  0 active torsions:
REMARK  status: ('A' for Active; 'I' for Inactive)
REMARK                            x       y       z     vdW  Elec       q    Type
REMARK                         _______ _______ _______ _____ _____    ______ ____
ROOT
ATOM      1  O   UNL     1      51.945  33.230  57.273  0.00  0.00    +0.000 OA
ATOM      2  O   UNL     1      51.127  37.784  57.022  0.00  0.00    +0.000 OA
ATOM      3  N   UNL     1      51.550  35.499  57.079  0.00  0.00    +0.000 N 
ATOM      4  N   UNL     1      51.354  34.432  59.156  0.00  0.00    +0.000 N 
ATOM      5  C   UNL     1      51.642  34.296  57.794  0.00  0.00    +0.000 A 
ATOM      6  C   UNL     1      51.209  36.731  57.635  0.00  0.00    +0.000 A 
ATOM      7  C   UNL     1      51.027  35.626  59.676  0.00  0.00    +0.000 A 
ATOM      8  C   UNL     1      50.955  36.637  59.049  0.00  0.00    +0.000 A 
ATOM      9  H   UNL     1      51.745  35.469  56.092  0.00  0.00    +0.000 HD
ATOM     10  H   UNL     1      51.399  33.607  59.742  0.00  0.00    +0.000 HD
ENDROOT
TORSDOF 0
ENDMDL
MODEL 6
REMARK VINA RESULT:      -3.2     21.198     22.243
REMARK  Name = 1174_Uracil.pdbqt.pdb
REMARK  0 active torsions:
REMARK  status: ('A' for Active; 'I' for Inactive)
REMARK                            x       y       z     vdW  Elec       q    Type
REMARK                         _______ _______ _______ _____ _____    ______ ____
ROOT
ATOM      1  O   UNL     1      46.224  44.596  69.735  0.00  0.00    +0.000 OA
ATOM      2  O   UNL     1      47.025  44.264  74.287  0.00  0.00    +0.000 OA
ATOM      3  N   UNL     1      46.573  44.479  72.017  0.00  0.00    +0.000 N 
ATOM      4  N   UNL     1      47.820  43.140  70.552  0.00  0.00    +0.000 N 
ATOM      5  C   UNL     1      46.823  44.111  70.686  0.00  0.00    +0.000 A 
ATOM      6  C   UNL     1      47.233  43.951  73.125  0.00  0.00    +0.000 A 
ATOM      7  C   UNL     1      48.447  42.641  71.631  0.00  0.00    +0.000 A 
ATOM      8  C   UNL     1      48.218  42.968  72.754  0.00  0.00    +0.000 A 
ATOM      9  H   UNL     1      45.865  45.175  72.182  0.00  0.00    +0.000 HD
ATOM     10  H   UNL     1      48.059  42.821  69.622  0.00  0.00    +0.000 HD
ENDROOT
TORSDOF 0
ENDMDL
MODEL 7
REMARK VINA RESULT:      -3.2     13.093     14.041
REMARK  Name = 1174_Uracil.pdbqt.pdb
REMARK  0 active torsions:
REMARK  status: ('A' for Active; 'I' for Inactive)
REMARK                            x       y       z     vdW  Elec       q    Type
REMARK                         _______ _______ _______ _____ _____    ______ ____
ROOT
ATOM      1  O   UNL     1      60.632  39.730  72.071  0.00  0.00    +0.000 OA
ATOM      2  O   UNL     1      62.716  40.479  68.001  0.00  0.00    +0.000 OA
ATOM      3  N   UNL     1      61.732  40.114  70.075  0.00  0.00    +0.000 N 
ATOM      4  N   UNL     1      59.443  39.610  70.093  0.00  0.00    +0.000 N 
ATOM      5  C   UNL     1      60.603  39.811  70.850  0.00  0.00    +0.000 A 
ATOM      6  C   UNL     1      61.740  40.215  68.685  0.00  0.00    +0.000 A 
ATOM      7  C   UNL     1      59.468  39.711  68.754  0.00  0.00    +0.000 A 
ATOM      8  C   UNL     1      60.440  39.970  68.115  0.00  0.00    +0.000 A 
ATOM      9  H   UNL     1      62.600  40.271  70.560  0.00  0.00    +0.000 HD
ATOM     10  H   UNL     1      58.584  39.386  70.580  0.00  0.00    +0.000 HD
ENDROOT
TORSDOF 0
ENDMDL
MODEL 8
REMARK VINA RESULT:      -3.1     17.873     18.787
REMARK  Name = 1174_Uracil.pdbqt.pdb
REMARK  0 active torsions:
REMARK  status: ('A' for Active; 'I' for Inactive)
REMARK                            x       y       z     vdW  Elec       q    Type
REMARK                         _______ _______ _______ _____ _____    ______ ____
ROOT
ATOM      1  O   UNL     1      44.712  48.978  58.611  0.00  0.00    +0.000 OA
ATOM      2  O   UNL     1      46.599  45.199  56.706  0.00  0.00    +0.000 OA
ATOM      3  N   UNL     1      45.704  47.095  57.709  0.00  0.00    +0.000 N 
ATOM      4  N   UNL     1      43.745  47.973  56.770  0.00  0.00    +0.000 N 
ATOM      5  C   UNL     1      44.718  48.091  57.767  0.00  0.00    +0.000 A 
ATOM      6  C   UNL     1      45.745  46.071  56.766  0.00  0.00    +0.000 A 
ATOM      7  C   UNL     1      43.799  46.979  55.868  0.00  0.00    +0.000 A 
ATOM      8  C   UNL     1      44.647  46.142  55.837  0.00  0.00    +0.000 A 
ATOM      9  H   UNL     1      46.435  47.124  58.401  0.00  0.00    +0.000 HD
ATOM     10  H   UNL     1      42.997  48.655  56.744  0.00  0.00    +0.000 HD
ENDROOT
TORSDOF 0
ENDMDL
MODEL 9
REMARK VINA RESULT:      -3.0     17.145     17.695
REMARK  Name = 1174_Uracil.pdbqt.pdb
REMARK  0 active torsions:
REMARK  status: ('A' for Active; 'I' for Inactive)
REMARK                            x       y       z     vdW  Elec       q    Type
REMARK                         _______ _______ _______ _____ _____    ______ ____
ROOT
ATOM      1  O   UNL     1      61.753  53.012  59.264  0.00  0.00    +0.000 OA
ATOM      2  O   UNL     1      59.331  55.902  61.959  0.00  0.00    +0.000 OA
ATOM      3  N   UNL     1      60.486  54.429  60.580  0.00  0.00    +0.000 N 
ATOM      4  N   UNL     1      62.823  54.420  60.751  0.00  0.00    +0.000 N 
ATOM      5  C   UNL     1      61.694  53.880  60.125  0.00  0.00    +0.000 A 
ATOM      6  C   UNL     1      60.378  55.416  61.557  0.00  0.00    +0.000 A 
ATOM      7  C   UNL     1      62.702  55.372  61.691  0.00  0.00    +0.000 A 
ATOM      8  C   UNL     1      61.663  55.824  62.062  0.00  0.00    +0.000 A 
ATOM      9  H   UNL     1      59.634  54.082  60.169  0.00  0.00    +0.000 HD
ATOM     10  H   UNL     1      63.735  54.076  60.478  0.00  0.00    +0.000 HD
ENDROOT
TORSDOF 0
ENDMDL
