MODEL 1
REMARK VINA RESULT:      -5.0      0.000      0.000
REMARK  Name = 122180587_TripolinolateA.pdbqt.pdb
REMARK  9 active torsions:
REMARK  status: ('A' for Active; 'I' for Inactive)
REMARK    1  A    between atoms: C_1  and  O_16
REMARK    2  A    between atoms: C_2  and  O_7
REMARK    3  A    between atoms: C_3  and  C_9
REMARK    4  A    between atoms: C_10  and  C_11
REMARK    5  A    between atoms: C_11  and  O_12
REMARK    6  A    between atoms: O_12  and  C_14
REMARK    7  A    between atoms: O_16  and  C_18
REMARK    8  A    between atoms: C_18  and  C_19
REMARK    9  A    between atoms: C_19  and  C_21
REMARK                            x       y       z     vdW  Elec       q    Type
REMARK                         _______ _______ _______ _____ _____    ______ ____
ROOT
ATOM      1  C   UNL     1      52.174  58.087  81.914  0.00  0.00    +0.000 A 
ATOM      2  C   UNL     1      51.114  57.553  81.174  0.00  0.00    +0.000 A 
ATOM      3  C   UNL     1      51.359  55.486  82.420  0.00  0.00    +0.000 A 
ATOM      4  C   UNL     1      52.846  57.329  82.875  0.00  0.00    +0.000 A 
ATOM      5  C   UNL     1      50.711  56.243  81.444  0.00  0.00    +0.000 A 
ATOM      6  C   UNL     1      52.428  56.027  83.133  0.00  0.00    +0.000 A 
ENDROOT
BRANCH   2   7
ATOM      7  O   UNL     1      50.552  58.354  80.213  0.00  0.00    +0.000 OA
ATOM      8  C   UNL     1      50.558  57.837  78.911  0.00  0.00    +0.000 C 
ENDBRANCH   2   7
BRANCH   3   9
ATOM      9  C   UNL     1      50.931  54.152  82.685  0.00  0.00    +0.000 C 
ATOM     10  C   UNL     1      50.568  53.029  82.908  0.00  0.00    +0.000 C 
BRANCH  10  11
ATOM     11  C   UNL     1      50.103  51.598  83.196  0.00  0.00    +0.000 C 
BRANCH  11  12
ATOM     12  O   UNL     1      49.698  50.355  83.443  0.00  0.00    +0.000 OA
BRANCH  12  14
ATOM     13  O   UNL     1      51.288  48.725  82.909  0.00  0.00    +0.000 OA
ATOM     14  C   UNL     1      50.297  49.401  82.703  0.00  0.00    +0.000 C 
ATOM     15  C   UNL     1      49.628  49.123  81.399  0.00  0.00    +0.000 C 
ENDBRANCH  12  14
ENDBRANCH  11  12
ENDBRANCH  10  11
ENDBRANCH   3   9
BRANCH   1  16
ATOM     16  O   UNL     1      52.639  59.379  81.635  0.00  0.00    +0.000 OA
BRANCH  16  18
ATOM     17  O   UNL     1      53.877  58.959  79.712  0.00  0.00    +0.000 OA
ATOM     18  C   UNL     1      53.786  59.396  80.852  0.00  0.00    +0.000 C 
BRANCH  18  19
ATOM     19  C   UNL     1      54.917  60.008  81.594  0.00  0.00    +0.000 C 
ATOM     20  C   UNL     1      55.178  61.507  81.637  0.00  0.00    +0.000 C 
BRANCH  19  21
ATOM     21  C   UNL     1      55.807  59.166  82.311  0.00  0.00    +0.000 C 
ATOM     22  C   UNL     1      56.778  58.251  83.082  0.00  0.00    +0.000 C 
ENDBRANCH  19  21
ENDBRANCH  18  19
ENDBRANCH  16  18
ENDBRANCH   1  16
TORSDOF 9
ENDMDL
MODEL 2
REMARK VINA RESULT:      -4.7     24.567     26.649
REMARK  Name = 122180587_TripolinolateA.pdbqt.pdb
REMARK  9 active torsions:
REMARK  status: ('A' for Active; 'I' for Inactive)
REMARK    1  A    between atoms: C_1  and  O_16
REMARK    2  A    between atoms: C_2  and  O_7
REMARK    3  A    between atoms: C_3  and  C_9
REMARK    4  A    between atoms: C_10  and  C_11
REMARK    5  A    between atoms: C_11  and  O_12
REMARK    6  A    between atoms: O_12  and  C_14
REMARK    7  A    between atoms: O_16  and  C_18
REMARK    8  A    between atoms: C_18  and  C_19
REMARK    9  A    between atoms: C_19  and  C_21
REMARK                            x       y       z     vdW  Elec       q    Type
REMARK                         _______ _______ _______ _____ _____    ______ ____
ROOT
ATOM      1  C   UNL     1      61.215  51.565  59.233  0.00  0.00    +0.000 A 
ATOM      2  C   UNL     1      62.111  52.636  59.303  0.00  0.00    +0.000 A 
ATOM      3  C   UNL     1      63.935  51.037  59.292  0.00  0.00    +0.000 A 
ATOM      4  C   UNL     1      61.660  50.241  59.224  0.00  0.00    +0.000 A 
ATOM      5  C   UNL     1      63.480  52.354  59.327  0.00  0.00    +0.000 A 
ATOM      6  C   UNL     1      63.026  49.980  59.244  0.00  0.00    +0.000 A 
ENDROOT
BRANCH   2   7
ATOM      7  O   UNL     1      61.579  53.899  59.363  0.00  0.00    +0.000 OA
ATOM      8  C   UNL     1      61.781  54.586  60.566  0.00  0.00    +0.000 C 
ENDBRANCH   2   7
BRANCH   3   9
ATOM      9  C   UNL     1      65.335  50.769  59.312  0.00  0.00    +0.000 C 
ATOM     10  C   UNL     1      66.515  50.542  59.328  0.00  0.00    +0.000 C 
BRANCH  10  11
ATOM     11  C   UNL     1      68.018  50.248  59.350  0.00  0.00    +0.000 C 
BRANCH  11  12
ATOM     12  O   UNL     1      69.324  49.993  59.370  0.00  0.00    +0.000 OA
BRANCH  12  14
ATOM     13  O   UNL     1      70.594  48.605  60.759  0.00  0.00    +0.000 OA
ATOM     14  C   UNL     1      69.790  49.490  60.531  0.00  0.00    +0.000 C 
ATOM     15  C   UNL     1      69.221  50.130  61.752  0.00  0.00    +0.000 C 
ENDBRANCH  12  14
ENDBRANCH  11  12
ENDBRANCH  10  11
ENDBRANCH   3   9
BRANCH   1  16
ATOM     16  O   UNL     1      59.835  51.807  59.259  0.00  0.00    +0.000 OA
BRANCH  16  18
ATOM     17  O   UNL     1      59.763  52.054  56.948  0.00  0.00    +0.000 OA
ATOM     18  C   UNL     1      59.238  51.735  58.007  0.00  0.00    +0.000 C 
BRANCH  18  19
ATOM     19  C   UNL     1      57.848  51.226  58.119  0.00  0.00    +0.000 C 
ATOM     20  C   UNL     1      56.886  51.649  59.221  0.00  0.00    +0.000 C 
BRANCH  19  21
ATOM     21  C   UNL     1      57.373  50.300  57.152  0.00  0.00    +0.000 C 
ATOM     22  C   UNL     1      56.857  49.291  56.110  0.00  0.00    +0.000 C 
ENDBRANCH  19  21
ENDBRANCH  18  19
ENDBRANCH  16  18
ENDBRANCH   1  16
TORSDOF 9
ENDMDL
MODEL 3
REMARK VINA RESULT:      -4.7     23.020     25.881
REMARK  Name = 122180587_TripolinolateA.pdbqt.pdb
REMARK  9 active torsions:
REMARK  status: ('A' for Active; 'I' for Inactive)
REMARK    1  A    between atoms: C_1  and  O_16
REMARK    2  A    between atoms: C_2  and  O_7
REMARK    3  A    between atoms: C_3  and  C_9
REMARK    4  A    between atoms: C_10  and  C_11
REMARK    5  A    between atoms: C_11  and  O_12
REMARK    6  A    between atoms: O_12  and  C_14
REMARK    7  A    between atoms: O_16  and  C_18
REMARK    8  A    between atoms: C_18  and  C_19
REMARK    9  A    between atoms: C_19  and  C_21
REMARK                            x       y       z     vdW  Elec       q    Type
REMARK                         _______ _______ _______ _____ _____    ______ ____
ROOT
ATOM      1  C   UNL     1      63.126  54.268  60.173  0.00  0.00    +0.000 A 
ATOM      2  C   UNL     1      62.461  55.457  60.490  0.00  0.00    +0.000 A 
ATOM      3  C   UNL     1      64.621  56.525  60.768  0.00  0.00    +0.000 A 
ATOM      4  C   UNL     1      64.520  54.188  60.181  0.00  0.00    +0.000 A 
ATOM      5  C   UNL     1      63.228  56.588  60.783  0.00  0.00    +0.000 A 
ATOM      6  C   UNL     1      65.267  55.326  60.471  0.00  0.00    +0.000 A 
ENDROOT
BRANCH   2   7
ATOM      7  O   UNL     1      61.089  55.425  60.511  0.00  0.00    +0.000 OA
ATOM      8  C   UNL     1      60.498  55.535  61.776  0.00  0.00    +0.000 C 
ENDBRANCH   2   7
BRANCH   3   9
ATOM      9  C   UNL     1      65.387  57.690  61.065  0.00  0.00    +0.000 C 
ATOM     10  C   UNL     1      66.032  58.672  61.316  0.00  0.00    +0.000 C 
BRANCH  10  11
ATOM     11  C   UNL     1      66.853  59.924  61.641  0.00  0.00    +0.000 C 
BRANCH  11  12
ATOM     12  O   UNL     1      67.563  61.014  61.922  0.00  0.00    +0.000 OA
BRANCH  12  14
ATOM     13  O   UNL     1      66.847  62.988  62.949  0.00  0.00    +0.000 OA
ATOM     14  C   UNL     1      67.057  61.790  62.900  0.00  0.00    +0.000 C 
ATOM     15  C   UNL     1      66.687  61.053  64.143  0.00  0.00    +0.000 C 
ENDBRANCH  12  14
ENDBRANCH  11  12
ENDBRANCH  10  11
ENDBRANCH   3   9
BRANCH   1  16
ATOM     16  O   UNL     1      62.390  53.102  59.925  0.00  0.00    +0.000 OA
BRANCH  16  18
ATOM     17  O   UNL     1      62.919  52.884  57.671  0.00  0.00    +0.000 OA
ATOM     18  C   UNL     1      62.813  52.412  58.796  0.00  0.00    +0.000 C 
BRANCH  18  19
ATOM     19  C   UNL     1      63.112  50.997  59.129  0.00  0.00    +0.000 C 
ATOM     20  C   UNL     1      62.037  49.952  59.394  0.00  0.00    +0.000 C 
BRANCH  19  21
ATOM     21  C   UNL     1      64.467  50.578  59.202  0.00  0.00    +0.000 C 
ATOM     22  C   UNL     1      65.939  50.130  59.280  0.00  0.00    +0.000 C 
ENDBRANCH  19  21
ENDBRANCH  18  19
ENDBRANCH  16  18
ENDBRANCH   1  16
TORSDOF 9
ENDMDL
MODEL 4
REMARK VINA RESULT:      -4.7     23.685     26.242
REMARK  Name = 122180587_TripolinolateA.pdbqt.pdb
REMARK  9 active torsions:
REMARK  status: ('A' for Active; 'I' for Inactive)
REMARK    1  A    between atoms: C_1  and  O_16
REMARK    2  A    between atoms: C_2  and  O_7
REMARK    3  A    between atoms: C_3  and  C_9
REMARK    4  A    between atoms: C_10  and  C_11
REMARK    5  A    between atoms: C_11  and  O_12
REMARK    6  A    between atoms: O_12  and  C_14
REMARK    7  A    between atoms: O_16  and  C_18
REMARK    8  A    between atoms: C_18  and  C_19
REMARK    9  A    between atoms: C_19  and  C_21
REMARK                            x       y       z     vdW  Elec       q    Type
REMARK                         _______ _______ _______ _____ _____    ______ ____
ROOT
ATOM      1  C   UNL     1      70.315  53.512  64.179  0.00  0.00    +0.000 A 
ATOM      2  C   UNL     1      70.537  53.684  65.549  0.00  0.00    +0.000 A 
ATOM      3  C   UNL     1      70.102  56.054  65.263  0.00  0.00    +0.000 A 
ATOM      4  C   UNL     1      70.022  54.594  63.346  0.00  0.00    +0.000 A 
ATOM      5  C   UNL     1      70.421  54.971  66.082  0.00  0.00    +0.000 A 
ATOM      6  C   UNL     1      69.906  55.867  63.896  0.00  0.00    +0.000 A 
ENDROOT
BRANCH   2   7
ATOM      7  O   UNL     1      70.875  52.571  66.276  0.00  0.00    +0.000 OA
ATOM      8  C   UNL     1      72.208  52.505  66.700  0.00  0.00    +0.000 C 
ENDBRANCH   2   7
BRANCH   3   9
ATOM      9  C   UNL     1      69.984  57.358  65.826  0.00  0.00    +0.000 C 
ATOM     10  C   UNL     1      69.882  58.457  66.301  0.00  0.00    +0.000 C 
BRANCH  10  11
ATOM     11  C   UNL     1      69.748  59.858  66.907  0.00  0.00    +0.000 C 
BRANCH  11  12
ATOM     12  O   UNL     1      69.634  61.075  67.432  0.00  0.00    +0.000 OA
BRANCH  12  14
ATOM     13  O   UNL     1      71.316  62.497  66.647  0.00  0.00    +0.000 OA
ATOM     14  C   UNL     1      70.776  61.788  67.476  0.00  0.00    +0.000 C 
ATOM     15  C   UNL     1      71.512  61.694  68.771  0.00  0.00    +0.000 C 
ENDBRANCH  12  14
ENDBRANCH  11  12
ENDBRANCH  10  11
ENDBRANCH   3   9
BRANCH   1  16
ATOM     16  O   UNL     1      70.473  52.245  63.600  0.00  0.00    +0.000 OA
BRANCH  16  18
ATOM     17  O   UNL     1      68.424  51.333  64.213  0.00  0.00    +0.000 OA
ATOM     18  C   UNL     1      69.270  51.591  63.367  0.00  0.00    +0.000 C 
BRANCH  18  19
ATOM     19  C   UNL     1      69.144  51.223  61.934  0.00  0.00    +0.000 C 
ATOM     20  C   UNL     1      68.341  52.034  60.927  0.00  0.00    +0.000 C 
BRANCH  19  21
ATOM     21  C   UNL     1      69.806  50.059  61.461  0.00  0.00    +0.000 C 
ATOM     22  C   UNL     1      70.521  48.792  60.954  0.00  0.00    +0.000 C 
ENDBRANCH  19  21
ENDBRANCH  18  19
ENDBRANCH  16  18
ENDBRANCH   1  16
TORSDOF 9
ENDMDL
MODEL 5
REMARK VINA RESULT:      -4.7     24.841     26.386
REMARK  Name = 122180587_TripolinolateA.pdbqt.pdb
REMARK  9 active torsions:
REMARK  status: ('A' for Active; 'I' for Inactive)
REMARK    1  A    between atoms: C_1  and  O_16
REMARK    2  A    between atoms: C_2  and  O_7
REMARK    3  A    between atoms: C_3  and  C_9
REMARK    4  A    between atoms: C_10  and  C_11
REMARK    5  A    between atoms: C_11  and  O_12
REMARK    6  A    between atoms: O_12  and  C_14
REMARK    7  A    between atoms: O_16  and  C_18
REMARK    8  A    between atoms: C_18  and  C_19
REMARK    9  A    between atoms: C_19  and  C_21
REMARK                            x       y       z     vdW  Elec       q    Type
REMARK                         _______ _______ _______ _____ _____    ______ ____
ROOT
ATOM      1  C   UNL     1      62.031  52.896  59.820  0.00  0.00    +0.000 A 
ATOM      2  C   UNL     1      61.589  51.618  59.465  0.00  0.00    +0.000 A 
ATOM      3  C   UNL     1      63.860  51.079  58.803  0.00  0.00    +0.000 A 
ATOM      4  C   UNL     1      63.361  53.283  59.643  0.00  0.00    +0.000 A 
ATOM      5  C   UNL     1      62.524  50.711  58.959  0.00  0.00    +0.000 A 
ATOM      6  C   UNL     1      64.278  52.365  59.141  0.00  0.00    +0.000 A 
ENDROOT
BRANCH   2   7
ATOM      7  O   UNL     1      60.253  51.347  59.622  0.00  0.00    +0.000 OA
ATOM      8  C   UNL     1      59.495  51.327  58.445  0.00  0.00    +0.000 C 
ENDBRANCH   2   7
BRANCH   3   9
ATOM      9  C   UNL     1      64.800  50.138  58.289  0.00  0.00    +0.000 C 
ATOM     10  C   UNL     1      65.591  49.345  57.856  0.00  0.00    +0.000 C 
BRANCH  10  11
ATOM     11  C   UNL     1      66.597  48.329  57.305  0.00  0.00    +0.000 C 
BRANCH  11  12
ATOM     12  O   UNL     1      67.472  47.447  56.828  0.00  0.00    +0.000 OA
BRANCH  12  14
ATOM     13  O   UNL     1      67.766  46.295  54.815  0.00  0.00    +0.000 OA
ATOM     14  C   UNL     1      67.108  46.845  55.679  0.00  0.00    +0.000 C 
ATOM     15  C   UNL     1      65.640  46.854  55.416  0.00  0.00    +0.000 C 
ENDBRANCH  12  14
ENDBRANCH  11  12
ENDBRANCH  10  11
ENDBRANCH   3   9
BRANCH   1  16
ATOM     16  O   UNL     1      61.112  53.849  60.282  0.00  0.00    +0.000 OA
BRANCH  16  18
ATOM     17  O   UNL     1      61.142  55.309  58.472  0.00  0.00    +0.000 OA
ATOM     18  C   UNL     1      61.249  55.089  59.672  0.00  0.00    +0.000 C 
BRANCH  18  19
ATOM     19  C   UNL     1      61.565  56.134  60.677  0.00  0.00    +0.000 C 
ATOM     20  C   UNL     1      61.406  57.626  60.415  0.00  0.00    +0.000 C 
BRANCH  19  21
ATOM     21  C   UNL     1      62.037  55.740  61.957  0.00  0.00    +0.000 C 
ATOM     22  C   UNL     1      62.540  55.311  63.348  0.00  0.00    +0.000 C 
ENDBRANCH  19  21
ENDBRANCH  18  19
ENDBRANCH  16  18
ENDBRANCH   1  16
TORSDOF 9
ENDMDL
MODEL 6
REMARK VINA RESULT:      -4.7      6.180     11.949
REMARK  Name = 122180587_TripolinolateA.pdbqt.pdb
REMARK  9 active torsions:
REMARK  status: ('A' for Active; 'I' for Inactive)
REMARK    1  A    between atoms: C_1  and  O_16
REMARK    2  A    between atoms: C_2  and  O_7
REMARK    3  A    between atoms: C_3  and  C_9
REMARK    4  A    between atoms: C_10  and  C_11
REMARK    5  A    between atoms: C_11  and  O_12
REMARK    6  A    between atoms: O_12  and  C_14
REMARK    7  A    between atoms: O_16  and  C_18
REMARK    8  A    between atoms: C_18  and  C_19
REMARK    9  A    between atoms: C_19  and  C_21
REMARK                            x       y       z     vdW  Elec       q    Type
REMARK                         _______ _______ _______ _____ _____    ______ ____
ROOT
ATOM      1  C   UNL     1      54.960  61.281  83.645  0.00  0.00    +0.000 A 
ATOM      2  C   UNL     1      54.959  61.598  85.007  0.00  0.00    +0.000 A 
ATOM      3  C   UNL     1      55.844  63.785  84.441  0.00  0.00    +0.000 A 
ATOM      4  C   UNL     1      55.425  62.185  82.687  0.00  0.00    +0.000 A 
ATOM      5  C   UNL     1      55.402  62.866  85.393  0.00  0.00    +0.000 A 
ATOM      6  C   UNL     1      55.859  63.444  83.090  0.00  0.00    +0.000 A 
ENDROOT
BRANCH   2   7
ATOM      7  O   UNL     1      54.537  60.626  85.879  0.00  0.00    +0.000 OA
ATOM      8  C   UNL     1      53.700  61.062  86.914  0.00  0.00    +0.000 C 
ENDBRANCH   2   7
BRANCH   3   9
ATOM      9  C   UNL     1      56.288  65.076  84.853  0.00  0.00    +0.000 C 
ATOM     10  C   UNL     1      56.663  66.163  85.200  0.00  0.00    +0.000 C 
BRANCH  10  11
ATOM     11  C   UNL     1      57.146  67.547  85.643  0.00  0.00    +0.000 C 
BRANCH  11  12
ATOM     12  O   UNL     1      57.564  68.751  86.026  0.00  0.00    +0.000 OA
BRANCH  12  14
ATOM     13  O   UNL     1      59.559  68.743  84.806  0.00  0.00    +0.000 OA
ATOM     14  C   UNL     1      58.859  69.018  85.763  0.00  0.00    +0.000 C 
ATOM     15  C   UNL     1      59.561  69.785  86.833  0.00  0.00    +0.000 C 
ENDBRANCH  12  14
ENDBRANCH  11  12
ENDBRANCH  10  11
ENDBRANCH   3   9
BRANCH   1  16
ATOM     16  O   UNL     1      54.572  60.002  83.226  0.00  0.00    +0.000 OA
BRANCH  16  18
ATOM     17  O   UNL     1      56.457  58.805  83.876  0.00  0.00    +0.000 OA
ATOM     18  C   UNL     1      55.642  59.138  83.025  0.00  0.00    +0.000 C 
BRANCH  18  19
ATOM     19  C   UNL     1      55.682  58.674  81.616  0.00  0.00    +0.000 C 
ATOM     20  C   UNL     1      56.741  57.721  81.077  0.00  0.00    +0.000 C 
BRANCH  19  21
ATOM     21  C   UNL     1      54.685  59.126  80.713  0.00  0.00    +0.000 C 
ATOM     22  C   UNL     1      53.606  59.612  79.726  0.00  0.00    +0.000 C 
ENDBRANCH  19  21
ENDBRANCH  18  19
ENDBRANCH  16  18
ENDBRANCH   1  16
TORSDOF 9
ENDMDL
MODEL 7
REMARK VINA RESULT:      -4.7     27.574     32.046
REMARK  Name = 122180587_TripolinolateA.pdbqt.pdb
REMARK  9 active torsions:
REMARK  status: ('A' for Active; 'I' for Inactive)
REMARK    1  A    between atoms: C_1  and  O_16
REMARK    2  A    between atoms: C_2  and  O_7
REMARK    3  A    between atoms: C_3  and  C_9
REMARK    4  A    between atoms: C_10  and  C_11
REMARK    5  A    between atoms: C_11  and  O_12
REMARK    6  A    between atoms: O_12  and  C_14
REMARK    7  A    between atoms: O_16  and  C_18
REMARK    8  A    between atoms: C_18  and  C_19
REMARK    9  A    between atoms: C_19  and  C_21
REMARK                            x       y       z     vdW  Elec       q    Type
REMARK                         _______ _______ _______ _____ _____    ______ ____
ROOT
ATOM      1  C   UNL     1      52.191  33.991  57.218  0.00  0.00    +0.000 A 
ATOM      2  C   UNL     1      52.087  35.321  57.638  0.00  0.00    +0.000 A 
ATOM      3  C   UNL     1      52.974  34.649  59.794  0.00  0.00    +0.000 A 
ATOM      4  C   UNL     1      52.648  32.989  58.076  0.00  0.00    +0.000 A 
ATOM      5  C   UNL     1      52.491  35.638  58.938  0.00  0.00    +0.000 A 
ATOM      6  C   UNL     1      53.050  33.325  59.365  0.00  0.00    +0.000 A 
ENDROOT
BRANCH   2   7
ATOM      7  O   UNL     1      51.574  36.226  56.744  0.00  0.00    +0.000 OA
ATOM      8  C   UNL     1      51.065  37.407  57.299  0.00  0.00    +0.000 C 
ENDBRANCH   2   7
BRANCH   3   9
ATOM      9  C   UNL     1      53.386  34.993  61.115  0.00  0.00    +0.000 C 
ATOM     10  C   UNL     1      53.734  35.281  62.228  0.00  0.00    +0.000 C 
BRANCH  10  11
ATOM     11  C   UNL     1      54.178  35.644  63.648  0.00  0.00    +0.000 C 
BRANCH  11  12
ATOM     12  O   UNL     1      54.562  35.961  64.883  0.00  0.00    +0.000 OA
BRANCH  12  14
ATOM     13  O   UNL     1      56.257  37.197  65.915  0.00  0.00    +0.000 OA
ATOM     14  C   UNL     1      55.660  36.737  64.959  0.00  0.00    +0.000 C 
ATOM     15  C   UNL     1      56.252  37.099  63.638  0.00  0.00    +0.000 C 
ENDBRANCH  12  14
ENDBRANCH  11  12
ENDBRANCH  10  11
ENDBRANCH   3   9
BRANCH   1  16
ATOM     16  O   UNL     1      51.747  33.627  55.940  0.00  0.00    +0.000 OA
BRANCH  16  18
ATOM     17  O   UNL     1      53.036  34.602  54.267  0.00  0.00    +0.000 OA
ATOM     18  C   UNL     1      52.752  33.648  54.980  0.00  0.00    +0.000 C 
BRANCH  18  19
ATOM     19  C   UNL     1      53.441  32.335  54.916  0.00  0.00    +0.000 C 
ATOM     20  C   UNL     1      52.705  31.001  54.897  0.00  0.00    +0.000 C 
BRANCH  19  21
ATOM     21  C   UNL     1      54.859  32.303  54.863  0.00  0.00    +0.000 C 
ATOM     22  C   UNL     1      56.398  32.260  54.802  0.00  0.00    +0.000 C 
ENDBRANCH  19  21
ENDBRANCH  18  19
ENDBRANCH  16  18
ENDBRANCH   1  16
TORSDOF 9
ENDMDL
MODEL 8
REMARK VINA RESULT:      -4.6      1.946      3.208
REMARK  Name = 122180587_TripolinolateA.pdbqt.pdb
REMARK  9 active torsions:
REMARK  status: ('A' for Active; 'I' for Inactive)
REMARK    1  A    between atoms: C_1  and  O_16
REMARK    2  A    between atoms: C_2  and  O_7
REMARK    3  A    between atoms: C_3  and  C_9
REMARK    4  A    between atoms: C_10  and  C_11
REMARK    5  A    between atoms: C_11  and  O_12
REMARK    6  A    between atoms: O_12  and  C_14
REMARK    7  A    between atoms: O_16  and  C_18
REMARK    8  A    between atoms: C_18  and  C_19
REMARK    9  A    between atoms: C_19  and  C_21
REMARK                            x       y       z     vdW  Elec       q    Type
REMARK                         _______ _______ _______ _____ _____    ______ ____
ROOT
ATOM      1  C   UNL     1      53.559  57.812  83.257  0.00  0.00    +0.000 A 
ATOM      2  C   UNL     1      53.773  56.661  84.022  0.00  0.00    +0.000 A 
ATOM      3  C   UNL     1      51.918  55.615  82.860  0.00  0.00    +0.000 A 
ATOM      4  C   UNL     1      52.522  57.887  82.326  0.00  0.00    +0.000 A 
ATOM      5  C   UNL     1      52.940  55.559  83.806  0.00  0.00    +0.000 A 
ATOM      6  C   UNL     1      51.706  56.778  82.122  0.00  0.00    +0.000 A 
ENDROOT
BRANCH   2   7
ATOM      7  O   UNL     1      54.781  56.700  84.951  0.00  0.00    +0.000 OA
ATOM      8  C   UNL     1      55.212  55.458  85.432  0.00  0.00    +0.000 C 
ENDBRANCH   2   7
BRANCH   3   9
ATOM      9  C   UNL     1      51.082  54.479  82.650  0.00  0.00    +0.000 C 
ATOM     10  C   UNL     1      50.376  53.523  82.474  0.00  0.00    +0.000 C 
BRANCH  10  11
ATOM     11  C   UNL     1      49.474  52.305  82.251  0.00  0.00    +0.000 C 
BRANCH  11  12
ATOM     12  O   UNL     1      48.688  51.248  82.057  0.00  0.00    +0.000 OA
BRANCH  12  14
ATOM     13  O   UNL     1      49.382  49.155  81.281  0.00  0.00    +0.000 OA
ATOM     14  C   UNL     1      49.314  50.056  82.097  0.00  0.00    +0.000 C 
ATOM     15  C   UNL     1      50.055  49.790  83.364  0.00  0.00    +0.000 C 
ENDBRANCH  12  14
ENDBRANCH  11  12
ENDBRANCH  10  11
ENDBRANCH   3   9
BRANCH   1  16
ATOM     16  O   UNL     1      54.340  58.954  83.483  0.00  0.00    +0.000 OA
BRANCH  16  18
ATOM     17  O   UNL     1      56.409  58.442  82.552  0.00  0.00    +0.000 OA
ATOM     18  C   UNL     1      55.377  59.101  82.570  0.00  0.00    +0.000 C 
BRANCH  18  19
ATOM     19  C   UNL     1      55.078  60.192  81.609  0.00  0.00    +0.000 C 
ATOM     20  C   UNL     1      55.479  61.643  81.836  0.00  0.00    +0.000 C 
BRANCH  19  21
ATOM     21  C   UNL     1      54.387  59.882  80.408  0.00  0.00    +0.000 C 
ATOM     22  C   UNL     1      53.630  59.547  79.109  0.00  0.00    +0.000 C 
ENDBRANCH  19  21
ENDBRANCH  18  19
ENDBRANCH  16  18
ENDBRANCH   1  16
TORSDOF 9
ENDMDL
MODEL 9
REMARK VINA RESULT:      -4.5     23.000     24.156
REMARK  Name = 122180587_TripolinolateA.pdbqt.pdb
REMARK  9 active torsions:
REMARK  status: ('A' for Active; 'I' for Inactive)
REMARK    1  A    between atoms: C_1  and  O_16
REMARK    2  A    between atoms: C_2  and  O_7
REMARK    3  A    between atoms: C_3  and  C_9
REMARK    4  A    between atoms: C_10  and  C_11
REMARK    5  A    between atoms: C_11  and  O_12
REMARK    6  A    between atoms: O_12  and  C_14
REMARK    7  A    between atoms: O_16  and  C_18
REMARK    8  A    between atoms: C_18  and  C_19
REMARK    9  A    between atoms: C_19  and  C_21
REMARK                            x       y       z     vdW  Elec       q    Type
REMARK                         _______ _______ _______ _____ _____    ______ ____
ROOT
ATOM      1  C   UNL     1      68.276  60.783  64.638  0.00  0.00    +0.000 A 
ATOM      2  C   UNL     1      68.443  59.514  64.075  0.00  0.00    +0.000 A 
ATOM      3  C   UNL     1      69.706  58.869  66.043  0.00  0.00    +0.000 A 
ATOM      4  C   UNL     1      68.839  61.113  65.873  0.00  0.00    +0.000 A 
ATOM      5  C   UNL     1      69.162  58.558  64.797  0.00  0.00    +0.000 A 
ATOM      6  C   UNL     1      69.548  60.146  66.579  0.00  0.00    +0.000 A 
ENDROOT
BRANCH   2   7
ATOM      7  O   UNL     1      67.900  59.300  62.833  0.00  0.00    +0.000 OA
ATOM      8  C   UNL     1      68.766  58.751  61.879  0.00  0.00    +0.000 C 
ENDBRANCH   2   7
BRANCH   3   9
ATOM      9  C   UNL     1      70.433  57.879  66.767  0.00  0.00    +0.000 C 
ATOM     10  C   UNL     1      71.044  57.044  67.376  0.00  0.00    +0.000 C 
BRANCH  10  11
ATOM     11  C   UNL     1      71.820  55.976  68.154  0.00  0.00    +0.000 C 
BRANCH  11  12
ATOM     12  O   UNL     1      72.496  55.049  68.829  0.00  0.00    +0.000 OA
BRANCH  12  14
ATOM     13  O   UNL     1      73.868  56.232  70.308  0.00  0.00    +0.000 OA
ATOM     14  C   UNL     1      72.980  55.450  70.021  0.00  0.00    +0.000 C 
ATOM     15  C   UNL     1      72.311  54.826  71.199  0.00  0.00    +0.000 C 
ENDBRANCH  12  14
ENDBRANCH  11  12
ENDBRANCH  10  11
ENDBRANCH   3   9
BRANCH   1  16
ATOM     16  O   UNL     1      67.605  61.782  63.920  0.00  0.00    +0.000 OA
BRANCH  16  18
ATOM     17  O   UNL     1      65.544  61.550  64.972  0.00  0.00    +0.000 OA
ATOM     18  C   UNL     1      66.462  62.247  64.558  0.00  0.00    +0.000 C 
BRANCH  18  19
ATOM     19  C   UNL     1      66.487  63.727  64.663  0.00  0.00    +0.000 C 
ATOM     20  C   UNL     1      67.301  64.481  65.706  0.00  0.00    +0.000 C 
BRANCH  19  21
ATOM     21  C   UNL     1      65.722  64.496  63.746  0.00  0.00    +0.000 C 
ATOM     22  C   UNL     1      64.888  65.324  62.750  0.00  0.00    +0.000 C 
ENDBRANCH  19  21
ENDBRANCH  18  19
ENDBRANCH  16  18
ENDBRANCH   1  16
TORSDOF 9
ENDMDL
