MODEL 1
REMARK VINA RESULT:      -6.8      0.000      0.000
REMARK  Name = 122178712_SalternamideA.pdbqt.pdb
REMARK  8 active torsions:
REMARK  status: ('A' for Active; 'I' for Inactive)
REMARK    1  A    between atoms: C_3  and  O_24
REMARK    2  A    between atoms: C_3  and  C_26
REMARK    3  A    between atoms: C_6  and  N_10
REMARK    4  A    between atoms: C_11  and  C_14
REMARK    5  A    between atoms: C_13  and  C_15
REMARK    6  A    between atoms: C_27  and  C_28
REMARK    7  A    between atoms: C_29  and  C_31
REMARK    8  A    between atoms: C_31  and  O_32
REMARK                            x       y       z     vdW  Elec       q    Type
REMARK                         _______ _______ _______ _____ _____    ______ ____
ROOT
ATOM      1 CL   UNL     1      67.326  45.891  52.918  0.00  0.00    +0.000 Cl
ATOM      2  O   UNL     1      66.225  48.106  54.874  0.00  0.00    +0.000 OA
ATOM      3  C   UNL     1      63.366  45.176  53.532  0.00  0.00    +0.000 C 
ATOM      4  C   UNL     1      63.237  46.303  54.470  0.00  0.00    +0.000 C 
ATOM      5  C   UNL     1      64.786  45.347  53.184  0.00  0.00    +0.000 C 
ATOM      6  C   UNL     1      63.976  47.258  54.960  0.00  0.00    +0.000 C 
ATOM      7  C   UNL     1      65.752  46.166  53.480  0.00  0.00    +0.000 C 
ATOM      8  C   UNL     1      65.428  47.268  54.469  0.00  0.00    +0.000 C 
ENDROOT
BRANCH   6  10
ATOM      9  O   UNL     1      62.932  49.938  54.440  0.00  0.00    +0.000 OA
ATOM     10  N   UNL     1      63.575  48.215  55.855  0.00  0.00    +0.000 N 
ATOM     11  C   UNL     1      63.089  49.463  55.555  0.00  0.00    +0.000 C 
ATOM     12  H   UNL     1      63.657  47.952  56.835  0.00  0.00    +0.000 HD
BRANCH  11  14
ATOM     13  C   UNL     1      62.434  50.929  57.657  0.00  0.00    +0.000 C 
ATOM     14  C   UNL     1      62.739  50.267  56.702  0.00  0.00    +0.000 C 
BRANCH  13  15
ATOM     15  C   UNL     1      62.072  51.703  58.787  0.00  0.00    +0.000 C 
ATOM     16  C   UNL     1      60.692  51.525  59.353  0.00  0.00    +0.000 C 
ATOM     17  C   UNL     1      62.895  52.672  59.394  0.00  0.00    +0.000 C 
ATOM     18  C   UNL     1      63.708  53.642  60.014  0.00  0.00    +0.000 C 
ATOM     19  C   UNL     1      65.183  53.583  59.746  0.00  0.00    +0.000 C 
ATOM     20  C   UNL     1      63.233  54.672  60.843  0.00  0.00    +0.000 C 
ATOM     21  C   UNL     1      62.797  55.621  61.598  0.00  0.00    +0.000 C 
ATOM     22  C   UNL     1      62.640  55.379  63.068  0.00  0.00    +0.000 C 
ATOM     23  C   UNL     1      62.142  56.812  60.970  0.00  0.00    +0.000 C 
ENDBRANCH  13  15
ENDBRANCH  11  14
ENDBRANCH   6  10
BRANCH   3  24
ATOM     24  O   UNL     1      62.573  45.425  52.390  0.00  0.00    +0.000 OA
ATOM     25  H   UNL     1      62.157  46.291  52.539  0.00  0.00    +0.000 HD
ENDBRANCH   3  24
BRANCH   3  26
ATOM     26  C   UNL     1      63.041  43.875  54.105  0.00  0.00    +0.000 C 
ATOM     27  C   UNL     1      62.705  42.509  54.711  0.00  0.00    +0.000 C 
BRANCH  27  28
ATOM     28  C   UNL     1      62.372  41.144  55.320  0.00  0.00    +0.000 C 
ATOM     29  C   UNL     1      62.042  39.778  55.929  0.00  0.00    +0.000 C 
BRANCH  29  31
ATOM     30  O   UNL     1      60.931  37.724  56.013  0.00  0.00    +0.000 OA
ATOM     31  C   UNL     1      61.734  38.502  56.499  0.00  0.00    +0.000 C 
BRANCH  31  32
ATOM     32  O   UNL     1      62.411  38.230  57.628  0.00  0.00    +0.000 OA
ATOM     33  H   UNL     1      62.097  38.913  58.256  0.00  0.00    +0.000 HD
ENDBRANCH  31  32
ENDBRANCH  29  31
ENDBRANCH  27  28
ENDBRANCH   3  26
TORSDOF 8
ENDMDL
MODEL 2
REMARK VINA RESULT:      -5.9     16.297     21.871
REMARK  Name = 122178712_SalternamideA.pdbqt.pdb
REMARK  8 active torsions:
REMARK  status: ('A' for Active; 'I' for Inactive)
REMARK    1  A    between atoms: C_3  and  O_24
REMARK    2  A    between atoms: C_3  and  C_26
REMARK    3  A    between atoms: C_6  and  N_10
REMARK    4  A    between atoms: C_11  and  C_14
REMARK    5  A    between atoms: C_13  and  C_15
REMARK    6  A    between atoms: C_27  and  C_28
REMARK    7  A    between atoms: C_29  and  C_31
REMARK    8  A    between atoms: C_31  and  O_32
REMARK                            x       y       z     vdW  Elec       q    Type
REMARK                         _______ _______ _______ _____ _____    ______ ____
ROOT
ATOM      1 CL   UNL     1      64.692  68.272  62.449  0.00  0.00    +0.000 Cl
ATOM      2  O   UNL     1      66.235  65.571  62.965  0.00  0.00    +0.000 OA
ATOM      3  C   UNL     1      65.215  67.865  66.466  0.00  0.00    +0.000 C 
ATOM      4  C   UNL     1      65.872  66.556  66.317  0.00  0.00    +0.000 C 
ATOM      5  C   UNL     1      65.003  68.162  65.040  0.00  0.00    +0.000 C 
ATOM      6  C   UNL     1      66.252  65.755  65.363  0.00  0.00    +0.000 C 
ATOM      7  C   UNL     1      65.260  67.599  63.896  0.00  0.00    +0.000 C 
ATOM      8  C   UNL     1      65.945  66.247  63.944  0.00  0.00    +0.000 C 
ENDROOT
BRANCH   6  10
ATOM      9  O   UNL     1      69.094  65.106  65.140  0.00  0.00    +0.000 OA
ATOM     10  N   UNL     1      66.874  64.544  65.521  0.00  0.00    +0.000 N 
ATOM     11  C   UNL     1      68.219  64.294  65.405  0.00  0.00    +0.000 C 
ATOM     12  H   UNL     1      66.256  63.766  65.744  0.00  0.00    +0.000 HD
BRANCH  11  14
ATOM     13  C   UNL     1      68.903  61.773  65.820  0.00  0.00    +0.000 C 
ATOM     14  C   UNL     1      68.599  62.919  65.628  0.00  0.00    +0.000 C 
BRANCH  13  15
ATOM     15  C   UNL     1      69.254  60.419  66.044  0.00  0.00    +0.000 C 
ATOM     16  C   UNL     1      69.668  60.015  67.431  0.00  0.00    +0.000 C 
ATOM     17  C   UNL     1      69.294  59.424  65.048  0.00  0.00    +0.000 C 
ATOM     18  C   UNL     1      69.336  58.417  64.062  0.00  0.00    +0.000 C 
ATOM     19  C   UNL     1      68.581  58.663  62.789  0.00  0.00    +0.000 C 
ATOM     20  C   UNL     1      70.053  57.215  64.178  0.00  0.00    +0.000 C 
ATOM     21  C   UNL     1      70.715  56.114  64.280  0.00  0.00    +0.000 C 
ATOM     22  C   UNL     1      70.068  54.922  64.914  0.00  0.00    +0.000 C 
ATOM     23  C   UNL     1      72.200  56.134  64.085  0.00  0.00    +0.000 C 
ENDBRANCH  13  15
ENDBRANCH  11  14
ENDBRANCH   6  10
BRANCH   3  24
ATOM     24  O   UNL     1      66.135  68.793  67.002  0.00  0.00    +0.000 OA
ATOM     25  H   UNL     1      66.789  68.266  67.493  0.00  0.00    +0.000 HD
ENDBRANCH   3  24
BRANCH   3  26
ATOM     26  C   UNL     1      63.993  67.838  67.261  0.00  0.00    +0.000 C 
ATOM     27  C   UNL     1      62.713  67.810  68.101  0.00  0.00    +0.000 C 
BRANCH  27  28
ATOM     28  C   UNL     1      61.435  67.782  68.945  0.00  0.00    +0.000 C 
ATOM     29  C   UNL     1      60.156  67.755  69.786  0.00  0.00    +0.000 C 
BRANCH  29  31
ATOM     30  O   UNL     1      57.857  67.490  70.111  0.00  0.00    +0.000 OA
ATOM     31  C   UNL     1      58.960  67.728  70.572  0.00  0.00    +0.000 C 
BRANCH  31  32
ATOM     32  O   UNL     1      59.157  67.991  71.876  0.00  0.00    +0.000 OA
ATOM     33  H   UNL     1      60.130  67.957  71.974  0.00  0.00    +0.000 HD
ENDBRANCH  31  32
ENDBRANCH  29  31
ENDBRANCH  27  28
ENDBRANCH   3  26
TORSDOF 8
ENDMDL
MODEL 3
REMARK VINA RESULT:      -5.7     16.459     19.762
REMARK  Name = 122178712_SalternamideA.pdbqt.pdb
REMARK  8 active torsions:
REMARK  status: ('A' for Active; 'I' for Inactive)
REMARK    1  A    between atoms: C_3  and  O_24
REMARK    2  A    between atoms: C_3  and  C_26
REMARK    3  A    between atoms: C_6  and  N_10
REMARK    4  A    between atoms: C_11  and  C_14
REMARK    5  A    between atoms: C_13  and  C_15
REMARK    6  A    between atoms: C_27  and  C_28
REMARK    7  A    between atoms: C_29  and  C_31
REMARK    8  A    between atoms: C_31  and  O_32
REMARK                            x       y       z     vdW  Elec       q    Type
REMARK                         _______ _______ _______ _____ _____    ______ ____
ROOT
ATOM      1 CL   UNL     1      69.028  62.546  60.500  0.00  0.00    +0.000 Cl
ATOM      2  O   UNL     1      67.632  64.745  62.278  0.00  0.00    +0.000 OA
ATOM      3  C   UNL     1      67.476  60.713  63.787  0.00  0.00    +0.000 C 
ATOM      4  C   UNL     1      66.994  61.984  64.353  0.00  0.00    +0.000 C 
ATOM      5  C   UNL     1      68.040  61.237  62.532  0.00  0.00    +0.000 C 
ATOM      6  C   UNL     1      66.954  63.245  64.032  0.00  0.00    +0.000 C 
ATOM      7  C   UNL     1      68.149  62.390  61.940  0.00  0.00    +0.000 C 
ATOM      8  C   UNL     1      67.591  63.589  62.680  0.00  0.00    +0.000 C 
ENDROOT
BRANCH   6  10
ATOM      9  O   UNL     1      68.321  65.332  65.555  0.00  0.00    +0.000 OA
ATOM     10  N   UNL     1      66.415  64.256  64.783  0.00  0.00    +0.000 N 
ATOM     11  C   UNL     1      67.107  65.215  65.481  0.00  0.00    +0.000 C 
ATOM     12  H   UNL     1      65.397  64.278  64.814  0.00  0.00    +0.000 HD
BRANCH  11  14
ATOM     13  C   UNL     1      65.594  66.965  66.763  0.00  0.00    +0.000 C 
ATOM     14  C   UNL     1      66.279  66.165  66.186  0.00  0.00    +0.000 C 
BRANCH  13  15
ATOM     15  C   UNL     1      64.785  67.913  67.437  0.00  0.00    +0.000 C 
ATOM     16  C   UNL     1      63.380  67.517  67.796  0.00  0.00    +0.000 C 
ATOM     17  C   UNL     1      65.181  69.227  67.755  0.00  0.00    +0.000 C 
ATOM     18  C   UNL     1      65.565  70.543  68.081  0.00  0.00    +0.000 C 
ATOM     19  C   UNL     1      67.034  70.852  68.100  0.00  0.00    +0.000 C 
ATOM     20  C   UNL     1      64.672  71.589  68.366  0.00  0.00    +0.000 C 
ATOM     21  C   UNL     1      63.852  72.551  68.621  0.00  0.00    +0.000 C 
ATOM     22  C   UNL     1      63.375  72.758  70.025  0.00  0.00    +0.000 C 
ATOM     23  C   UNL     1      63.136  73.219  67.489  0.00  0.00    +0.000 C 
ENDBRANCH  13  15
ENDBRANCH  11  14
ENDBRANCH   6  10
BRANCH   3  24
ATOM     24  O   UNL     1      66.372  59.884  63.491  0.00  0.00    +0.000 OA
ATOM     25  H   UNL     1      65.798  59.913  64.275  0.00  0.00    +0.000 HD
ENDBRANCH   3  24
BRANCH   3  26
ATOM     26  C   UNL     1      68.436  60.005  64.626  0.00  0.00    +0.000 C 
ATOM     27  C   UNL     1      69.444  59.267  65.511  0.00  0.00    +0.000 C 
BRANCH  27  28
ATOM     28  C   UNL     1      70.451  58.531  66.400  0.00  0.00    +0.000 C 
ATOM     29  C   UNL     1      71.458  57.792  67.286  0.00  0.00    +0.000 C 
BRANCH  29  31
ATOM     30  O   UNL     1      73.569  57.428  68.219  0.00  0.00    +0.000 OA
ATOM     31  C   UNL     1      72.400  57.102  68.114  0.00  0.00    +0.000 C 
BRANCH  31  32
ATOM     32  O   UNL     1      71.881  56.052  68.775  0.00  0.00    +0.000 OA
ATOM     33  H   UNL     1      70.972  56.344  68.995  0.00  0.00    +0.000 HD
ENDBRANCH  31  32
ENDBRANCH  29  31
ENDBRANCH  27  28
ENDBRANCH   3  26
TORSDOF 8
ENDMDL
MODEL 4
REMARK VINA RESULT:      -5.7     20.239     24.419
REMARK  Name = 122178712_SalternamideA.pdbqt.pdb
REMARK  8 active torsions:
REMARK  status: ('A' for Active; 'I' for Inactive)
REMARK    1  A    between atoms: C_3  and  O_24
REMARK    2  A    between atoms: C_3  and  C_26
REMARK    3  A    between atoms: C_6  and  N_10
REMARK    4  A    between atoms: C_11  and  C_14
REMARK    5  A    between atoms: C_13  and  C_15
REMARK    6  A    between atoms: C_27  and  C_28
REMARK    7  A    between atoms: C_29  and  C_31
REMARK    8  A    between atoms: C_31  and  O_32
REMARK                            x       y       z     vdW  Elec       q    Type
REMARK                         _______ _______ _______ _____ _____    ______ ____
ROOT
ATOM      1 CL   UNL     1      55.358  70.483  69.512  0.00  0.00    +0.000 Cl
ATOM      2  O   UNL     1      58.370  70.751  68.619  0.00  0.00    +0.000 OA
ATOM      3  C   UNL     1      57.220  66.945  70.278  0.00  0.00    +0.000 C 
ATOM      4  C   UNL     1      58.496  67.416  69.715  0.00  0.00    +0.000 C 
ATOM      5  C   UNL     1      56.439  68.180  70.101  0.00  0.00    +0.000 C 
ATOM      6  C   UNL     1      58.996  68.502  69.199  0.00  0.00    +0.000 C 
ATOM      7  C   UNL     1      56.638  69.383  69.646  0.00  0.00    +0.000 C 
ATOM      8  C   UNL     1      58.022  69.682  69.105  0.00  0.00    +0.000 C 
ENDROOT
BRANCH   6  10
ATOM      9  O   UNL     1      61.141  66.527  68.990  0.00  0.00    +0.000 OA
ATOM     10  N   UNL     1      60.277  68.666  68.740  0.00  0.00    +0.000 N 
ATOM     11  C   UNL     1      61.248  67.699  68.662  0.00  0.00    +0.000 C 
ATOM     12  H   UNL     1      60.509  69.609  68.433  0.00  0.00    +0.000 HD
BRANCH  11  14
ATOM     13  C   UNL     1      63.568  68.519  67.690  0.00  0.00    +0.000 C 
ATOM     14  C   UNL     1      62.512  68.154  68.132  0.00  0.00    +0.000 C 
BRANCH  13  15
ATOM     15  C   UNL     1      64.813  68.943  67.163  0.00  0.00    +0.000 C 
ATOM     16  C   UNL     1      65.406  68.158  66.028  0.00  0.00    +0.000 C 
ATOM     17  C   UNL     1      65.569  70.023  67.660  0.00  0.00    +0.000 C 
ATOM     18  C   UNL     1      66.336  71.102  68.145  0.00  0.00    +0.000 C 
ATOM     19  C   UNL     1      65.634  72.125  68.989  0.00  0.00    +0.000 C 
ATOM     20  C   UNL     1      67.711  71.272  67.914  0.00  0.00    +0.000 C 
ATOM     21  C   UNL     1      68.974  71.427  67.709  0.00  0.00    +0.000 C 
ATOM     22  C   UNL     1      69.437  72.156  66.485  0.00  0.00    +0.000 C 
ATOM     23  C   UNL     1      69.947  70.601  68.492  0.00  0.00    +0.000 C 
ENDBRANCH  13  15
ENDBRANCH  11  14
ENDBRANCH   6  10
BRANCH   3  24
ATOM     24  O   UNL     1      57.383  66.692  71.658  0.00  0.00    +0.000 OA
ATOM     25  H   UNL     1      57.585  67.551  72.065  0.00  0.00    +0.000 HD
ENDBRANCH   3  24
BRANCH   3  26
ATOM     26  C   UNL     1      56.659  65.779  69.607  0.00  0.00    +0.000 C 
ATOM     27  C   UNL     1      56.074  64.551  68.903  0.00  0.00    +0.000 C 
BRANCH  27  28
ATOM     28  C   UNL     1      55.492  63.321  68.201  0.00  0.00    +0.000 C 
ATOM     29  C   UNL     1      54.908  62.091  67.500  0.00  0.00    +0.000 C 
BRANCH  29  31
ATOM     30  O   UNL     1      55.033  59.996  66.473  0.00  0.00    +0.000 OA
ATOM     31  C   UNL     1      54.361  60.942  66.845  0.00  0.00    +0.000 C 
BRANCH  31  32
ATOM     32  O   UNL     1      53.028  60.993  66.671  0.00  0.00    +0.000 OA
ATOM     33  H   UNL     1      52.803  61.922  66.887  0.00  0.00    +0.000 HD
ENDBRANCH  31  32
ENDBRANCH  29  31
ENDBRANCH  27  28
ENDBRANCH   3  26
TORSDOF 8
ENDMDL
MODEL 5
REMARK VINA RESULT:      -5.4      4.992      8.063
REMARK  Name = 122178712_SalternamideA.pdbqt.pdb
REMARK  8 active torsions:
REMARK  status: ('A' for Active; 'I' for Inactive)
REMARK    1  A    between atoms: C_3  and  O_24
REMARK    2  A    between atoms: C_3  and  C_26
REMARK    3  A    between atoms: C_6  and  N_10
REMARK    4  A    between atoms: C_11  and  C_14
REMARK    5  A    between atoms: C_13  and  C_15
REMARK    6  A    between atoms: C_27  and  C_28
REMARK    7  A    between atoms: C_29  and  C_31
REMARK    8  A    between atoms: C_31  and  O_32
REMARK                            x       y       z     vdW  Elec       q    Type
REMARK                         _______ _______ _______ _____ _____    ______ ____
ROOT
ATOM      1 CL   UNL     1      60.956  37.409  56.552  0.00  0.00    +0.000 Cl
ATOM      2  O   UNL     1      62.133  40.333  56.649  0.00  0.00    +0.000 OA
ATOM      3  C   UNL     1      62.856  38.122  53.023  0.00  0.00    +0.000 C 
ATOM      4  C   UNL     1      63.196  39.502  53.406  0.00  0.00    +0.000 C 
ATOM      5  C   UNL     1      62.181  37.714  54.266  0.00  0.00    +0.000 C 
ATOM      6  C   UNL     1      63.064  40.294  54.432  0.00  0.00    +0.000 C 
ATOM      7  C   UNL     1      61.904  38.242  55.423  0.00  0.00    +0.000 C 
ATOM      8  C   UNL     1      62.336  39.680  55.633  0.00  0.00    +0.000 C 
ENDROOT
BRANCH   6  10
ATOM      9  O   UNL     1      61.834  42.721  53.363  0.00  0.00    +0.000 OA
ATOM     10  N   UNL     1      63.500  41.590  54.517  0.00  0.00    +0.000 N 
ATOM     11  C   UNL     1      62.880  42.698  53.995  0.00  0.00    +0.000 C 
ATOM     12  H   UNL     1      64.376  41.720  55.021  0.00  0.00    +0.000 HD
BRANCH  11  14
ATOM     13  C   UNL     1      64.145  44.979  54.436  0.00  0.00    +0.000 C 
ATOM     14  C   UNL     1      63.565  43.945  54.240  0.00  0.00    +0.000 C 
BRANCH  13  15
ATOM     15  C   UNL     1      64.831  46.198  54.660  0.00  0.00    +0.000 C 
ATOM     16  C   UNL     1      66.292  46.262  54.314  0.00  0.00    +0.000 C 
ATOM     17  C   UNL     1      64.257  47.350  55.234  0.00  0.00    +0.000 C 
ATOM     18  C   UNL     1      63.695  48.510  55.804  0.00  0.00    +0.000 C 
ATOM     19  C   UNL     1      62.199  48.628  55.803  0.00  0.00    +0.000 C 
ATOM     20  C   UNL     1      64.435  49.549  56.392  0.00  0.00    +0.000 C 
ATOM     21  C   UNL     1      65.112  50.500  56.939  0.00  0.00    +0.000 C 
ATOM     22  C   UNL     1      65.609  51.630  56.091  0.00  0.00    +0.000 C 
ATOM     23  C   UNL     1      65.676  50.300  58.311  0.00  0.00    +0.000 C 
ENDBRANCH  13  15
ENDBRANCH  11  14
ENDBRANCH   6  10
BRANCH   3  24
ATOM     24  O   UNL     1      64.043  37.373  52.871  0.00  0.00    +0.000 OA
ATOM     25  H   UNL     1      64.458  37.693  52.051  0.00  0.00    +0.000 HD
ENDBRANCH   3  24
BRANCH   3  26
ATOM     26  C   UNL     1      62.027  38.015  51.829  0.00  0.00    +0.000 C 
ATOM     27  C   UNL     1      61.160  37.898  50.571  0.00  0.00    +0.000 C 
BRANCH  27  28
ATOM     28  C   UNL     1      60.296  37.778  49.313  0.00  0.00    +0.000 C 
ATOM     29  C   UNL     1      59.429  37.660  48.056  0.00  0.00    +0.000 C 
BRANCH  29  31
ATOM     30  O   UNL     1      58.897  38.081  45.820  0.00  0.00    +0.000 OA
ATOM     31  C   UNL     1      58.619  37.550  46.881  0.00  0.00    +0.000 C 
BRANCH  31  32
ATOM     32  O   UNL     1      57.512  36.803  47.048  0.00  0.00    +0.000 OA
ATOM     33  H   UNL     1      57.760  35.936  46.667  0.00  0.00    +0.000 HD
ENDBRANCH  31  32
ENDBRANCH  29  31
ENDBRANCH  27  28
ENDBRANCH   3  26
TORSDOF 8
ENDMDL
MODEL 6
REMARK VINA RESULT:      -5.4     18.560     22.092
REMARK  Name = 122178712_SalternamideA.pdbqt.pdb
REMARK  8 active torsions:
REMARK  status: ('A' for Active; 'I' for Inactive)
REMARK    1  A    between atoms: C_3  and  O_24
REMARK    2  A    between atoms: C_3  and  C_26
REMARK    3  A    between atoms: C_6  and  N_10
REMARK    4  A    between atoms: C_11  and  C_14
REMARK    5  A    between atoms: C_13  and  C_15
REMARK    6  A    between atoms: C_27  and  C_28
REMARK    7  A    between atoms: C_29  and  C_31
REMARK    8  A    between atoms: C_31  and  O_32
REMARK                            x       y       z     vdW  Elec       q    Type
REMARK                         _______ _______ _______ _____ _____    ______ ____
ROOT
ATOM      1 CL   UNL     1      68.824  39.010  79.112  0.00  0.00    +0.000 Cl
ATOM      2  O   UNL     1      67.785  38.823  76.141  0.00  0.00    +0.000 OA
ATOM      3  C   UNL     1      66.501  42.272  78.381  0.00  0.00    +0.000 C 
ATOM      4  C   UNL     1      66.268  41.877  76.982  0.00  0.00    +0.000 C 
ATOM      5  C   UNL     1      67.318  41.120  78.795  0.00  0.00    +0.000 C 
ATOM      6  C   UNL     1      66.565  40.896  76.179  0.00  0.00    +0.000 C 
ATOM      7  C   UNL     1      67.767  40.022  78.260  0.00  0.00    +0.000 C 
ATOM      8  C   UNL     1      67.423  39.788  76.802  0.00  0.00    +0.000 C 
ENDROOT
BRANCH   6  10
ATOM      9  O   UNL     1      68.051  41.654  73.778  0.00  0.00    +0.000 OA
ATOM     10  N   UNL     1      66.194  40.782  74.865  0.00  0.00    +0.000 N 
ATOM     11  C   UNL     1      66.935  41.155  73.771  0.00  0.00    +0.000 C 
ATOM     12  H   UNL     1      65.272  40.380  74.708  0.00  0.00    +0.000 HD
BRANCH  11  14
ATOM     13  C   UNL     1      65.776  40.710  71.435  0.00  0.00    +0.000 C 
ATOM     14  C   UNL     1      66.296  40.915  72.498  0.00  0.00    +0.000 C 
BRANCH  13  15
ATOM     15  C   UNL     1      65.166  40.462  70.181  0.00  0.00    +0.000 C 
ATOM     16  C   UNL     1      66.014  40.581  68.946  0.00  0.00    +0.000 C 
ATOM     17  C   UNL     1      63.803  40.159  69.995  0.00  0.00    +0.000 C 
ATOM     18  C   UNL     1      62.442  39.852  69.795  0.00  0.00    +0.000 C 
ATOM     19  C   UNL     1      61.664  39.350  70.976  0.00  0.00    +0.000 C 
ATOM     20  C   UNL     1      61.759  40.006  68.578  0.00  0.00    +0.000 C 
ATOM     21  C   UNL     1      61.129  40.152  67.462  0.00  0.00    +0.000 C 
ATOM     22  C   UNL     1      61.125  39.033  66.467  0.00  0.00    +0.000 C 
ATOM     23  C   UNL     1      60.711  41.525  67.035  0.00  0.00    +0.000 C 
ENDBRANCH  13  15
ENDBRANCH  11  14
ENDBRANCH   6  10
BRANCH   3  24
ATOM     24  O   UNL     1      65.275  42.249  79.083  0.00  0.00    +0.000 OA
ATOM     25  H   UNL     1      65.490  41.953  79.984  0.00  0.00    +0.000 HD
ENDBRANCH   3  24
BRANCH   3  26
ATOM     26  C   UNL     1      67.158  43.563  78.542  0.00  0.00    +0.000 C 
ATOM     27  C   UNL     1      67.853  44.916  78.712  0.00  0.00    +0.000 C 
BRANCH  27  28
ATOM     28  C   UNL     1      68.553  46.268  78.883  0.00  0.00    +0.000 C 
ATOM     29  C   UNL     1      69.250  47.621  79.057  0.00  0.00    +0.000 C 
BRANCH  29  31
ATOM     30  O   UNL     1      70.099  49.405  80.303  0.00  0.00    +0.000 OA
ATOM     31  C   UNL     1      69.902  48.885  79.219  0.00  0.00    +0.000 C 
BRANCH  31  32
ATOM     32  O   UNL     1      70.283  49.456  78.063  0.00  0.00    +0.000 OA
ATOM     33  H   UNL     1      70.280  50.414  78.267  0.00  0.00    +0.000 HD
ENDBRANCH  31  32
ENDBRANCH  29  31
ENDBRANCH  27  28
ENDBRANCH   3  26
TORSDOF 8
ENDMDL
MODEL 7
REMARK VINA RESULT:      -5.3     15.833     18.730
REMARK  Name = 122178712_SalternamideA.pdbqt.pdb
REMARK  8 active torsions:
REMARK  status: ('A' for Active; 'I' for Inactive)
REMARK    1  A    between atoms: C_3  and  O_24
REMARK    2  A    between atoms: C_3  and  C_26
REMARK    3  A    between atoms: C_6  and  N_10
REMARK    4  A    between atoms: C_11  and  C_14
REMARK    5  A    between atoms: C_13  and  C_15
REMARK    6  A    between atoms: C_27  and  C_28
REMARK    7  A    between atoms: C_29  and  C_31
REMARK    8  A    between atoms: C_31  and  O_32
REMARK                            x       y       z     vdW  Elec       q    Type
REMARK                         _______ _______ _______ _____ _____    ______ ____
ROOT
ATOM      1 CL   UNL     1      70.100  63.134  60.203  0.00  0.00    +0.000 Cl
ATOM      2  O   UNL     1      68.556  65.167  62.054  0.00  0.00    +0.000 OA
ATOM      3  C   UNL     1      67.634  61.000  62.640  0.00  0.00    +0.000 C 
ATOM      4  C   UNL     1      67.164  62.209  63.337  0.00  0.00    +0.000 C 
ATOM      5  C   UNL     1      68.529  61.648  61.668  0.00  0.00    +0.000 C 
ATOM      6  C   UNL     1      67.331  63.499  63.279  0.00  0.00    +0.000 C 
ATOM      7  C   UNL     1      68.893  62.858  61.360  0.00  0.00    +0.000 C 
ATOM      8  C   UNL     1      68.302  63.978  62.193  0.00  0.00    +0.000 C 
ENDROOT
BRANCH   6  10
ATOM      9  O   UNL     1      68.461  64.945  65.555  0.00  0.00    +0.000 OA
ATOM     10  N   UNL     1      66.736  64.431  64.089  0.00  0.00    +0.000 N 
ATOM     11  C   UNL     1      67.316  65.083  65.149  0.00  0.00    +0.000 C 
ATOM     12  H   UNL     1      65.766  64.643  63.865  0.00  0.00    +0.000 HD
BRANCH  11  14
ATOM     13  C   UNL     1      65.726  66.791  66.393  0.00  0.00    +0.000 C 
ATOM     14  C   UNL     1      66.453  66.021  65.826  0.00  0.00    +0.000 C 
BRANCH  13  15
ATOM     15  C   UNL     1      64.867  67.694  67.068  0.00  0.00    +0.000 C 
ATOM     16  C   UNL     1      65.485  68.877  67.758  0.00  0.00    +0.000 C 
ATOM     17  C   UNL     1      63.472  67.539  67.186  0.00  0.00    +0.000 C 
ATOM     18  C   UNL     1      62.075  67.399  67.309  0.00  0.00    +0.000 C 
ATOM     19  C   UNL     1      61.382  66.485  66.343  0.00  0.00    +0.000 C 
ATOM     20  C   UNL     1      61.291  68.036  68.287  0.00  0.00    +0.000 C 
ATOM     21  C   UNL     1      60.572  68.614  69.187  0.00  0.00    +0.000 C 
ATOM     22  C   UNL     1      60.020  69.980  68.922  0.00  0.00    +0.000 C 
ATOM     23  C   UNL     1      60.582  68.077  70.585  0.00  0.00    +0.000 C 
ENDBRANCH  13  15
ENDBRANCH  11  14
ENDBRANCH   6  10
BRANCH   3  24
ATOM     24  O   UNL     1      66.552  60.407  61.952  0.00  0.00    +0.000 OA
ATOM     25  H   UNL     1      65.797  61.008  62.074  0.00  0.00    +0.000 HD
ENDBRANCH   3  24
BRANCH   3  26
ATOM     26  C   UNL     1      68.289  60.024  63.501  0.00  0.00    +0.000 C 
ATOM     27  C   UNL     1      68.978  58.994  64.402  0.00  0.00    +0.000 C 
BRANCH  27  28
ATOM     28  C   UNL     1      69.666  57.962  65.299  0.00  0.00    +0.000 C 
ATOM     29  C   UNL     1      70.352  56.928  66.198  0.00  0.00    +0.000 C 
BRANCH  29  31
ATOM     30  O   UNL     1      71.450  56.223  68.136  0.00  0.00    +0.000 OA
ATOM     31  C   UNL     1      70.993  55.962  67.037  0.00  0.00    +0.000 C 
BRANCH  31  32
ATOM     32  O   UNL     1      71.050  54.728  66.505  0.00  0.00    +0.000 OA
ATOM     33  H   UNL     1      71.475  54.194  67.206  0.00  0.00    +0.000 HD
ENDBRANCH  31  32
ENDBRANCH  29  31
ENDBRANCH  27  28
ENDBRANCH   3  26
TORSDOF 8
ENDMDL
MODEL 8
REMARK VINA RESULT:      -5.3     20.528     23.166
REMARK  Name = 122178712_SalternamideA.pdbqt.pdb
REMARK  8 active torsions:
REMARK  status: ('A' for Active; 'I' for Inactive)
REMARK    1  A    between atoms: C_3  and  O_24
REMARK    2  A    between atoms: C_3  and  C_26
REMARK    3  A    between atoms: C_6  and  N_10
REMARK    4  A    between atoms: C_11  and  C_14
REMARK    5  A    between atoms: C_13  and  C_15
REMARK    6  A    between atoms: C_27  and  C_28
REMARK    7  A    between atoms: C_29  and  C_31
REMARK    8  A    between atoms: C_31  and  O_32
REMARK                            x       y       z     vdW  Elec       q    Type
REMARK                         _______ _______ _______ _____ _____    ______ ____
ROOT
ATOM      1 CL   UNL     1      55.278  38.881  70.006  0.00  0.00    +0.000 Cl
ATOM      2  O   UNL     1      52.614  40.540  70.310  0.00  0.00    +0.000 OA
ATOM      3  C   UNL     1      53.285  37.481  73.268  0.00  0.00    +0.000 C 
ATOM      4  C   UNL     1      52.205  38.470  73.118  0.00  0.00    +0.000 C 
ATOM      5  C   UNL     1      54.083  37.854  72.088  0.00  0.00    +0.000 C 
ATOM      6  C   UNL     1      51.859  39.425  72.303  0.00  0.00    +0.000 C 
ATOM      7  C   UNL     1      54.010  38.717  71.117  0.00  0.00    +0.000 C 
ATOM      8  C   UNL     1      52.821  39.657  71.132  0.00  0.00    +0.000 C 
ENDROOT
BRANCH   6  10
ATOM      9  O   UNL     1      51.674  42.227  73.116  0.00  0.00    +0.000 OA
ATOM     10  N   UNL     1      50.748  40.220  72.410  0.00  0.00    +0.000 N 
ATOM     11  C   UNL     1      50.717  41.536  72.798  0.00  0.00    +0.000 C 
ATOM     12  H   UNL     1      49.867  39.766  72.175  0.00  0.00    +0.000 HD
BRANCH  11  14
ATOM     13  C   UNL     1      48.312  42.636  72.828  0.00  0.00    +0.000 C 
ATOM     14  C   UNL     1      49.401  42.130  72.817  0.00  0.00    +0.000 C 
BRANCH  13  15
ATOM     15  C   UNL     1      47.029  43.237  72.835  0.00  0.00    +0.000 C 
ATOM     16  C   UNL     1      46.358  43.458  74.162  0.00  0.00    +0.000 C 
ATOM     17  C   UNL     1      46.305  43.600  71.682  0.00  0.00    +0.000 C 
ATOM     18  C   UNL     1      45.571  43.970  70.538  0.00  0.00    +0.000 C 
ATOM     19  C   UNL     1      46.327  44.130  69.251  0.00  0.00    +0.000 C 
ATOM     20  C   UNL     1      44.182  44.176  70.512  0.00  0.00    +0.000 C 
ATOM     21  C   UNL     1      42.906  44.359  70.485  0.00  0.00    +0.000 C 
ATOM     22  C   UNL     1      42.350  45.713  70.801  0.00  0.00    +0.000 C 
ATOM     23  C   UNL     1      41.998  43.169  70.478  0.00  0.00    +0.000 C 
ENDBRANCH  13  15
ENDBRANCH  11  14
ENDBRANCH   6  10
BRANCH   3  24
ATOM     24  O   UNL     1      52.759  36.183  73.081  0.00  0.00    +0.000 OA
ATOM     25  H   UNL     1      51.792  36.283  73.095  0.00  0.00    +0.000 HD
ENDBRANCH   3  24
BRANCH   3  26
ATOM     26  C   UNL     1      54.007  37.563  74.531  0.00  0.00    +0.000 C 
ATOM     27  C   UNL     1      54.761  37.653  75.861  0.00  0.00    +0.000 C 
BRANCH  27  28
ATOM     28  C   UNL     1      55.512  37.745  77.192  0.00  0.00    +0.000 C 
ATOM     29  C   UNL     1      56.262  37.834  78.525  0.00  0.00    +0.000 C 
BRANCH  29  31
ATOM     30  O   UNL     1      58.158  37.705  79.885  0.00  0.00    +0.000 OA
ATOM     31  C   UNL     1      56.963  37.916  79.770  0.00  0.00    +0.000 C 
BRANCH  31  32
ATOM     32  O   UNL     1      56.185  38.251  80.815  0.00  0.00    +0.000 OA
ATOM     33  H   UNL     1      55.620  38.968  80.462  0.00  0.00    +0.000 HD
ENDBRANCH  31  32
ENDBRANCH  29  31
ENDBRANCH  27  28
ENDBRANCH   3  26
TORSDOF 8
ENDMDL
MODEL 9
REMARK VINA RESULT:      -5.2     37.967     39.999
REMARK  Name = 122178712_SalternamideA.pdbqt.pdb
REMARK  8 active torsions:
REMARK  status: ('A' for Active; 'I' for Inactive)
REMARK    1  A    between atoms: C_3  and  O_24
REMARK    2  A    between atoms: C_3  and  C_26
REMARK    3  A    between atoms: C_6  and  N_10
REMARK    4  A    between atoms: C_11  and  C_14
REMARK    5  A    between atoms: C_13  and  C_15
REMARK    6  A    between atoms: C_27  and  C_28
REMARK    7  A    between atoms: C_29  and  C_31
REMARK    8  A    between atoms: C_31  and  O_32
REMARK                            x       y       z     vdW  Elec       q    Type
REMARK                         _______ _______ _______ _____ _____    ______ ____
ROOT
ATOM      1 CL   UNL     1      77.356  83.154  71.870  0.00  0.00    +0.000 Cl
ATOM      2  O   UNL     1      74.223  83.507  71.868  0.00  0.00    +0.000 OA
ATOM      3  C   UNL     1      75.716  79.874  73.638  0.00  0.00    +0.000 C 
ATOM      4  C   UNL     1      74.348  80.402  73.505  0.00  0.00    +0.000 C 
ATOM      5  C   UNL     1      76.436  80.975  72.977  0.00  0.00    +0.000 C 
ATOM      6  C   UNL     1      73.745  81.442  73.005  0.00  0.00    +0.000 C 
ATOM      7  C   UNL     1      76.138  82.099  72.394  0.00  0.00    +0.000 C 
ATOM      8  C   UNL     1      74.671  82.476  72.355  0.00  0.00    +0.000 C 
ENDROOT
BRANCH   6  10
ATOM      9  O   UNL     1      71.769  80.980  70.901  0.00  0.00    +0.000 OA
ATOM     10  N   UNL     1      72.396  81.683  73.022  0.00  0.00    +0.000 N 
ATOM     11  C   UNL     1      71.510  81.445  72.001  0.00  0.00    +0.000 C 
ATOM     12  H   UNL     1      72.038  82.080  73.888  0.00  0.00    +0.000 HD
BRANCH  11  14
ATOM     13  C   UNL     1      69.001  82.092  72.536  0.00  0.00    +0.000 C 
ATOM     14  C   UNL     1      70.140  81.792  72.297  0.00  0.00    +0.000 C 
BRANCH  13  15
ATOM     15  C   UNL     1      67.659  82.450  72.810  0.00  0.00    +0.000 C 
ATOM     16  C   UNL     1      66.610  81.376  72.736  0.00  0.00    +0.000 C 
ATOM     17  C   UNL     1      67.218  83.757  73.100  0.00  0.00    +0.000 C 
ATOM     18  C   UNL     1      66.764  85.058  73.394  0.00  0.00    +0.000 C 
ATOM     19  C   UNL     1      67.782  86.060  73.853  0.00  0.00    +0.000 C 
ATOM     20  C   UNL     1      65.433  85.488  73.265  0.00  0.00    +0.000 C 
ATOM     21  C   UNL     1      64.213  85.885  73.141  0.00  0.00    +0.000 C 
ATOM     22  C   UNL     1      63.264  85.716  74.287  0.00  0.00    +0.000 C 
ATOM     23  C   UNL     1      63.679  86.187  71.775  0.00  0.00    +0.000 C 
ENDBRANCH  13  15
ENDBRANCH  11  14
ENDBRANCH   6  10
BRANCH   3  24
ATOM     24  O   UNL     1      75.843  78.702  72.859  0.00  0.00    +0.000 OA
ATOM     25  H   UNL     1      75.858  78.998  71.933  0.00  0.00    +0.000 HD
ENDBRANCH   3  24
BRANCH   3  26
ATOM     26  C   UNL     1      76.134  79.623  75.011  0.00  0.00    +0.000 C 
ATOM     27  C   UNL     1      76.574  79.364  76.455  0.00  0.00    +0.000 C 
BRANCH  27  28
ATOM     28  C   UNL     1      77.014  79.110  77.900  0.00  0.00    +0.000 C 
ATOM     29  C   UNL     1      77.457  78.856  79.344  0.00  0.00    +0.000 C 
BRANCH  29  31
ATOM     30  O   UNL     1      77.097  78.357  81.598  0.00  0.00    +0.000 OA
ATOM     31  C   UNL     1      77.870  78.620  80.694  0.00  0.00    +0.000 C 
BRANCH  31  32
ATOM     32  O   UNL     1      79.199  78.712  80.882  0.00  0.00    +0.000 OA
ATOM     33  H   UNL     1      79.288  78.809  81.853  0.00  0.00    +0.000 HD
ENDBRANCH  31  32
ENDBRANCH  29  31
ENDBRANCH  27  28
ENDBRANCH   3  26
TORSDOF 8
ENDMDL
