MODEL 1
REMARK VINA RESULT:      -6.7      0.000      0.000
REMARK  Name = 135403648_CalciumFolinate.pdbqt.pdb
REMARK  10 active torsions:
REMARK  status: ('A' for Active; 'I' for Inactive)
REMARK    1  A    between atoms: N_1  and  C_3
REMARK    2  A    between atoms: N_1  and  C_24
REMARK    3  A    between atoms: C_6  and  C_11
REMARK    4  A    between atoms: CA_13  and  C_15
REMARK    5  A    between atoms: CA_13  and  CB_18
REMARK    6  A    between atoms: C_15  and  O_16
REMARK    7  A    between atoms: CG_19  and  CD_21
REMARK    8  A    between atoms: CD_21  and  OE1_22
REMARK    9  A    between atoms: C_24  and  C_32
REMARK   10  A    between atoms: N_27  and  C_37
REMARK                            x       y       z     vdW  Elec       q    Type
REMARK                         _______ _______ _______ _____ _____    ______ ____
ROOT
ATOM      1  N   UNL     1      59.834  34.755  64.708  0.00  0.00    +0.000 N 
ATOM      2  H   UNL     1      60.021  33.776  64.920  0.00  0.00    +0.000 HD
ENDROOT
BRANCH   1   3
ATOM      3  C   UNL     1      58.473  34.988  64.420  0.00  0.00    +0.000 A 
ATOM      4  C   UNL     1      57.562  33.934  64.540  0.00  0.00    +0.000 A 
ATOM      5  C   UNL     1      58.026  36.185  63.848  0.00  0.00    +0.000 A 
ATOM      6  C   UNL     1      55.787  35.303  63.641  0.00  0.00    +0.000 A 
ATOM      7  C   UNL     1      56.227  34.093  64.170  0.00  0.00    +0.000 A 
ATOM      8  C   UNL     1      56.694  36.351  63.476  0.00  0.00    +0.000 A 
BRANCH   6  11
ATOM      9  O   UNL     1      54.029  35.188  62.109  0.00  0.00    +0.000 OA
ATOM     10  N   UNL     1      53.551  36.094  64.187  0.00  0.00    +0.000 N 
ATOM     11  C   ACE A   0      54.375  35.520  63.237  0.00  0.00    +0.000 C 
ATOM     12  H   UNL     1      53.933  36.340  65.096  0.00  0.00    +0.000 HD
ATOM     13  CA  UNL     1      52.208  36.397  64.052  0.00  0.00    +0.000 C 
BRANCH  13  15
ATOM     14  OXT UNL     1      50.696  36.469  65.902  0.00  0.00    +0.000 OA
ATOM     15  C   UNL     1      51.564  37.015  65.236  0.00  0.00    +0.000 C 
BRANCH  15  16
ATOM     16  O   UNL     1      52.016  38.244  65.530  0.00  0.00    +0.000 OA
ATOM     17  H   UNL     1      52.099  38.254  66.506  0.00  0.00    +0.000 HD
ENDBRANCH  15  16
ENDBRANCH  13  15
BRANCH  13  18
ATOM     18  CB  UNL     1      51.487  36.133  62.857  0.00  0.00    +0.000 C 
ATOM     19  CG  UNL     1      50.699  35.849  61.573  0.00  0.00    +0.000 C 
BRANCH  19  21
ATOM     20  OE2 UNL     1      50.382  35.764  59.259  0.00  0.00    +0.000 OA
ATOM     21  CD  UNL     1      49.947  35.589  60.384  0.00  0.00    +0.000 C 
BRANCH  21  22
ATOM     22  OE1 UNL     1      48.696  35.150  60.611  0.00  0.00    +0.000 OA
ATOM     23  HE1 UNL     1      48.136  35.852  60.223  0.00  0.00    +0.000 HD
ENDBRANCH  21  22
ENDBRANCH  19  21
ENDBRANCH  13  18
ENDBRANCH   6  11
ENDBRANCH   1   3
BRANCH   1  24
ATOM     24  C   UNL     1      60.555  35.731  65.518  0.00  0.00    +0.000 C 
BRANCH  24  31
ATOM     25  O   UNL     1      59.442  39.781  68.686  0.00  0.00    +0.000 OA
ATOM     26  N   UNL     1      60.579  37.625  67.101  0.00  0.00    +0.000 N 
ATOM     27  N   UNL     1      63.493  37.741  67.062  0.00  0.00    +0.000 N 
ATOM     28  N   UNL     1      63.430  39.709  68.359  0.00  0.00    +0.000 NA
ATOM     29  N   UNL     1      61.465  40.563  69.230  0.00  0.00    +0.000 N 
ATOM     30  N   UNL     1      63.479  41.577  69.694  0.00  0.00    +0.000 N 
ATOM     31  C   UNL     1      61.237  36.718  66.277  0.00  0.00    +0.000 C 
ATOM     32  C   UNL     1      62.630  36.884  66.310  0.00  0.00    +0.000 C 
ATOM     33  C   UNL     1      61.347  38.607  67.786  0.00  0.00    +0.000 A 
ATOM     34  C   UNL     1      62.722  38.694  67.751  0.00  0.00    +0.000 A 
ATOM     35  C   UNL     1      60.661  39.670  68.591  0.00  0.00    +0.000 A 
ATOM     36  C   UNL     1      62.805  40.585  69.068  0.00  0.00    +0.000 A 
ATOM     37  H   UNL     1      64.323  38.170  66.664  0.00  0.00    +0.000 HD
ATOM     38  H   UNL     1      60.996  41.302  69.730  0.00  0.00    +0.000 HD
ATOM     39  H   UNL     1      64.482  41.413  69.704  0.00  0.00    +0.000 HD
ATOM     40  H   UNL     1      63.125  41.873  70.595  0.00  0.00    +0.000 HD
BRANCH  26  42
ATOM     41  O   UNL     1      58.067  37.445  67.299  0.00  0.00    +0.000 OA
ATOM     42  C   UNL     1      59.232  37.563  67.188  0.00  0.00    +0.000 C 
ENDBRANCH  26  42
ENDBRANCH  24  31
ENDBRANCH   1  24
TORSDOF 10
ENDMDL
MODEL 2
REMARK VINA RESULT:      -6.7      1.805      2.822
REMARK  Name = 135403648_CalciumFolinate.pdbqt.pdb
REMARK  10 active torsions:
REMARK  status: ('A' for Active; 'I' for Inactive)
REMARK    1  A    between atoms: N_1  and  C_3
REMARK    2  A    between atoms: N_1  and  C_24
REMARK    3  A    between atoms: C_6  and  C_11
REMARK    4  A    between atoms: CA_13  and  C_15
REMARK    5  A    between atoms: CA_13  and  CB_18
REMARK    6  A    between atoms: C_15  and  O_16
REMARK    7  A    between atoms: CG_19  and  CD_21
REMARK    8  A    between atoms: CD_21  and  OE1_22
REMARK    9  A    between atoms: C_24  and  C_32
REMARK   10  A    between atoms: N_27  and  C_37
REMARK                            x       y       z     vdW  Elec       q    Type
REMARK                         _______ _______ _______ _____ _____    ______ ____
ROOT
ATOM      1  N   UNL     1      58.523  34.083  64.668  0.00  0.00    +0.000 N 
ATOM      2  H   UNL     1      58.565  33.173  65.126  0.00  0.00    +0.000 HD
ENDROOT
BRANCH   1   3
ATOM      3  C   UNL     1      57.234  34.369  64.170  0.00  0.00    +0.000 A 
ATOM      4  C   UNL     1      56.367  33.312  63.878  0.00  0.00    +0.000 A 
ATOM      5  C   UNL     1      56.853  35.661  63.788  0.00  0.00    +0.000 A 
ATOM      6  C   UNL     1      54.740  34.839  62.955  0.00  0.00    +0.000 A 
ATOM      7  C   UNL     1      55.124  33.544  63.291  0.00  0.00    +0.000 A 
ATOM      8  C   UNL     1      55.612  35.900  63.201  0.00  0.00    +0.000 A 
BRANCH   6  11
ATOM      9  O   UNL     1      52.436  35.205  63.052  0.00  0.00    +0.000 OA
ATOM     10  N   UNL     1      53.426  35.310  60.961  0.00  0.00    +0.000 N 
ATOM     11  C   ACE A   0      53.425  35.135  62.332  0.00  0.00    +0.000 C 
ATOM     12  H   UNL     1      54.301  35.228  60.448  0.00  0.00    +0.000 HD
ATOM     13  CA  UNL     1      52.337  35.590  60.155  0.00  0.00    +0.000 C 
BRANCH  13  15
ATOM     14  OXT UNL     1      52.838  34.775  57.964  0.00  0.00    +0.000 OA
ATOM     15  C   UNL     1      52.625  35.723  58.706  0.00  0.00    +0.000 C 
BRANCH  15  16
ATOM     16  O   UNL     1      52.632  36.989  58.260  0.00  0.00    +0.000 OA
ATOM     17  H   UNL     1      52.323  37.525  59.020  0.00  0.00    +0.000 HD
ENDBRANCH  15  16
ENDBRANCH  13  15
BRANCH  13  18
ATOM     18  CB  UNL     1      51.026  35.741  60.678  0.00  0.00    +0.000 C 
ATOM     19  CG  UNL     1      49.612  35.917  61.243  0.00  0.00    +0.000 C 
BRANCH  19  21
ATOM     20  OE2 UNL     1      47.382  36.611  61.147  0.00  0.00    +0.000 OA
ATOM     21  CD  UNL     1      48.295  36.100  61.772  0.00  0.00    +0.000 C 
BRANCH  21  22
ATOM     22  OE1 UNL     1      48.149  35.676  63.040  0.00  0.00    +0.000 OA
ATOM     23  HE1 UNL     1      47.769  36.454  63.496  0.00  0.00    +0.000 HD
ENDBRANCH  21  22
ENDBRANCH  19  21
ENDBRANCH  13  18
ENDBRANCH   6  11
ENDBRANCH   1   3
BRANCH   1  24
ATOM     24  C   UNL     1      59.279  35.153  65.309  0.00  0.00    +0.000 C 
BRANCH  24  31
ATOM     25  O   UNL     1      58.565  39.490  68.200  0.00  0.00    +0.000 OA
ATOM     26  N   UNL     1      59.494  37.162  66.727  0.00  0.00    +0.000 N 
ATOM     27  N   UNL     1      62.401  37.130  66.491  0.00  0.00    +0.000 N 
ATOM     28  N   UNL     1      62.514  39.195  67.625  0.00  0.00    +0.000 NA
ATOM     29  N   UNL     1      60.652  40.211  68.548  0.00  0.00    +0.000 N 
ATOM     30  N   UNL     1      62.736  41.157  68.797  0.00  0.00    +0.000 N 
ATOM     31  C   UNL     1      60.054  36.162  65.939  0.00  0.00    +0.000 C 
ATOM     32  C   UNL     1      61.452  36.261  65.869  0.00  0.00    +0.000 C 
ATOM     33  C   UNL     1      60.350  38.156  67.279  0.00  0.00    +0.000 A 
ATOM     34  C   UNL     1      61.722  38.172  67.149  0.00  0.00    +0.000 A 
ATOM     35  C   UNL     1      59.768  39.312  68.037  0.00  0.00    +0.000 A 
ATOM     36  C   UNL     1      61.978  40.153  68.299  0.00  0.00    +0.000 A 
ATOM     37  H   UNL     1      63.221  37.485  66.008  0.00  0.00    +0.000 HD
ATOM     38  H   UNL     1      60.252  41.009  69.015  0.00  0.00    +0.000 HD
ATOM     39  H   UNL     1      63.729  40.945  68.756  0.00  0.00    +0.000 HD
ATOM     40  H   UNL     1      62.458  41.540  69.692  0.00  0.00    +0.000 HD
BRANCH  26  42
ATOM     41  O   UNL     1      56.999  37.143  67.119  0.00  0.00    +0.000 OA
ATOM     42  C   UNL     1      58.155  37.174  66.905  0.00  0.00    +0.000 C 
ENDBRANCH  26  42
ENDBRANCH  24  31
ENDBRANCH   1  24
TORSDOF 10
ENDMDL
MODEL 3
REMARK VINA RESULT:      -6.5      2.059      3.239
REMARK  Name = 135403648_CalciumFolinate.pdbqt.pdb
REMARK  10 active torsions:
REMARK  status: ('A' for Active; 'I' for Inactive)
REMARK    1  A    between atoms: N_1  and  C_3
REMARK    2  A    between atoms: N_1  and  C_24
REMARK    3  A    between atoms: C_6  and  C_11
REMARK    4  A    between atoms: CA_13  and  C_15
REMARK    5  A    between atoms: CA_13  and  CB_18
REMARK    6  A    between atoms: C_15  and  O_16
REMARK    7  A    between atoms: CG_19  and  CD_21
REMARK    8  A    between atoms: CD_21  and  OE1_22
REMARK    9  A    between atoms: C_24  and  C_32
REMARK   10  A    between atoms: N_27  and  C_37
REMARK                            x       y       z     vdW  Elec       q    Type
REMARK                         _______ _______ _______ _____ _____    ______ ____
ROOT
ATOM      1  N   UNL     1      58.423  34.871  65.537  0.00  0.00    +0.000 N 
ATOM      2  H   UNL     1      58.491  33.994  66.053  0.00  0.00    +0.000 HD
ENDROOT
BRANCH   1   3
ATOM      3  C   UNL     1      57.168  35.024  64.911  0.00  0.00    +0.000 A 
ATOM      4  C   UNL     1      56.455  33.884  64.528  0.00  0.00    +0.000 A 
ATOM      5  C   UNL     1      56.689  36.272  64.497  0.00  0.00    +0.000 A 
ATOM      6  C   UNL     1      54.773  35.240  63.449  0.00  0.00    +0.000 A 
ATOM      7  C   UNL     1      55.259  33.989  63.817  0.00  0.00    +0.000 A 
ATOM      8  C   UNL     1      55.495  36.385  63.788  0.00  0.00    +0.000 A 
BRANCH   6  11
ATOM      9  O   UNL     1      52.456  35.501  63.326  0.00  0.00    +0.000 OA
ATOM     10  N   UNL     1      53.611  35.426  61.319  0.00  0.00    +0.000 N 
ATOM     11  C   ACE A   0      53.503  35.402  62.697  0.00  0.00    +0.000 C 
ATOM     12  H   UNL     1      54.527  35.331  60.888  0.00  0.00    +0.000 HD
ATOM     13  CA  UNL     1      52.582  35.563  60.404  0.00  0.00    +0.000 C 
BRANCH  13  15
ATOM     14  OXT UNL     1      53.393  34.559  58.393  0.00  0.00    +0.000 OA
ATOM     15  C   UNL     1      52.982  35.551  58.976  0.00  0.00    +0.000 C 
BRANCH  15  16
ATOM     16  O   UNL     1      52.856  36.736  58.360  0.00  0.00    +0.000 OA
ATOM     17  H   UNL     1      51.985  36.696  57.914  0.00  0.00    +0.000 HD
ENDBRANCH  15  16
ENDBRANCH  13  15
BRANCH  13  18
ATOM     18  CB  UNL     1      51.227  35.706  60.803  0.00  0.00    +0.000 C 
ATOM     19  CG  UNL     1      49.766  35.873  61.238  0.00  0.00    +0.000 C 
BRANCH  19  21
ATOM     20  OE2 UNL     1      47.654  36.869  61.161  0.00  0.00    +0.000 OA
ATOM     21  CD  UNL     1      48.406  36.045  61.650  0.00  0.00    +0.000 C 
BRANCH  21  22
ATOM     22  OE1 UNL     1      48.028  35.228  62.649  0.00  0.00    +0.000 OA
ATOM     23  HE1 UNL     1      48.149  34.335  62.269  0.00  0.00    +0.000 HD
ENDBRANCH  21  22
ENDBRANCH  19  21
ENDBRANCH  13  18
ENDBRANCH   6  11
ENDBRANCH   1   3
BRANCH   1  24
ATOM     24  C   UNL     1      59.035  36.033  66.171  0.00  0.00    +0.000 C 
BRANCH  24  31
ATOM     25  O   UNL     1      63.853  37.749  67.401  0.00  0.00    +0.000 OA
ATOM     26  N   UNL     1      61.026  37.300  66.895  0.00  0.00    +0.000 N 
ATOM     27  N   UNL     1      59.377  39.397  68.074  0.00  0.00    +0.000 N 
ATOM     28  N   UNL     1      61.309  40.413  68.966  0.00  0.00    +0.000 NA
ATOM     29  N   UNL     1      63.443  39.658  68.491  0.00  0.00    +0.000 N 
ATOM     30  N   UNL     1      63.136  41.526  69.801  0.00  0.00    +0.000 N 
ATOM     31  C   UNL     1      59.647  37.134  66.826  0.00  0.00    +0.000 C 
ATOM     32  C   UNL     1      58.953  38.182  67.451  0.00  0.00    +0.000 C 
ATOM     33  C   UNL     1      61.544  38.412  67.615  0.00  0.00    +0.000 A 
ATOM     34  C   UNL     1      60.778  39.394  68.204  0.00  0.00    +0.000 A 
ATOM     35  C   UNL     1      63.025  38.558  67.806  0.00  0.00    +0.000 A 
ATOM     36  C   UNL     1      62.588  40.521  69.079  0.00  0.00    +0.000 A 
ATOM     37  H   UNL     1      58.939  39.767  68.912  0.00  0.00    +0.000 HD
ATOM     38  H   UNL     1      64.435  39.725  68.657  0.00  0.00    +0.000 HD
ATOM     39  H   UNL     1      62.457  42.246  70.033  0.00  0.00    +0.000 HD
ATOM     40  H   UNL     1      64.008  41.911  69.462  0.00  0.00    +0.000 HD
BRANCH  26  42
ATOM     41  O   UNL     1      62.451  35.540  65.777  0.00  0.00    +0.000 OA
ATOM     42  C   UNL     1      61.820  36.377  66.310  0.00  0.00    +0.000 C 
ENDBRANCH  26  42
ENDBRANCH  24  31
ENDBRANCH   1  24
TORSDOF 10
ENDMDL
MODEL 4
REMARK VINA RESULT:      -6.4      2.154      3.532
REMARK  Name = 135403648_CalciumFolinate.pdbqt.pdb
REMARK  10 active torsions:
REMARK  status: ('A' for Active; 'I' for Inactive)
REMARK    1  A    between atoms: N_1  and  C_3
REMARK    2  A    between atoms: N_1  and  C_24
REMARK    3  A    between atoms: C_6  and  C_11
REMARK    4  A    between atoms: CA_13  and  C_15
REMARK    5  A    between atoms: CA_13  and  CB_18
REMARK    6  A    between atoms: C_15  and  O_16
REMARK    7  A    between atoms: CG_19  and  CD_21
REMARK    8  A    between atoms: CD_21  and  OE1_22
REMARK    9  A    between atoms: C_24  and  C_32
REMARK   10  A    between atoms: N_27  and  C_37
REMARK                            x       y       z     vdW  Elec       q    Type
REMARK                         _______ _______ _______ _____ _____    ______ ____
ROOT
ATOM      1  N   UNL     1      59.053  35.905  64.678  0.00  0.00    +0.000 N 
ATOM      2  H   UNL     1      59.592  35.059  64.500  0.00  0.00    +0.000 HD
ENDROOT
BRANCH   1   3
ATOM      3  C   UNL     1      57.777  35.860  64.076  0.00  0.00    +0.000 A 
ATOM      4  C   UNL     1      57.116  37.058  63.790  0.00  0.00    +0.000 A 
ATOM      5  C   UNL     1      57.070  34.662  63.919  0.00  0.00    +0.000 A 
ATOM      6  C   UNL     1      55.139  35.858  63.097  0.00  0.00    +0.000 A 
ATOM      7  C   UNL     1      55.815  37.060  63.289  0.00  0.00    +0.000 A 
ATOM      8  C   UNL     1      55.770  34.656  63.418  0.00  0.00    +0.000 A 
BRANCH   6  11
ATOM      9  O   UNL     1      52.847  36.278  63.239  0.00  0.00    +0.000 OA
ATOM     10  N   UNL     1      53.602  35.223  61.320  0.00  0.00    +0.000 N 
ATOM     11  C   ACE A   0      53.755  35.809  62.563  0.00  0.00    +0.000 C 
ATOM     12  H   UNL     1      54.418  34.857  60.837  0.00  0.00    +0.000 HD
ATOM     13  CA  UNL     1      52.422  35.057  60.616  0.00  0.00    +0.000 C 
BRANCH  13  15
ATOM     14  OXT UNL     1      52.195  33.237  59.083  0.00  0.00    +0.000 OA
ATOM     15  C   UNL     1      52.547  34.388  59.298  0.00  0.00    +0.000 C 
BRANCH  15  16
ATOM     16  O   UNL     1      53.085  35.156  58.339  0.00  0.00    +0.000 OA
ATOM     17  H   UNL     1      52.505  35.945  58.294  0.00  0.00    +0.000 HD
ENDBRANCH  15  16
ENDBRANCH  13  15
BRANCH  13  18
ATOM     18  CB  UNL     1      51.170  35.499  61.119  0.00  0.00    +0.000 C 
ATOM     19  CG  UNL     1      49.824  35.984  61.668  0.00  0.00    +0.000 C 
BRANCH  19  21
ATOM     20  OE2 UNL     1      48.309  36.475  63.379  0.00  0.00    +0.000 OA
ATOM     21  CD  UNL     1      48.576  36.451  62.191  0.00  0.00    +0.000 C 
BRANCH  21  22
ATOM     22  OE1 UNL     1      47.701  36.848  61.249  0.00  0.00    +0.000 OA
ATOM     23  HE1 UNL     1      48.188  37.548  60.769  0.00  0.00    +0.000 HD
ENDBRANCH  21  22
ENDBRANCH  19  21
ENDBRANCH  13  18
ENDBRANCH   6  11
ENDBRANCH   1   3
BRANCH   1  24
ATOM     24  C   UNL     1      59.174  36.468  66.017  0.00  0.00    +0.000 C 
BRANCH  24  31
ATOM     25  O   UNL     1      62.125  40.089  68.438  0.00  0.00    +0.000 OA
ATOM     26  N   UNL     1      60.212  38.077  67.576  0.00  0.00    +0.000 N 
ATOM     27  N   UNL     1      58.617  37.085  69.808  0.00  0.00    +0.000 N 
ATOM     28  N   UNL     1      59.836  38.458  71.287  0.00  0.00    +0.000 NA
ATOM     29  N   UNL     1      61.412  39.985  70.554  0.00  0.00    +0.000 N 
ATOM     30  N   UNL     1      60.903  39.824  72.794  0.00  0.00    +0.000 N 
ATOM     31  C   UNL     1      59.343  37.024  67.313  0.00  0.00    +0.000 C 
ATOM     32  C   UNL     1      58.652  36.605  68.462  0.00  0.00    +0.000 C 
ATOM     33  C   UNL     1      60.345  38.534  68.916  0.00  0.00    +0.000 A 
ATOM     34  C   UNL     1      59.622  38.053  69.987  0.00  0.00    +0.000 A 
ATOM     35  C   UNL     1      61.356  39.589  69.253  0.00  0.00    +0.000 A 
ATOM     36  C   UNL     1      60.691  39.391  71.529  0.00  0.00    +0.000 A 
ATOM     37  H   UNL     1      58.568  36.465  70.611  0.00  0.00    +0.000 HD
ATOM     38  H   UNL     1      62.125  40.659  70.781  0.00  0.00    +0.000 HD
ATOM     39  H   UNL     1      60.190  39.491  73.438  0.00  0.00    +0.000 HD
ATOM     40  H   UNL     1      61.104  40.809  72.913  0.00  0.00    +0.000 HD
BRANCH  26  42
ATOM     41  O   UNL     1      61.599  39.014  65.685  0.00  0.00    +0.000 OA
ATOM     42  C   UNL     1      60.924  38.600  66.554  0.00  0.00    +0.000 C 
ENDBRANCH  26  42
ENDBRANCH  24  31
ENDBRANCH   1  24
TORSDOF 10
ENDMDL
MODEL 5
REMARK VINA RESULT:      -6.4      1.985      2.850
REMARK  Name = 135403648_CalciumFolinate.pdbqt.pdb
REMARK  10 active torsions:
REMARK  status: ('A' for Active; 'I' for Inactive)
REMARK    1  A    between atoms: N_1  and  C_3
REMARK    2  A    between atoms: N_1  and  C_24
REMARK    3  A    between atoms: C_6  and  C_11
REMARK    4  A    between atoms: CA_13  and  C_15
REMARK    5  A    between atoms: CA_13  and  CB_18
REMARK    6  A    between atoms: C_15  and  O_16
REMARK    7  A    between atoms: CG_19  and  CD_21
REMARK    8  A    between atoms: CD_21  and  OE1_22
REMARK    9  A    between atoms: C_24  and  C_32
REMARK   10  A    between atoms: N_27  and  C_37
REMARK                            x       y       z     vdW  Elec       q    Type
REMARK                         _______ _______ _______ _____ _____    ______ ____
ROOT
ATOM      1  N   UNL     1      57.481  34.849  66.076  0.00  0.00    +0.000 N 
ATOM      2  H   UNL     1      57.251  34.112  66.741  0.00  0.00    +0.000 HD
ENDROOT
BRANCH   1   3
ATOM      3  C   UNL     1      56.437  35.082  65.156  0.00  0.00    +0.000 A 
ATOM      4  C   UNL     1      55.591  34.025  64.805  0.00  0.00    +0.000 A 
ATOM      5  C   UNL     1      56.323  36.282  64.445  0.00  0.00    +0.000 A 
ATOM      6  C   UNL     1      54.482  35.397  63.156  0.00  0.00    +0.000 A 
ATOM      7  C   UNL     1      54.611  34.183  63.826  0.00  0.00    +0.000 A 
ATOM      8  C   UNL     1      55.346  36.448  63.466  0.00  0.00    +0.000 A 
BRANCH   6  11
ATOM      9  O   UNL     1      53.818  35.841  60.962  0.00  0.00    +0.000 OA
ATOM     10  N   UNL     1      52.136  35.544  62.527  0.00  0.00    +0.000 N 
ATOM     11  C   ACE A   0      53.451  35.614  62.110  0.00  0.00    +0.000 C 
ATOM     12  H   UNL     1      51.931  35.355  63.505  0.00  0.00    +0.000 HD
ATOM     13  CA  UNL     1      51.004  35.711  61.749  0.00  0.00    +0.000 C 
BRANCH  13  15
ATOM     14  OXT UNL     1      48.837  34.785  62.151  0.00  0.00    +0.000 OA
ATOM     15  C   UNL     1      49.708  35.586  62.460  0.00  0.00    +0.000 C 
BRANCH  15  16
ATOM     16  O   UNL     1      49.561  36.433  63.489  0.00  0.00    +0.000 OA
ATOM     17  H   UNL     1      49.592  37.326  63.087  0.00  0.00    +0.000 HD
ENDBRANCH  15  16
ENDBRANCH  13  15
BRANCH  13  18
ATOM     18  CB  UNL     1      51.074  35.984  60.357  0.00  0.00    +0.000 C 
ATOM     19  CG  UNL     1      51.162  36.280  58.856  0.00  0.00    +0.000 C 
BRANCH  19  21
ATOM     20  OE2 UNL     1      52.032  35.980  56.707  0.00  0.00    +0.000 OA
ATOM     21  CD  UNL     1      51.263  36.557  57.455  0.00  0.00    +0.000 C 
BRANCH  21  22
ATOM     22  OE1 UNL     1      50.443  37.535  57.029  0.00  0.00    +0.000 OA
ATOM     23  HE1 UNL     1      51.060  38.220  56.701  0.00  0.00    +0.000 HD
ENDBRANCH  21  22
ENDBRANCH  19  21
ENDBRANCH  13  18
ENDBRANCH   6  11
ENDBRANCH   1   3
BRANCH   1  24
ATOM     24  C   UNL     1      58.202  35.994  66.619  0.00  0.00    +0.000 C 
BRANCH  24  31
ATOM     25  O   UNL     1      63.200  37.588  67.011  0.00  0.00    +0.000 OA
ATOM     26  N   UNL     1      60.318  37.210  66.993  0.00  0.00    +0.000 N 
ATOM     27  N   UNL     1      58.945  39.345  68.430  0.00  0.00    +0.000 N 
ATOM     28  N   UNL     1      61.025  40.310  68.979  0.00  0.00    +0.000 NA
ATOM     29  N   UNL     1      63.029  39.503  68.151  0.00  0.00    +0.000 N 
ATOM     30  N   UNL     1      62.995  41.376  69.490  0.00  0.00    +0.000 N 
ATOM     31  C   UNL     1      58.944  37.078  67.159  0.00  0.00    +0.000 C 
ATOM     32  C   UNL     1      58.392  38.143  67.890  0.00  0.00    +0.000 C 
ATOM     33  C   UNL     1      60.978  38.307  67.612  0.00  0.00    +0.000 A 
ATOM     34  C   UNL     1      60.348  39.306  68.321  0.00  0.00    +0.000 A 
ATOM     35  C   UNL     1      62.473  38.416  67.550  0.00  0.00    +0.000 A 
ATOM     36  C   UNL     1      62.307  40.386  68.874  0.00  0.00    +0.000 A 
ATOM     37  H   UNL     1      58.665  39.723  69.330  0.00  0.00    +0.000 HD
ATOM     38  H   UNL     1      64.035  39.545  68.146  0.00  0.00    +0.000 HD
ATOM     39  H   UNL     1      62.383  42.112  69.833  0.00  0.00    +0.000 HD
ATOM     40  H   UNL     1      63.806  41.739  69.007  0.00  0.00    +0.000 HD
BRANCH  26  42
ATOM     41  O   UNL     1      61.495  35.407  65.672  0.00  0.00    +0.000 OA
ATOM     42  C   UNL     1      60.978  36.268  66.283  0.00  0.00    +0.000 C 
ENDBRANCH  26  42
ENDBRANCH  24  31
ENDBRANCH   1  24
TORSDOF 10
ENDMDL
MODEL 6
REMARK VINA RESULT:      -6.3      2.252      2.537
REMARK  Name = 135403648_CalciumFolinate.pdbqt.pdb
REMARK  10 active torsions:
REMARK  status: ('A' for Active; 'I' for Inactive)
REMARK    1  A    between atoms: N_1  and  C_3
REMARK    2  A    between atoms: N_1  and  C_24
REMARK    3  A    between atoms: C_6  and  C_11
REMARK    4  A    between atoms: CA_13  and  C_15
REMARK    5  A    between atoms: CA_13  and  CB_18
REMARK    6  A    between atoms: C_15  and  O_16
REMARK    7  A    between atoms: CG_19  and  CD_21
REMARK    8  A    between atoms: CD_21  and  OE1_22
REMARK    9  A    between atoms: C_24  and  C_32
REMARK   10  A    between atoms: N_27  and  C_37
REMARK                            x       y       z     vdW  Elec       q    Type
REMARK                         _______ _______ _______ _____ _____    ______ ____
ROOT
ATOM      1  N   UNL     1      59.749  35.847  65.167  0.00  0.00    +0.000 N 
ATOM      2  H   UNL     1      59.880  34.838  65.119  0.00  0.00    +0.000 HD
ENDROOT
BRANCH   1   3
ATOM      3  C   UNL     1      58.387  36.203  65.264  0.00  0.00    +0.000 A 
ATOM      4  C   UNL     1      57.666  35.837  66.405  0.00  0.00    +0.000 A 
ATOM      5  C   UNL     1      57.682  36.751  64.186  0.00  0.00    +0.000 A 
ATOM      6  C   UNL     1      55.616  36.664  65.434  0.00  0.00    +0.000 A 
ATOM      7  C   UNL     1      56.296  36.078  66.498  0.00  0.00    +0.000 A 
ATOM      8  C   UNL     1      56.313  36.996  64.272  0.00  0.00    +0.000 A 
BRANCH   6  11
ATOM      9  O   UNL     1      53.397  36.223  64.855  0.00  0.00    +0.000 OA
ATOM     10  N   UNL     1      53.775  38.021  66.266  0.00  0.00    +0.000 N 
ATOM     11  C   ACE A   0      54.159  36.944  65.489  0.00  0.00    +0.000 C 
ATOM     12  H   UNL     1      54.484  38.564  66.752  0.00  0.00    +0.000 HD
ATOM     13  CA  UNL     1      52.487  38.482  66.474  0.00  0.00    +0.000 C 
BRANCH  13  15
ATOM     14  OXT UNL     1      51.659  39.699  68.357  0.00  0.00    +0.000 OA
ATOM     15  C   UNL     1      52.361  39.667  67.357  0.00  0.00    +0.000 C 
BRANCH  15  16
ATOM     16  O   UNL     1      53.092  40.723  66.969  0.00  0.00    +0.000 OA
ATOM     17  H   UNL     1      52.724  40.976  66.096  0.00  0.00    +0.000 HD
ENDBRANCH  15  16
ENDBRANCH  13  15
BRANCH  13  18
ATOM     18  CB  UNL     1      51.355  37.862  65.882  0.00  0.00    +0.000 C 
ATOM     19  CG  UNL     1      50.137  37.195  65.232  0.00  0.00    +0.000 C 
BRANCH  19  21
ATOM     20  OE2 UNL     1      48.215  37.175  63.902  0.00  0.00    +0.000 OA
ATOM     21  CD  UNL     1      49.007  36.577  64.609  0.00  0.00    +0.000 C 
BRANCH  21  22
ATOM     22  OE1 UNL     1      48.875  35.267  64.888  0.00  0.00    +0.000 OA
ATOM     23  HE1 UNL     1      48.234  34.956  64.217  0.00  0.00    +0.000 HD
ENDBRANCH  21  22
ENDBRANCH  19  21
ENDBRANCH  13  18
ENDBRANCH   6  11
ENDBRANCH   1   3
BRANCH   1  24
ATOM     24  C   UNL     1      60.721  36.578  65.971  0.00  0.00    +0.000 C 
BRANCH  24  31
ATOM     25  O   UNL     1      60.666  40.351  69.638  0.00  0.00    +0.000 OA
ATOM     26  N   UNL     1      61.237  38.236  67.727  0.00  0.00    +0.000 N 
ATOM     27  N   UNL     1      64.107  37.844  67.383  0.00  0.00    +0.000 N 
ATOM     28  N   UNL     1      64.526  39.622  68.873  0.00  0.00    +0.000 NA
ATOM     29  N   UNL     1      62.839  40.696  70.036  0.00  0.00    +0.000 N 
ATOM     30  N   UNL     1      65.039  41.279  70.379  0.00  0.00    +0.000 N 
ATOM     31  C   UNL     1      61.639  37.333  66.749  0.00  0.00    +0.000 C 
ATOM     32  C   UNL     1      63.037  37.247  66.647  0.00  0.00    +0.000 C 
ATOM     33  C   UNL     1      62.232  38.979  68.421  0.00  0.00    +0.000 A 
ATOM     34  C   UNL     1      63.590  38.828  68.246  0.00  0.00    +0.000 A 
ATOM     35  C   UNL     1      61.829  40.041  69.400  0.00  0.00    +0.000 A 
ATOM     36  C   UNL     1      64.140  40.502  69.732  0.00  0.00    +0.000 A 
ATOM     37  H   UNL     1      64.964  38.166  66.944  0.00  0.00    +0.000 HD
ATOM     38  H   UNL     1      62.562  41.440  70.656  0.00  0.00    +0.000 HD
ATOM     39  H   UNL     1      65.991  40.942  70.263  0.00  0.00    +0.000 HD
ATOM     40  H   UNL     1      64.828  41.522  71.338  0.00  0.00    +0.000 HD
BRANCH  26  42
ATOM     41  O   UNL     1      58.764  38.591  68.097  0.00  0.00    +0.000 OA
ATOM     42  C   UNL     1      59.915  38.400  67.953  0.00  0.00    +0.000 C 
ENDBRANCH  26  42
ENDBRANCH  24  31
ENDBRANCH   1  24
TORSDOF 10
ENDMDL
MODEL 7
REMARK VINA RESULT:      -6.3      1.667      2.203
REMARK  Name = 135403648_CalciumFolinate.pdbqt.pdb
REMARK  10 active torsions:
REMARK  status: ('A' for Active; 'I' for Inactive)
REMARK    1  A    between atoms: N_1  and  C_3
REMARK    2  A    between atoms: N_1  and  C_24
REMARK    3  A    between atoms: C_6  and  C_11
REMARK    4  A    between atoms: CA_13  and  C_15
REMARK    5  A    between atoms: CA_13  and  CB_18
REMARK    6  A    between atoms: C_15  and  O_16
REMARK    7  A    between atoms: CG_19  and  CD_21
REMARK    8  A    between atoms: CD_21  and  OE1_22
REMARK    9  A    between atoms: C_24  and  C_32
REMARK   10  A    between atoms: N_27  and  C_37
REMARK                            x       y       z     vdW  Elec       q    Type
REMARK                         _______ _______ _______ _____ _____    ______ ____
ROOT
ATOM      1  N   UNL     1      59.687  35.743  64.722  0.00  0.00    +0.000 N 
ATOM      2  H   UNL     1      60.166  34.892  64.428  0.00  0.00    +0.000 HD
ENDROOT
BRANCH   1   3
ATOM      3  C   UNL     1      58.341  35.768  64.300  0.00  0.00    +0.000 A 
ATOM      4  C   UNL     1      57.756  36.993  63.966  0.00  0.00    +0.000 A 
ATOM      5  C   UNL     1      57.516  34.641  64.373  0.00  0.00    +0.000 A 
ATOM      6  C   UNL     1      55.602  35.940  63.677  0.00  0.00    +0.000 A 
ATOM      7  C   UNL     1      56.402  37.079  63.642  0.00  0.00    +0.000 A 
ATOM      8  C   UNL     1      56.163  34.718  64.050  0.00  0.00    +0.000 A 
BRANCH   6  11
ATOM      9  O   UNL     1      53.808  35.623  62.217  0.00  0.00    +0.000 OA
ATOM     10  N   UNL     1      53.310  36.429  64.330  0.00  0.00    +0.000 N 
ATOM     11  C   ACE A   0      54.158  35.980  63.336  0.00  0.00    +0.000 C 
ATOM     12  H   UNL     1      53.696  36.709  65.228  0.00  0.00    +0.000 HD
ATOM     13  CA  UNL     1      51.934  36.560  64.257  0.00  0.00    +0.000 C 
BRANCH  13  15
ATOM     14  OXT UNL     1      51.309  38.242  65.836  0.00  0.00    +0.000 OA
ATOM     15  C   UNL     1      51.269  37.074  65.479  0.00  0.00    +0.000 C 
BRANCH  15  16
ATOM     16  O   UNL     1      50.605  36.140  66.178  0.00  0.00    +0.000 OA
ATOM     17  H   UNL     1      50.464  35.405  65.546  0.00  0.00    +0.000 HD
ENDBRANCH  15  16
ENDBRANCH  13  15
BRANCH  13  18
ATOM     18  CB  UNL     1      51.202  36.224  63.088  0.00  0.00    +0.000 C 
ATOM     19  CG  UNL     1      50.411  35.872  61.823  0.00  0.00    +0.000 C 
BRANCH  19  21
ATOM     20  OE2 UNL     1      50.176  35.494  59.529  0.00  0.00    +0.000 OA
ATOM     21  CD  UNL     1      49.673  35.562  60.636  0.00  0.00    +0.000 C 
BRANCH  21  22
ATOM     22  OE1 UNL     1      48.358  35.370  60.842  0.00  0.00    +0.000 OA
ATOM     23  HE1 UNL     1      48.290  35.295  61.816  0.00  0.00    +0.000 HD
ENDBRANCH  21  22
ENDBRANCH  19  21
ENDBRANCH  13  18
ENDBRANCH   6  11
ENDBRANCH   1   3
BRANCH   1  24
ATOM     24  C   UNL     1      60.010  36.226  66.059  0.00  0.00    +0.000 C 
BRANCH  24  31
ATOM     25  O   UNL     1      62.594  40.291  68.175  0.00  0.00    +0.000 OA
ATOM     26  N   UNL     1      60.998  37.951  67.524  0.00  0.00    +0.000 N 
ATOM     27  N   UNL     1      60.143  36.531  69.925  0.00  0.00    +0.000 N 
ATOM     28  N   UNL     1      61.336  38.069  71.256  0.00  0.00    +0.000 NA
ATOM     29  N   UNL     1      62.376  39.936  70.372  0.00  0.00    +0.000 N 
ATOM     30  N   UNL     1      62.391  39.565  72.644  0.00  0.00    +0.000 N 
ATOM     31  C   UNL     1      60.329  36.745  67.342  0.00  0.00    +0.000 C 
ATOM     32  C   UNL     1      59.994  36.133  68.560  0.00  0.00    +0.000 C 
ATOM     33  C   UNL     1      61.312  38.363  68.849  0.00  0.00    +0.000 A 
ATOM     34  C   UNL     1      60.943  37.687  69.991  0.00  0.00    +0.000 A 
ATOM     35  C   UNL     1      62.132  39.598  69.076  0.00  0.00    +0.000 A 
ATOM     36  C   UNL     1      62.013  39.155  71.411  0.00  0.00    +0.000 A 
ATOM     37  H   UNL     1      60.392  35.879  70.663  0.00  0.00    +0.000 HD
ATOM     38  H   UNL     1      62.966  40.740  70.515  0.00  0.00    +0.000 HD
ATOM     39  H   UNL     1      61.912  39.055  73.381  0.00  0.00    +0.000 HD
ATOM     40  H   UNL     1      62.405  40.563  72.809  0.00  0.00    +0.000 HD
BRANCH  26  42
ATOM     41  O   UNL     1      61.601  39.297  65.475  0.00  0.00    +0.000 OA
ATOM     42  C   UNL     1      61.358  38.663  66.434  0.00  0.00    +0.000 C 
ENDBRANCH  26  42
ENDBRANCH  24  31
ENDBRANCH   1  24
TORSDOF 10
ENDMDL
MODEL 8
REMARK VINA RESULT:      -6.1     14.059     15.456
REMARK  Name = 135403648_CalciumFolinate.pdbqt.pdb
REMARK  10 active torsions:
REMARK  status: ('A' for Active; 'I' for Inactive)
REMARK    1  A    between atoms: N_1  and  C_3
REMARK    2  A    between atoms: N_1  and  C_24
REMARK    3  A    between atoms: C_6  and  C_11
REMARK    4  A    between atoms: CA_13  and  C_15
REMARK    5  A    between atoms: CA_13  and  CB_18
REMARK    6  A    between atoms: C_15  and  O_16
REMARK    7  A    between atoms: CG_19  and  CD_21
REMARK    8  A    between atoms: CD_21  and  OE1_22
REMARK    9  A    between atoms: C_24  and  C_32
REMARK   10  A    between atoms: N_27  and  C_37
REMARK                            x       y       z     vdW  Elec       q    Type
REMARK                         _______ _______ _______ _____ _____    ______ ____
ROOT
ATOM      1  N   UNL     1      63.582  47.390  53.996  0.00  0.00    +0.000 N 
ATOM      2  H   UNL     1      64.570  47.543  53.796  0.00  0.00    +0.000 HD
ENDROOT
BRANCH   1   3
ATOM      3  C   UNL     1      63.281  46.024  54.180  0.00  0.00    +0.000 A 
ATOM      4  C   UNL     1      64.317  45.086  54.131  0.00  0.00    +0.000 A 
ATOM      5  C   UNL     1      61.965  45.551  54.229  0.00  0.00    +0.000 A 
ATOM      6  C   UNL     1      62.741  43.265  54.299  0.00  0.00    +0.000 A 
ATOM      7  C   UNL     1      64.054  43.719  54.206  0.00  0.00    +0.000 A 
ATOM      8  C   UNL     1      61.694  44.186  54.305  0.00  0.00    +0.000 A 
BRANCH   6  11
ATOM      9  O   UNL     1      62.386  41.288  55.489  0.00  0.00    +0.000 OA
ATOM     10  N   UNL     1      62.158  41.180  53.186  0.00  0.00    +0.000 N 
ATOM     11  C   ACE A   0      62.412  41.820  54.385  0.00  0.00    +0.000 C 
ATOM     12  H   UNL     1      62.209  41.708  52.318  0.00  0.00    +0.000 HD
ATOM     13  CA  UNL     1      61.834  39.847  53.004  0.00  0.00    +0.000 C 
BRANCH  13  15
ATOM     14  OXT UNL     1      62.062  38.388  51.125  0.00  0.00    +0.000 OA
ATOM     15  C   UNL     1      61.616  39.423  51.600  0.00  0.00    +0.000 C 
BRANCH  15  16
ATOM     16  O   UNL     1      60.876  40.275  50.875  0.00  0.00    +0.000 OA
ATOM     17  H   UNL     1      60.041  40.375  51.379  0.00  0.00    +0.000 HD
ENDBRANCH  15  16
ENDBRANCH  13  15
BRANCH  13  18
ATOM     18  CB  UNL     1      61.714  38.941  54.090  0.00  0.00    +0.000 C 
ATOM     19  CG  UNL     1      61.597  37.958  55.261  0.00  0.00    +0.000 C 
BRANCH  19  21
ATOM     20  OE2 UNL     1      61.987  35.917  56.330  0.00  0.00    +0.000 OA
ATOM     21  CD  UNL     1      61.505  37.036  56.352  0.00  0.00    +0.000 C 
BRANCH  21  22
ATOM     22  OE1 UNL     1      60.817  37.503  57.409  0.00  0.00    +0.000 OA
ATOM     23  HE1 UNL     1      60.286  38.232  57.028  0.00  0.00    +0.000 HD
ENDBRANCH  21  22
ENDBRANCH  19  21
ENDBRANCH  13  18
ENDBRANCH   6  11
ENDBRANCH   1   3
BRANCH   1  24
ATOM     24  C   UNL     1      62.951  48.369  54.874  0.00  0.00    +0.000 C 
BRANCH  24  31
ATOM     25  O   UNL     1      64.028  50.999  59.301  0.00  0.00    +0.000 OA
ATOM     26  N   UNL     1      63.009  49.899  56.810  0.00  0.00    +0.000 N 
ATOM     27  N   UNL     1      60.375  50.971  56.160  0.00  0.00    +0.000 N 
ATOM     28  N   UNL     1      60.384  52.206  58.169  0.00  0.00    +0.000 NA
ATOM     29  N   UNL     1      62.224  52.292  59.568  0.00  0.00    +0.000 N 
ATOM     30  N   UNL     1      60.336  53.516  60.055  0.00  0.00    +0.000 N 
ATOM     31  C   UNL     1      62.362  49.359  55.704  0.00  0.00    +0.000 C 
ATOM     32  C   UNL     1      61.092  49.923  55.503  0.00  0.00    +0.000 C 
ATOM     33  C   UNL     1      62.318  50.853  57.607  0.00  0.00    +0.000 A 
ATOM     34  C   UNL     1      61.061  51.345  57.331  0.00  0.00    +0.000 A 
ATOM     35  C   UNL     1      62.941  51.370  58.870  0.00  0.00    +0.000 A 
ATOM     36  C   UNL     1      60.968  52.651  59.228  0.00  0.00    +0.000 A 
ATOM     37  H   UNL     1      59.374  50.931  56.327  0.00  0.00    +0.000 HD
ATOM     38  H   UNL     1      62.627  52.599  60.439  0.00  0.00    +0.000 HD
ATOM     39  H   UNL     1      59.493  53.900  59.636  0.00  0.00    +0.000 HD
ATOM     40  H   UNL     1      60.905  54.223  60.500  0.00  0.00    +0.000 HD
BRANCH  26  42
ATOM     41  O   UNL     1      65.363  49.157  57.347  0.00  0.00    +0.000 OA
ATOM     42  C   UNL     1      64.254  49.467  57.107  0.00  0.00    +0.000 C 
ENDBRANCH  26  42
ENDBRANCH  24  31
ENDBRANCH   1  24
TORSDOF 10
ENDMDL
MODEL 9
REMARK VINA RESULT:      -6.1      2.632      4.094
REMARK  Name = 135403648_CalciumFolinate.pdbqt.pdb
REMARK  10 active torsions:
REMARK  status: ('A' for Active; 'I' for Inactive)
REMARK    1  A    between atoms: N_1  and  C_3
REMARK    2  A    between atoms: N_1  and  C_24
REMARK    3  A    between atoms: C_6  and  C_11
REMARK    4  A    between atoms: CA_13  and  C_15
REMARK    5  A    between atoms: CA_13  and  CB_18
REMARK    6  A    between atoms: C_15  and  O_16
REMARK    7  A    between atoms: CG_19  and  CD_21
REMARK    8  A    between atoms: CD_21  and  OE1_22
REMARK    9  A    between atoms: C_24  and  C_32
REMARK   10  A    between atoms: N_27  and  C_37
REMARK                            x       y       z     vdW  Elec       q    Type
REMARK                         _______ _______ _______ _____ _____    ______ ____
ROOT
ATOM      1  N   UNL     1      55.268  36.561  66.879  0.00  0.00    +0.000 N 
ATOM      2  H   UNL     1      54.713  37.106  67.537  0.00  0.00    +0.000 HD
ENDROOT
BRANCH   1   3
ATOM      3  C   UNL     1      54.624  36.417  65.632  0.00  0.00    +0.000 A 
ATOM      4  C   UNL     1      53.237  36.248  65.597  0.00  0.00    +0.000 A 
ATOM      5  C   UNL     1      55.339  36.258  64.438  0.00  0.00    +0.000 A 
ATOM      6  C   UNL     1      53.293  35.889  63.209  0.00  0.00    +0.000 A 
ATOM      7  C   UNL     1      52.573  36.002  64.395  0.00  0.00    +0.000 A 
ATOM      8  C   UNL     1      54.682  36.013  63.234  0.00  0.00    +0.000 A 
BRANCH   6  11
ATOM      9  O   UNL     1      53.329  35.463  60.914  0.00  0.00    +0.000 OA
ATOM     10  N   UNL     1      51.248  35.606  61.921  0.00  0.00    +0.000 N 
ATOM     11  C   ACE A   0      52.629  35.632  61.906  0.00  0.00    +0.000 C 
ATOM     12  H   UNL     1      50.754  35.762  62.796  0.00  0.00    +0.000 HD
ATOM     13  CA  UNL     1      50.406  35.389  60.844  0.00  0.00    +0.000 C 
BRANCH  13  15
ATOM     14  OXT UNL     1      48.298  34.428  61.431  0.00  0.00    +0.000 OA
ATOM     15  C   UNL     1      48.954  35.419  61.144  0.00  0.00    +0.000 C 
BRANCH  15  16
ATOM     16  O   UNL     1      48.403  36.640  61.078  0.00  0.00    +0.000 OA
ATOM     17  H   UNL     1      48.548  36.932  60.155  0.00  0.00    +0.000 HD
ENDBRANCH  15  16
ENDBRANCH  13  15
BRANCH  13  18
ATOM     18  CB  UNL     1      50.897  35.153  59.533  0.00  0.00    +0.000 C 
ATOM     19  CG  UNL     1      51.436  34.889  58.122  0.00  0.00    +0.000 C 
BRANCH  19  21
ATOM     20  OE2 UNL     1      51.386  33.923  55.995  0.00  0.00    +0.000 OA
ATOM     21  CD  UNL     1      51.950  34.629  56.812  0.00  0.00    +0.000 C 
BRANCH  21  22
ATOM     22  OE1 UNL     1      53.132  35.219  56.560  0.00  0.00    +0.000 OA
ATOM     23  HE1 UNL     1      53.219  35.871  57.285  0.00  0.00    +0.000 HD
ENDBRANCH  21  22
ENDBRANCH  19  21
ENDBRANCH  13  18
ENDBRANCH   6  11
ENDBRANCH   1   3
BRANCH   1  24
ATOM     24  C   UNL     1      56.705  36.807  66.900  0.00  0.00    +0.000 C 
BRANCH  24  31
ATOM     25  O   UNL     1      61.239  34.675  65.297  0.00  0.00    +0.000 OA
ATOM     26  N   UNL     1      59.048  36.287  66.322  0.00  0.00    +0.000 N 
ATOM     27  N   UNL     1      60.020  38.635  67.755  0.00  0.00    +0.000 N 
ATOM     28  N   UNL     1      62.242  37.933  67.394  0.00  0.00    +0.000 NA
ATOM     29  N   UNL     1      62.771  36.101  66.085  0.00  0.00    +0.000 N 
ATOM     30  N   UNL     1      64.440  37.383  67.018  0.00  0.00    +0.000 N 
ATOM     31  C   UNL     1      58.098  37.074  66.964  0.00  0.00    +0.000 C 
ATOM     32  C   UNL     1      58.677  38.155  67.647  0.00  0.00    +0.000 C 
ATOM     33  C   UNL     1      60.424  36.609  66.484  0.00  0.00    +0.000 A 
ATOM     34  C   UNL     1      60.900  37.696  67.185  0.00  0.00    +0.000 A 
ATOM     35  C   UNL     1      61.479  35.716  65.901  0.00  0.00    +0.000 A 
ATOM     36  C   UNL     1      63.116  37.160  66.848  0.00  0.00    +0.000 A 
ATOM     37  H   UNL     1      60.402  39.008  68.618  0.00  0.00    +0.000 HD
ATOM     38  H   UNL     1      63.474  35.472  65.732  0.00  0.00    +0.000 HD
ATOM     39  H   UNL     1      64.626  38.299  67.418  0.00  0.00    +0.000 HD
ATOM     40  H   UNL     1      65.044  37.173  66.234  0.00  0.00    +0.000 HD
BRANCH  26  42
ATOM     41  O   UNL     1      58.236  34.272  65.034  0.00  0.00    +0.000 OA
ATOM     42  C   UNL     1      58.629  35.224  65.601  0.00  0.00    +0.000 C 
ENDBRANCH  26  42
ENDBRANCH  24  31
ENDBRANCH   1  24
TORSDOF 10
ENDMDL
