MODEL 1
REMARK VINA RESULT:      -6.6      0.000      0.000
REMARK  Name = 135423438_Nintedanib.pdbqt.pdb
REMARK  9 active torsions:
REMARK  status: ('A' for Active; 'I' for Inactive)
REMARK    1  A    between atoms: N_1  and  C_22
REMARK    2  A    between atoms: C_2  and  C_4
REMARK    3  A    between atoms: C_2  and  C_37
REMARK    4  A    between atoms: C_7  and  O_13
REMARK    5  A    between atoms: C_10  and  C_16
REMARK    6  A    between atoms: C_16  and  O_17
REMARK    7  A    between atoms: C_19  and  N_26
REMARK    8  A    between atoms: C_27  and  C_29
REMARK    9  A    between atoms: C_29  and  N_30
REMARK                            x       y       z     vdW  Elec       q    Type
REMARK                         _______ _______ _______ _____ _____    ______ ____
ROOT
ATOM      1  N   UNL     1      52.355  61.045  81.691  0.00  0.00    +0.000 NA
ATOM      2  C   UNL     1      52.706  59.820  81.427  0.00  0.00    +0.000 C 
ENDROOT
BRANCH   2   4
ATOM      3  N   UNL     1      50.297  58.341  79.097  0.00  0.00    +0.000 N 
ATOM      4  C   UNL     1      51.750  59.012  80.660  0.00  0.00    +0.000 A 
ATOM      5  C   UNL     1      51.271  57.695  80.990  0.00  0.00    +0.000 A 
ATOM      6  C   UNL     1      50.373  57.308  79.998  0.00  0.00    +0.000 A 
ATOM      7  C   UNL     1      51.113  59.375  79.480  0.00  0.00    +0.000 A 
ATOM      8  C   UNL     1      51.527  56.793  82.043  0.00  0.00    +0.000 A 
ATOM      9  C   UNL     1      49.715  56.073  80.003  0.00  0.00    +0.000 A 
ATOM     10  C   UNL     1      49.988  55.201  81.065  0.00  0.00    +0.000 A 
ATOM     11  C   UNL     1      50.882  55.555  82.070  0.00  0.00    +0.000 A 
ATOM     12  H   UNL     1      49.713  58.330  78.274  0.00  0.00    +0.000 HD
BRANCH   7  13
ATOM     13  O   UNL     1      51.192  60.493  78.768  0.00  0.00    +0.000 OA
ATOM     14  H   UNL     1      50.633  61.190  79.156  0.00  0.00    +0.000 HD
ENDBRANCH   7  13
BRANCH  10  16
ATOM     15  O   UNL     1      48.431  53.534  80.411  0.00  0.00    +0.000 OA
ATOM     16  C   UNL     1      49.340  53.874  81.154  0.00  0.00    +0.000 C 
BRANCH  16  17
ATOM     17  O   UNL     1      49.928  53.169  82.161  0.00  0.00    +0.000 OA
ATOM     18  C   UNL     1      49.457  51.872  82.424  0.00  0.00    +0.000 C 
ENDBRANCH  16  17
ENDBRANCH  10  16
ENDBRANCH   2   4
BRANCH   1  22
ATOM     19  C   UNL     1      54.818  63.671  83.914  0.00  0.00    +0.000 A 
ATOM     20  C   UNL     1      55.128  63.313  82.600  0.00  0.00    +0.000 A 
ATOM     21  C   UNL     1      53.654  63.121  84.468  0.00  0.00    +0.000 A 
ATOM     22  C   UNL     1      53.185  61.883  82.446  0.00  0.00    +0.000 A 
ATOM     23  C   UNL     1      54.324  62.441  81.868  0.00  0.00    +0.000 A 
ATOM     24  C   UNL     1      52.841  62.249  83.746  0.00  0.00    +0.000 A 
BRANCH  19  26
ATOM     25  O   UNL     1      55.011  66.531  83.509  0.00  0.00    +0.000 OA
ATOM     26  N   UNL     1      55.653  64.569  84.680  0.00  0.00    +0.000 N 
ATOM     27  C   UNL     1      55.656  65.954  84.378  0.00  0.00    +0.000 C 
ATOM     28  C   UNL     1      56.453  63.934  85.731  0.00  0.00    +0.000 C 
BRANCH  27  29
ATOM     29  C   UNL     1      56.529  66.793  85.187  0.00  0.00    +0.000 C 
BRANCH  29  30
ATOM     30  N   UNL     1      57.382  67.655  86.003  0.00  0.00    +0.000 N 
ATOM     31  N   UNL     1      57.804  70.967  84.796  0.00  0.00    +0.000 N 
ATOM     32  C   UNL     1      58.384  68.262  85.084  0.00  0.00    +0.000 C 
ATOM     33  C   UNL     1      56.613  68.909  86.240  0.00  0.00    +0.000 C 
ATOM     34  C   UNL     1      58.568  69.713  84.553  0.00  0.00    +0.000 C 
ATOM     35  C   UNL     1      56.797  70.360  85.707  0.00  0.00    +0.000 C 
ATOM     36  C   UNL     1      57.113  71.287  83.555  0.00  0.00    +0.000 C 
ENDBRANCH  29  30
ENDBRANCH  27  29
ENDBRANCH  19  26
ENDBRANCH   1  22
BRANCH   2  37
ATOM     37  C   UNL     1      53.976  59.198  81.843  0.00  0.00    +0.000 A 
ATOM     38  C   UNL     1      54.966  58.957  80.892  0.00  0.00    +0.000 A 
ATOM     39  C   UNL     1      54.175  58.894  83.189  0.00  0.00    +0.000 A 
ATOM     40  C   UNL     1      56.172  58.395  81.297  0.00  0.00    +0.000 A 
ATOM     41  C   UNL     1      55.384  58.331  83.583  0.00  0.00    +0.000 A 
ATOM     42  C   UNL     1      56.381  58.082  82.639  0.00  0.00    +0.000 A 
ENDBRANCH   2  37
TORSDOF 9
ENDMDL
MODEL 2
REMARK VINA RESULT:      -6.6     16.991     21.207
REMARK  Name = 135423438_Nintedanib.pdbqt.pdb
REMARK  9 active torsions:
REMARK  status: ('A' for Active; 'I' for Inactive)
REMARK    1  A    between atoms: N_1  and  C_22
REMARK    2  A    between atoms: C_2  and  C_4
REMARK    3  A    between atoms: C_2  and  C_37
REMARK    4  A    between atoms: C_7  and  O_13
REMARK    5  A    between atoms: C_10  and  C_16
REMARK    6  A    between atoms: C_16  and  O_17
REMARK    7  A    between atoms: C_19  and  N_26
REMARK    8  A    between atoms: C_27  and  C_29
REMARK    9  A    between atoms: C_29  and  N_30
REMARK                            x       y       z     vdW  Elec       q    Type
REMARK                         _______ _______ _______ _____ _____    ______ ____
ROOT
ATOM      1  N   UNL     1      61.787  67.953  65.948  0.00  0.00    +0.000 NA
ATOM      2  C   UNL     1      62.187  68.262  67.148  0.00  0.00    +0.000 C 
ENDROOT
BRANCH   2   4
ATOM      3  N   UNL     1      64.680  70.939  67.349  0.00  0.00    +0.000 N 
ATOM      4  C   UNL     1      63.367  69.131  67.244  0.00  0.00    +0.000 A 
ATOM      5  C   UNL     1      64.743  68.716  67.327  0.00  0.00    +0.000 A 
ATOM      6  C   UNL     1      65.531  69.863  67.394  0.00  0.00    +0.000 A 
ATOM      7  C   UNL     1      63.377  70.520  67.255  0.00  0.00    +0.000 A 
ATOM      8  C   UNL     1      65.389  67.463  67.358  0.00  0.00    +0.000 A 
ATOM      9  C   UNL     1      66.926  69.826  67.485  0.00  0.00    +0.000 A 
ATOM     10  C   UNL     1      67.538  68.566  67.510  0.00  0.00    +0.000 A 
ATOM     11  C   UNL     1      66.781  67.402  67.449  0.00  0.00    +0.000 A 
ATOM     12  H   UNL     1      64.984  71.901  67.378  0.00  0.00    +0.000 HD
BRANCH   7  13
ATOM     13  O   UNL     1      62.375  71.390  67.182  0.00  0.00    +0.000 OA
ATOM     14  H   UNL     1      61.804  71.326  67.967  0.00  0.00    +0.000 HD
ENDBRANCH   7  13
BRANCH  10  16
ATOM     15  O   UNL     1      69.570  68.058  68.625  0.00  0.00    +0.000 OA
ATOM     16  C   UNL     1      69.008  68.430  67.605  0.00  0.00    +0.000 C 
BRANCH  16  17
ATOM     17  O   UNL     1      69.557  68.779  66.408  0.00  0.00    +0.000 OA
ATOM     18  C   UNL     1      69.975  67.753  65.545  0.00  0.00    +0.000 C 
ENDBRANCH  16  17
ENDBRANCH  10  16
ENDBRANCH   2   4
BRANCH   1  22
ATOM     19  C   UNL     1      58.460  65.432  65.256  0.00  0.00    +0.000 A 
ATOM     20  C   UNL     1      58.300  66.762  65.653  0.00  0.00    +0.000 A 
ATOM     21  C   UNL     1      59.772  64.966  65.097  0.00  0.00    +0.000 A 
ATOM     22  C   UNL     1      60.692  67.102  65.755  0.00  0.00    +0.000 A 
ATOM     23  C   UNL     1      59.394  67.593  65.890  0.00  0.00    +0.000 A 
ATOM     24  C   UNL     1      60.874  65.787  65.331  0.00  0.00    +0.000 A 
BRANCH  19  26
ATOM     25  O   UNL     1      57.321  63.595  67.182  0.00  0.00    +0.000 OA
ATOM     26  N   UNL     1      57.329  64.565  65.016  0.00  0.00    +0.000 N 
ATOM     27  C   UNL     1      56.868  63.709  66.047  0.00  0.00    +0.000 C 
ATOM     28  C   UNL     1      56.748  64.653  63.672  0.00  0.00    +0.000 C 
BRANCH  27  29
ATOM     29  C   UNL     1      55.729  62.859  65.727  0.00  0.00    +0.000 C 
BRANCH  29  30
ATOM     30  N   UNL     1      54.605  61.989  65.390  0.00  0.00    +0.000 N 
ATOM     31  N   UNL     1      51.855  62.113  67.632  0.00  0.00    +0.000 N 
ATOM     32  C   UNL     1      54.281  61.209  66.616  0.00  0.00    +0.000 C 
ATOM     33  C   UNL     1      53.384  62.843  65.426  0.00  0.00    +0.000 C 
ATOM     34  C   UNL     1      53.078  61.265  67.601  0.00  0.00    +0.000 C 
ATOM     35  C   UNL     1      52.181  62.899  66.411  0.00  0.00    +0.000 C 
ATOM     36  C   UNL     1      51.996  63.015  68.766  0.00  0.00    +0.000 C 
ENDBRANCH  29  30
ENDBRANCH  27  29
ENDBRANCH  19  26
ENDBRANCH   1  22
BRANCH   2  37
ATOM     37  C   UNL     1      61.550  67.803  68.395  0.00  0.00    +0.000 A 
ATOM     38  C   UNL     1      61.684  66.471  68.784  0.00  0.00    +0.000 A 
ATOM     39  C   UNL     1      60.852  68.721  69.179  0.00  0.00    +0.000 A 
ATOM     40  C   UNL     1      61.101  66.053  69.976  0.00  0.00    +0.000 A 
ATOM     41  C   UNL     1      60.273  68.291  70.368  0.00  0.00    +0.000 A 
ATOM     42  C   UNL     1      60.397  66.960  70.766  0.00  0.00    +0.000 A 
ENDBRANCH   2  37
TORSDOF 9
ENDMDL
MODEL 3
REMARK VINA RESULT:      -6.4     27.830     30.500
REMARK  Name = 135423438_Nintedanib.pdbqt.pdb
REMARK  9 active torsions:
REMARK  status: ('A' for Active; 'I' for Inactive)
REMARK    1  A    between atoms: N_1  and  C_22
REMARK    2  A    between atoms: C_2  and  C_4
REMARK    3  A    between atoms: C_2  and  C_37
REMARK    4  A    between atoms: C_7  and  O_13
REMARK    5  A    between atoms: C_10  and  C_16
REMARK    6  A    between atoms: C_16  and  O_17
REMARK    7  A    between atoms: C_19  and  N_26
REMARK    8  A    between atoms: C_27  and  C_29
REMARK    9  A    between atoms: C_29  and  N_30
REMARK                            x       y       z     vdW  Elec       q    Type
REMARK                         _______ _______ _______ _____ _____    ______ ____
ROOT
ATOM      1  N   UNL     1      66.220  48.834  57.548  0.00  0.00    +0.000 NA
ATOM      2  C   UNL     1      65.845  48.351  56.399  0.00  0.00    +0.000 C 
ENDROOT
BRANCH   2   4
ATOM      3  N   UNL     1      68.158  45.660  55.486  0.00  0.00    +0.000 N 
ATOM      4  C   UNL     1      66.551  47.152  55.928  0.00  0.00    +0.000 A 
ATOM      5  C   UNL     1      65.983  46.039  55.213  0.00  0.00    +0.000 A 
ATOM      6  C   UNL     1      67.008  45.130  54.957  0.00  0.00    +0.000 A 
ATOM      7  C   UNL     1      67.905  46.876  56.069  0.00  0.00    +0.000 A 
ATOM      8  C   UNL     1      64.684  45.720  54.767  0.00  0.00    +0.000 A 
ATOM      9  C   UNL     1      66.806  43.925  54.276  0.00  0.00    +0.000 A 
ATOM     10  C   UNL     1      65.505  43.639  53.842  0.00  0.00    +0.000 A 
ATOM     11  C   UNL     1      64.459  44.523  54.085  0.00  0.00    +0.000 A 
ATOM     12  H   UNL     1      69.060  45.210  55.440  0.00  0.00    +0.000 HD
BRANCH   7  13
ATOM     13  O   UNL     1      68.875  47.586  56.635  0.00  0.00    +0.000 OA
ATOM     14  H   UNL     1      69.747  47.203  56.432  0.00  0.00    +0.000 HD
ENDBRANCH   7  13
BRANCH  10  16
ATOM     15  O   UNL     1      65.597  42.171  51.980  0.00  0.00    +0.000 OA
ATOM     16  C   UNL     1      65.197  42.389  53.114  0.00  0.00    +0.000 C 
BRANCH  16  17
ATOM     17  O   UNL     1      64.432  41.595  53.916  0.00  0.00    +0.000 OA
ATOM     18  C   UNL     1      64.102  40.310  53.455  0.00  0.00    +0.000 C 
ENDBRANCH  16  17
ENDBRANCH  10  16
ENDBRANCH   2   4
BRANCH   1  22
ATOM     19  C   UNL     1      64.373  52.351  59.007  0.00  0.00    +0.000 A 
ATOM     20  C   UNL     1      65.424  52.404  58.089  0.00  0.00    +0.000 A 
ATOM     21  C   UNL     1      63.955  51.081  59.427  0.00  0.00    +0.000 A 
ATOM     22  C   UNL     1      65.629  49.994  58.064  0.00  0.00    +0.000 A 
ATOM     23  C   UNL     1      66.041  51.247  57.613  0.00  0.00    +0.000 A 
ATOM     24  C   UNL     1      64.563  49.918  58.958  0.00  0.00    +0.000 A 
BRANCH  19  26
ATOM     25  O   UNL     1      65.567  54.234  60.853  0.00  0.00    +0.000 OA
ATOM     26  N   UNL     1      63.735  53.547  59.509  0.00  0.00    +0.000 N 
ATOM     27  C   UNL     1      64.432  54.388  60.413  0.00  0.00    +0.000 C 
ATOM     28  C   UNL     1      62.373  53.781  59.021  0.00  0.00    +0.000 C 
BRANCH  27  29
ATOM     29  C   UNL     1      63.722  55.570  60.881  0.00  0.00    +0.000 C 
BRANCH  29  30
ATOM     30  N   UNL     1      63.009  56.745  61.378  0.00  0.00    +0.000 N 
ATOM     31  N   UNL     1      59.897  57.417  59.808  0.00  0.00    +0.000 N 
ATOM     32  C   UNL     1      62.648  57.564  60.188  0.00  0.00    +0.000 C 
ATOM     33  C   UNL     1      61.621  56.299  61.683  0.00  0.00    +0.000 C 
ATOM     34  C   UNL     1      61.284  57.857  59.497  0.00  0.00    +0.000 C 
ATOM     35  C   UNL     1      60.257  56.591  60.992  0.00  0.00    +0.000 C 
ATOM     36  C   UNL     1      59.501  56.494  58.753  0.00  0.00    +0.000 C 
ENDBRANCH  29  30
ENDBRANCH  27  29
ENDBRANCH  19  26
ENDBRANCH   1  22
BRANCH   2  37
ATOM     37  C   UNL     1      64.782  48.918  55.550  0.00  0.00    +0.000 A 
ATOM     38  C   UNL     1      65.126  49.625  54.400  0.00  0.00    +0.000 A 
ATOM     39  C   UNL     1      63.449  48.705  55.899  0.00  0.00    +0.000 A 
ATOM     40  C   UNL     1      64.116  50.135  53.590  0.00  0.00    +0.000 A 
ATOM     41  C   UNL     1      62.447  49.219  55.083  0.00  0.00    +0.000 A 
ATOM     42  C   UNL     1      62.779  49.932  53.931  0.00  0.00    +0.000 A 
ENDBRANCH   2  37
TORSDOF 9
ENDMDL
MODEL 4
REMARK VINA RESULT:      -6.3     16.769     21.130
REMARK  Name = 135423438_Nintedanib.pdbqt.pdb
REMARK  9 active torsions:
REMARK  status: ('A' for Active; 'I' for Inactive)
REMARK    1  A    between atoms: N_1  and  C_22
REMARK    2  A    between atoms: C_2  and  C_4
REMARK    3  A    between atoms: C_2  and  C_37
REMARK    4  A    between atoms: C_7  and  O_13
REMARK    5  A    between atoms: C_10  and  C_16
REMARK    6  A    between atoms: C_16  and  O_17
REMARK    7  A    between atoms: C_19  and  N_26
REMARK    8  A    between atoms: C_27  and  C_29
REMARK    9  A    between atoms: C_29  and  N_30
REMARK                            x       y       z     vdW  Elec       q    Type
REMARK                         _______ _______ _______ _____ _____    ______ ____
ROOT
ATOM      1  N   UNL     1      61.348  67.352  66.380  0.00  0.00    +0.000 NA
ATOM      2  C   UNL     1      61.531  68.095  67.434  0.00  0.00    +0.000 C 
ENDROOT
BRANCH   2   4
ATOM      3  N   UNL     1      64.052  70.752  67.420  0.00  0.00    +0.000 N 
ATOM      4  C   UNL     1      62.721  68.955  67.435  0.00  0.00    +0.000 A 
ATOM      5  C   UNL     1      64.096  68.528  67.428  0.00  0.00    +0.000 A 
ATOM      6  C   UNL     1      64.895  69.669  67.422  0.00  0.00    +0.000 A 
ATOM      7  C   UNL     1      62.743  70.343  67.424  0.00  0.00    +0.000 A 
ATOM      8  C   UNL     1      64.733  67.270  67.433  0.00  0.00    +0.000 A 
ATOM      9  C   UNL     1      66.293  69.621  67.416  0.00  0.00    +0.000 A 
ATOM     10  C   UNL     1      66.896  68.356  67.418  0.00  0.00    +0.000 A 
ATOM     11  C   UNL     1      66.127  67.198  67.428  0.00  0.00    +0.000 A 
ATOM     12  H   UNL     1      64.366  71.711  67.413  0.00  0.00    +0.000 HD
BRANCH   7  13
ATOM     13  O   UNL     1      61.745  71.221  67.406  0.00  0.00    +0.000 OA
ATOM     14  H   UNL     1      60.898  70.785  67.606  0.00  0.00    +0.000 HD
ENDBRANCH   7  13
BRANCH  10  16
ATOM     15  O   UNL     1      68.952  67.466  66.637  0.00  0.00    +0.000 OA
ATOM     16  C   UNL     1      68.367  68.208  67.413  0.00  0.00    +0.000 C 
BRANCH  16  17
ATOM     17  O   UNL     1      68.890  69.011  68.382  0.00  0.00    +0.000 OA
ATOM     18  C   UNL     1      69.942  69.873  68.032  0.00  0.00    +0.000 C 
ENDBRANCH  16  17
ENDBRANCH  10  16
ENDBRANCH   2   4
BRANCH   1  22
ATOM     19  C   UNL     1      58.090  64.676  66.027  0.00  0.00    +0.000 A 
ATOM     20  C   UNL     1      58.031  65.972  65.509  0.00  0.00    +0.000 A 
ATOM     21  C   UNL     1      59.275  64.298  66.672  0.00  0.00    +0.000 A 
ATOM     22  C   UNL     1      60.260  66.475  66.301  0.00  0.00    +0.000 A 
ATOM     23  C   UNL     1      59.100  66.860  65.631  0.00  0.00    +0.000 A 
ATOM     24  C   UNL     1      60.351  65.176  66.800  0.00  0.00    +0.000 A 
BRANCH  19  26
ATOM     25  O   UNL     1      56.175  64.087  68.117  0.00  0.00    +0.000 OA
ATOM     26  N   UNL     1      56.982  63.755  65.909  0.00  0.00    +0.000 N 
ATOM     27  C   UNL     1      56.114  63.556  67.012  0.00  0.00    +0.000 C 
ATOM     28  C   UNL     1      56.862  63.085  64.612  0.00  0.00    +0.000 C 
BRANCH  27  29
ATOM     29  C   UNL     1      55.026  62.607  66.820  0.00  0.00    +0.000 C 
BRANCH  29  30
ATOM     30  N   UNL     1      53.947  61.636  66.648  0.00  0.00    +0.000 N 
ATOM     31  N   UNL     1      52.806  61.201  63.315  0.00  0.00    +0.000 N 
ATOM     32  C   UNL     1      52.880  62.315  65.862  0.00  0.00    +0.000 C 
ATOM     33  C   UNL     1      54.376  60.715  65.559  0.00  0.00    +0.000 C 
ATOM     34  C   UNL     1      52.381  62.127  64.400  0.00  0.00    +0.000 C 
ATOM     35  C   UNL     1      53.877  60.528  64.096  0.00  0.00    +0.000 C 
ATOM     36  C   UNL     1      53.467  62.013  62.302  0.00  0.00    +0.000 C 
ENDBRANCH  29  30
ENDBRANCH  27  29
ENDBRANCH  19  26
ENDBRANCH   1  22
BRANCH   2  37
ATOM     37  C   UNL     1      60.641  68.126  68.608  0.00  0.00    +0.000 A 
ATOM     38  C   UNL     1      59.478  68.894  68.568  0.00  0.00    +0.000 A 
ATOM     39  C   UNL     1      60.964  67.359  69.726  0.00  0.00    +0.000 A 
ATOM     40  C   UNL     1      58.631  68.897  69.671  0.00  0.00    +0.000 A 
ATOM     41  C   UNL     1      60.110  67.370  70.824  0.00  0.00    +0.000 A 
ATOM     42  C   UNL     1      58.946  68.137  70.797  0.00  0.00    +0.000 A 
ENDBRANCH   2  37
TORSDOF 9
ENDMDL
MODEL 5
REMARK VINA RESULT:      -6.3     26.979     33.397
REMARK  Name = 135423438_Nintedanib.pdbqt.pdb
REMARK  9 active torsions:
REMARK  status: ('A' for Active; 'I' for Inactive)
REMARK    1  A    between atoms: N_1  and  C_22
REMARK    2  A    between atoms: C_2  and  C_4
REMARK    3  A    between atoms: C_2  and  C_37
REMARK    4  A    between atoms: C_7  and  O_13
REMARK    5  A    between atoms: C_10  and  C_16
REMARK    6  A    between atoms: C_16  and  O_17
REMARK    7  A    between atoms: C_19  and  N_26
REMARK    8  A    between atoms: C_27  and  C_29
REMARK    9  A    between atoms: C_29  and  N_30
REMARK                            x       y       z     vdW  Elec       q    Type
REMARK                         _______ _______ _______ _____ _____    ______ ____
ROOT
ATOM      1  N   UNL     1      53.489  35.352  61.421  0.00  0.00    +0.000 NA
ATOM      2  C   UNL     1      52.504  35.039  60.630  0.00  0.00    +0.000 C 
ENDROOT
BRANCH   2   4
ATOM      3  N   UNL     1      53.157  35.579  57.065  0.00  0.00    +0.000 N 
ATOM      4  C   UNL     1      52.806  34.986  59.193  0.00  0.00    +0.000 A 
ATOM      5  C   UNL     1      53.101  33.811  58.415  0.00  0.00    +0.000 A 
ATOM      6  C   UNL     1      53.316  34.216  57.099  0.00  0.00    +0.000 A 
ATOM      7  C   UNL     1      52.846  36.059  58.312  0.00  0.00    +0.000 A 
ATOM      8  C   UNL     1      53.211  32.438  58.714  0.00  0.00    +0.000 A 
ATOM      9  C   UNL     1      53.630  33.324  56.068  0.00  0.00    +0.000 A 
ATOM     10  C   UNL     1      53.727  31.966  56.397  0.00  0.00    +0.000 A 
ATOM     11  C   UNL     1      53.523  31.530  57.701  0.00  0.00    +0.000 A 
ATOM     12  H   UNL     1      53.253  36.138  56.231  0.00  0.00    +0.000 HD
BRANCH   7  13
ATOM     13  O   UNL     1      52.630  37.353  58.520  0.00  0.00    +0.000 OA
ATOM     14  H   UNL     1      51.677  37.550  58.510  0.00  0.00    +0.000 HD
ENDBRANCH   7  13
BRANCH  10  16
ATOM     15  O   UNL     1      54.840  30.036  55.579  0.00  0.00    +0.000 OA
ATOM     16  C   UNL     1      54.055  30.951  55.373  0.00  0.00    +0.000 C 
BRANCH  16  17
ATOM     17  O   UNL     1      53.351  31.230  54.240  0.00  0.00    +0.000 OA
ATOM     18  C   UNL     1      53.739  30.602  53.046  0.00  0.00    +0.000 C 
ENDBRANCH  16  17
ENDBRANCH  10  16
ENDBRANCH   2   4
BRANCH   1  22
ATOM     19  C   UNL     1      53.001  35.729  65.607  0.00  0.00    +0.000 A 
ATOM     20  C   UNL     1      53.750  34.691  65.049  0.00  0.00    +0.000 A 
ATOM     21  C   UNL     1      52.415  36.643  64.721  0.00  0.00    +0.000 A 
ATOM     22  C   UNL     1      53.291  35.461  62.803  0.00  0.00    +0.000 A 
ATOM     23  C   UNL     1      53.906  34.558  63.670  0.00  0.00    +0.000 A 
ATOM     24  C   UNL     1      52.563  36.521  63.340  0.00  0.00    +0.000 A 
BRANCH  19  26
ATOM     25  O   UNL     1      54.535  37.495  67.313  0.00  0.00    +0.000 OA
ATOM     26  N   UNL     1      52.831  35.866  67.036  0.00  0.00    +0.000 N 
ATOM     27  C   UNL     1      53.651  36.769  67.758  0.00  0.00    +0.000 C 
ATOM     28  C   UNL     1      51.790  35.018  67.626  0.00  0.00    +0.000 C 
BRANCH  27  29
ATOM     29  C   UNL     1      53.426  36.846  69.195  0.00  0.00    +0.000 C 
BRANCH  29  30
ATOM     30  N   UNL     1      53.204  36.953  70.635  0.00  0.00    +0.000 N 
ATOM     31  N   UNL     1      52.358  40.194  71.811  0.00  0.00    +0.000 N 
ATOM     32  C   UNL     1      54.038  38.090  71.115  0.00  0.00    +0.000 C 
ATOM     33  C   UNL     1      51.894  37.639  70.812  0.00  0.00    +0.000 C 
ATOM     34  C   UNL     1      53.668  39.512  71.628  0.00  0.00    +0.000 C 
ATOM     35  C   UNL     1      51.524  39.062  71.324  0.00  0.00    +0.000 C 
ATOM     36  C   UNL     1      52.281  41.241  70.801  0.00  0.00    +0.000 C 
ENDBRANCH  29  30
ENDBRANCH  27  29
ENDBRANCH  19  26
ENDBRANCH   1  22
BRANCH   2  37
ATOM     37  C   UNL     1      51.129  34.744  61.069  0.00  0.00    +0.000 A 
ATOM     38  C   UNL     1      50.852  33.525  61.686  0.00  0.00    +0.000 A 
ATOM     39  C   UNL     1      50.137  35.706  60.889  0.00  0.00    +0.000 A 
ATOM     40  C   UNL     1      49.557  33.265  62.121  0.00  0.00    +0.000 A 
ATOM     41  C   UNL     1      48.845  35.436  61.327  0.00  0.00    +0.000 A 
ATOM     42  C   UNL     1      48.555  34.218  61.943  0.00  0.00    +0.000 A 
ENDBRANCH   2  37
TORSDOF 9
ENDMDL
MODEL 6
REMARK VINA RESULT:      -6.2     11.819     20.691
REMARK  Name = 135423438_Nintedanib.pdbqt.pdb
REMARK  9 active torsions:
REMARK  status: ('A' for Active; 'I' for Inactive)
REMARK    1  A    between atoms: N_1  and  C_22
REMARK    2  A    between atoms: C_2  and  C_4
REMARK    3  A    between atoms: C_2  and  C_37
REMARK    4  A    between atoms: C_7  and  O_13
REMARK    5  A    between atoms: C_10  and  C_16
REMARK    6  A    between atoms: C_16  and  O_17
REMARK    7  A    between atoms: C_19  and  N_26
REMARK    8  A    between atoms: C_27  and  C_29
REMARK    9  A    between atoms: C_29  and  N_30
REMARK                            x       y       z     vdW  Elec       q    Type
REMARK                         _______ _______ _______ _____ _____    ______ ____
ROOT
ATOM      1  N   UNL     1      60.215  79.287  82.381  0.00  0.00    +0.000 NA
ATOM      2  C   UNL     1      60.954  79.472  81.326  0.00  0.00    +0.000 C 
ENDROOT
BRANCH   2   4
ATOM      3  N   UNL     1      61.919  83.006  81.302  0.00  0.00    +0.000 N 
ATOM      4  C   UNL     1      61.368  80.853  81.047  0.00  0.00    +0.000 A 
ATOM      5  C   UNL     1      61.665  81.424  79.759  0.00  0.00    +0.000 A 
ATOM      6  C   UNL     1      62.006  82.761  79.954  0.00  0.00    +0.000 A 
ATOM      7  C   UNL     1      61.533  81.874  81.974  0.00  0.00    +0.000 A 
ATOM      8  C   UNL     1      61.681  80.919  78.443  0.00  0.00    +0.000 A 
ATOM      9  C   UNL     1      62.357  83.619  78.907  0.00  0.00    +0.000 A 
ATOM     10  C   UNL     1      62.359  83.088  77.610  0.00  0.00    +0.000 A 
ATOM     11  C   UNL     1      62.028  81.757  77.382  0.00  0.00    +0.000 A 
ATOM     12  H   UNL     1      62.111  83.902  81.726  0.00  0.00    +0.000 HD
BRANCH   7  13
ATOM     13  O   UNL     1      61.366  81.877  83.292  0.00  0.00    +0.000 OA
ATOM     14  H   UNL     1      62.102  82.338  83.732  0.00  0.00    +0.000 HD
ENDBRANCH   7  13
BRANCH  10  16
ATOM     15  O   UNL     1      62.342  85.078  76.317  0.00  0.00    +0.000 OA
ATOM     16  C   UNL     1      62.717  83.921  76.442  0.00  0.00    +0.000 C 
BRANCH  16  17
ATOM     17  O   UNL     1      63.493  83.181  75.600  0.00  0.00    +0.000 OA
ATOM     18  C   UNL     1      63.332  83.364  74.217  0.00  0.00    +0.000 C 
ENDBRANCH  16  17
ENDBRANCH  10  16
ENDBRANCH   2   4
BRANCH   1  22
ATOM     19  C   UNL     1      58.786  75.462  83.491  0.00  0.00    +0.000 A 
ATOM     20  C   UNL     1      60.129  75.813  83.643  0.00  0.00    +0.000 A 
ATOM     21  C   UNL     1      57.929  76.431  82.953  0.00  0.00    +0.000 A 
ATOM     22  C   UNL     1      59.742  78.011  82.710  0.00  0.00    +0.000 A 
ATOM     23  C   UNL     1      60.605  77.070  83.270  0.00  0.00    +0.000 A 
ATOM     24  C   UNL     1      58.392  77.691  82.577  0.00  0.00    +0.000 A 
BRANCH  19  26
ATOM     25  O   UNL     1      58.575  73.176  81.728  0.00  0.00    +0.000 OA
ATOM     26  N   UNL     1      58.290  74.158  83.870  0.00  0.00    +0.000 N 
ATOM     27  C   UNL     1      58.237  73.120  82.907  0.00  0.00    +0.000 C 
ATOM     28  C   UNL     1      57.864  74.033  85.267  0.00  0.00    +0.000 C 
BRANCH  27  29
ATOM     29  C   UNL     1      57.718  71.837  83.360  0.00  0.00    +0.000 C 
BRANCH  29  30
ATOM     30  N   UNL     1      57.172  70.554  83.799  0.00  0.00    +0.000 N 
ATOM     31  N   UNL     1      58.636  69.198  86.735  0.00  0.00    +0.000 N 
ATOM     32  C   UNL     1      58.331  69.642  84.006  0.00  0.00    +0.000 C 
ATOM     33  C   UNL     1      56.838  70.707  85.242  0.00  0.00    +0.000 C 
ATOM     34  C   UNL     1      58.975  69.050  85.293  0.00  0.00    +0.000 C 
ATOM     35  C   UNL     1      57.483  70.115  86.530  0.00  0.00    +0.000 C 
ATOM     36  C   UNL     1      59.701  69.985  87.340  0.00  0.00    +0.000 C 
ENDBRANCH  29  30
ENDBRANCH  27  29
ENDBRANCH  19  26
ENDBRANCH   1  22
BRANCH   2  37
ATOM     37  C   UNL     1      61.392  78.409  80.404  0.00  0.00    +0.000 A 
ATOM     38  C   UNL     1      60.480  77.864  79.502  0.00  0.00    +0.000 A 
ATOM     39  C   UNL     1      62.722  77.992  80.432  0.00  0.00    +0.000 A 
ATOM     40  C   UNL     1      60.909  76.879  78.618  0.00  0.00    +0.000 A 
ATOM     41  C   UNL     1      63.140  77.006  79.544  0.00  0.00    +0.000 A 
ATOM     42  C   UNL     1      62.236  76.451  78.639  0.00  0.00    +0.000 A 
ENDBRANCH   2  37
TORSDOF 9
ENDMDL
MODEL 7
REMARK VINA RESULT:      -6.2      1.578      2.097
REMARK  Name = 135423438_Nintedanib.pdbqt.pdb
REMARK  9 active torsions:
REMARK  status: ('A' for Active; 'I' for Inactive)
REMARK    1  A    between atoms: N_1  and  C_22
REMARK    2  A    between atoms: C_2  and  C_4
REMARK    3  A    between atoms: C_2  and  C_37
REMARK    4  A    between atoms: C_7  and  O_13
REMARK    5  A    between atoms: C_10  and  C_16
REMARK    6  A    between atoms: C_16  and  O_17
REMARK    7  A    between atoms: C_19  and  N_26
REMARK    8  A    between atoms: C_27  and  C_29
REMARK    9  A    between atoms: C_29  and  N_30
REMARK                            x       y       z     vdW  Elec       q    Type
REMARK                         _______ _______ _______ _____ _____    ______ ____
ROOT
ATOM      1  N   UNL     1      51.638  59.958  82.126  0.00  0.00    +0.000 NA
ATOM      2  C   UNL     1      52.252  58.840  81.862  0.00  0.00    +0.000 C 
ENDROOT
BRANCH   2   4
ATOM      3  N   UNL     1      49.988  56.515  80.162  0.00  0.00    +0.000 N 
ATOM      4  C   UNL     1      51.420  57.732  81.375  0.00  0.00    +0.000 A 
ATOM      5  C   UNL     1      51.289  56.426  81.965  0.00  0.00    +0.000 A 
ATOM      6  C   UNL     1      50.394  55.695  81.185  0.00  0.00    +0.000 A 
ATOM      7  C   UNL     1      50.590  57.744  80.261  0.00  0.00    +0.000 A 
ATOM      8  C   UNL     1      51.857  55.796  83.091  0.00  0.00    +0.000 A 
ATOM      9  C   UNL     1      50.035  54.374  81.472  0.00  0.00    +0.000 A 
ATOM     10  C   UNL     1      50.614  53.778  82.600  0.00  0.00    +0.000 A 
ATOM     11  C   UNL     1      51.513  54.478  83.396  0.00  0.00    +0.000 A 
ATOM     12  H   UNL     1      49.333  56.241  79.445  0.00  0.00    +0.000 HD
BRANCH   7  13
ATOM     13  O   UNL     1      50.336  58.711  79.386  0.00  0.00    +0.000 OA
ATOM     14  H   UNL     1      49.587  59.258  79.684  0.00  0.00    +0.000 HD
ENDBRANCH   7  13
BRANCH  10  16
ATOM     15  O   UNL     1      50.915  51.777  83.840  0.00  0.00    +0.000 OA
ATOM     16  C   UNL     1      50.294  52.385  82.980  0.00  0.00    +0.000 C 
BRANCH  16  17
ATOM     17  O   UNL     1      49.240  51.958  82.227  0.00  0.00    +0.000 OA
ATOM     18  C   UNL     1      49.152  50.589  81.928  0.00  0.00    +0.000 C 
ENDBRANCH  16  17
ENDBRANCH  10  16
ENDBRANCH   2   4
BRANCH   1  22
ATOM     19  C   UNL     1      53.665  63.359  83.618  0.00  0.00    +0.000 A 
ATOM     20  C   UNL     1      53.554  63.117  82.247  0.00  0.00    +0.000 A 
ATOM     21  C   UNL     1      53.077  62.425  84.482  0.00  0.00    +0.000 A 
ATOM     22  C   UNL     1      52.340  61.060  82.628  0.00  0.00    +0.000 A 
ATOM     23  C   UNL     1      52.894  61.993  81.752  0.00  0.00    +0.000 A 
ATOM     24  C   UNL     1      52.415  61.297  83.999  0.00  0.00    +0.000 A 
BRANCH  19  26
ATOM     25  O   UNL     1      56.480  63.475  84.282  0.00  0.00    +0.000 OA
ATOM     26  N   UNL     1      54.354  64.519  84.136  0.00  0.00    +0.000 N 
ATOM     27  C   UNL     1      55.741  64.443  84.422  0.00  0.00    +0.000 C 
ATOM     28  C   UNL     1      53.518  65.707  84.330  0.00  0.00    +0.000 C 
BRANCH  27  29
ATOM     29  C   UNL     1      56.363  65.650  84.948  0.00  0.00    +0.000 C 
BRANCH  29  30
ATOM     30  N   UNL     1      57.013  66.855  85.459  0.00  0.00    +0.000 N 
ATOM     31  N   UNL     1      54.835  69.549  86.236  0.00  0.00    +0.000 N 
ATOM     32  C   UNL     1      56.505  67.995  84.646  0.00  0.00    +0.000 C 
ATOM     33  C   UNL     1      56.291  67.227  86.709  0.00  0.00    +0.000 C 
ATOM     34  C   UNL     1      55.548  69.174  84.985  0.00  0.00    +0.000 C 
ATOM     35  C   UNL     1      55.333  68.406  87.047  0.00  0.00    +0.000 C 
ATOM     36  C   UNL     1      53.417  69.313  85.999  0.00  0.00    +0.000 C 
ENDBRANCH  29  30
ENDBRANCH  27  29
ENDBRANCH  19  26
ENDBRANCH   1  22
BRANCH   2  37
ATOM     37  C   UNL     1      53.699  58.614  82.022  0.00  0.00    +0.000 A 
ATOM     38  C   UNL     1      54.552  58.842  80.944  0.00  0.00    +0.000 A 
ATOM     39  C   UNL     1      54.191  58.208  83.262  0.00  0.00    +0.000 A 
ATOM     40  C   UNL     1      55.921  58.652  81.111  0.00  0.00    +0.000 A 
ATOM     41  C   UNL     1      55.560  58.020  83.418  0.00  0.00    +0.000 A 
ATOM     42  C   UNL     1      56.423  58.242  82.345  0.00  0.00    +0.000 A 
ENDBRANCH   2  37
TORSDOF 9
ENDMDL
MODEL 8
REMARK VINA RESULT:      -6.1     25.751     28.532
REMARK  Name = 135423438_Nintedanib.pdbqt.pdb
REMARK  9 active torsions:
REMARK  status: ('A' for Active; 'I' for Inactive)
REMARK    1  A    between atoms: N_1  and  C_22
REMARK    2  A    between atoms: C_2  and  C_4
REMARK    3  A    between atoms: C_2  and  C_37
REMARK    4  A    between atoms: C_7  and  O_13
REMARK    5  A    between atoms: C_10  and  C_16
REMARK    6  A    between atoms: C_16  and  O_17
REMARK    7  A    between atoms: C_19  and  N_26
REMARK    8  A    between atoms: C_27  and  C_29
REMARK    9  A    between atoms: C_29  and  N_30
REMARK                            x       y       z     vdW  Elec       q    Type
REMARK                         _______ _______ _______ _____ _____    ______ ____
ROOT
ATOM      1  N   UNL     1      60.224  51.520  59.396  0.00  0.00    +0.000 NA
ATOM      2  C   UNL     1      59.497  51.812  58.356  0.00  0.00    +0.000 C 
ENDROOT
BRANCH   2   4
ATOM      3  N   UNL     1      56.055  52.638  59.298  0.00  0.00    +0.000 N 
ATOM      4  C   UNL     1      58.050  51.931  58.577  0.00  0.00    +0.000 A 
ATOM      5  C   UNL     1      57.022  51.071  58.051  0.00  0.00    +0.000 A 
ATOM      6  C   UNL     1      55.796  51.540  58.516  0.00  0.00    +0.000 A 
ATOM      7  C   UNL     1      57.403  52.886  59.350  0.00  0.00    +0.000 A 
ATOM      8  C   UNL     1      57.026  49.937  57.213  0.00  0.00    +0.000 A 
ATOM      9  C   UNL     1      54.576  50.936  58.194  0.00  0.00    +0.000 A 
ATOM     10  C   UNL     1      54.613  49.809  57.363  0.00  0.00    +0.000 A 
ATOM     11  C   UNL     1      55.820  49.318  56.878  0.00  0.00    +0.000 A 
ATOM     12  H   UNL     1      55.342  53.176  59.769  0.00  0.00    +0.000 HD
BRANCH   7  13
ATOM     13  O   UNL     1      57.893  53.893  60.064  0.00  0.00    +0.000 OA
ATOM     14  H   UNL     1      58.755  54.178  59.713  0.00  0.00    +0.000 HD
ENDBRANCH   7  13
BRANCH  10  16
ATOM     15  O   UNL     1      53.373  48.141  56.218  0.00  0.00    +0.000 OA
ATOM     16  C   UNL     1      53.373  49.105  56.969  0.00  0.00    +0.000 C 
BRANCH  16  17
ATOM     17  O   UNL     1      52.315  49.714  57.575  0.00  0.00    +0.000 OA
ATOM     18  C   UNL     1      51.385  48.908  58.250  0.00  0.00    +0.000 C 
ENDBRANCH  16  17
ENDBRANCH  10  16
ENDBRANCH   2   4
BRANCH   1  22
ATOM     19  C   UNL     1      64.421  51.038  59.159  0.00  0.00    +0.000 A 
ATOM     20  C   UNL     1      63.830  52.304  59.180  0.00  0.00    +0.000 A 
ATOM     21  C   UNL     1      63.563  49.932  59.219  0.00  0.00    +0.000 A 
ATOM     22  C   UNL     1      61.609  51.352  59.279  0.00  0.00    +0.000 A 
ATOM     23  C   UNL     1      62.446  52.466  59.249  0.00  0.00    +0.000 A 
ATOM     24  C   UNL     1      62.179  50.081  59.289  0.00  0.00    +0.000 A 
BRANCH  19  26
ATOM     25  O   UNL     1      66.389  52.915  60.152  0.00  0.00    +0.000 OA
ATOM     26  N   UNL     1      65.854  50.866  59.080  0.00  0.00    +0.000 N 
ATOM     27  C   UNL     1      66.712  51.864  59.606  0.00  0.00    +0.000 C 
ATOM     28  C   UNL     1      66.299  49.629  58.431  0.00  0.00    +0.000 C 
BRANCH  27  29
ATOM     29  C   UNL     1      68.143  51.623  59.482  0.00  0.00    +0.000 C 
BRANCH  29  30
ATOM     30  N   UNL     1      69.584  51.403  59.378  0.00  0.00    +0.000 N 
ATOM     31  N   UNL     1      70.554  48.344  57.862  0.00  0.00    +0.000 N 
ATOM     32  C   UNL     1      69.854  50.052  59.942  0.00  0.00    +0.000 C 
ATOM     33  C   UNL     1      69.854  51.034  57.961  0.00  0.00    +0.000 C 
ATOM     34  C   UNL     1      70.276  48.709  59.278  0.00  0.00    +0.000 C 
ATOM     35  C   UNL     1      70.276  49.691  57.296  0.00  0.00    +0.000 C 
ATOM     36  C   UNL     1      69.469  47.472  57.431  0.00  0.00    +0.000 C 
ENDBRANCH  29  30
ENDBRANCH  27  29
ENDBRANCH  19  26
ENDBRANCH   1  22
BRANCH   2  37
ATOM     37  C   UNL     1      60.020  52.025  56.995  0.00  0.00    +0.000 A 
ATOM     38  C   UNL     1      60.364  50.925  56.212  0.00  0.00    +0.000 A 
ATOM     39  C   UNL     1      60.127  53.326  56.504  0.00  0.00    +0.000 A 
ATOM     40  C   UNL     1      60.831  51.134  54.918  0.00  0.00    +0.000 A 
ATOM     41  C   UNL     1      60.596  53.524  55.210  0.00  0.00    +0.000 A 
ATOM     42  C   UNL     1      60.947  52.430  54.418  0.00  0.00    +0.000 A 
ENDBRANCH   2  37
TORSDOF 9
ENDMDL
MODEL 9
REMARK VINA RESULT:      -6.1     29.744     36.845
REMARK  Name = 135423438_Nintedanib.pdbqt.pdb
REMARK  9 active torsions:
REMARK  status: ('A' for Active; 'I' for Inactive)
REMARK    1  A    between atoms: N_1  and  C_22
REMARK    2  A    between atoms: C_2  and  C_4
REMARK    3  A    between atoms: C_2  and  C_37
REMARK    4  A    between atoms: C_7  and  O_13
REMARK    5  A    between atoms: C_10  and  C_16
REMARK    6  A    between atoms: C_16  and  O_17
REMARK    7  A    between atoms: C_19  and  N_26
REMARK    8  A    between atoms: C_27  and  C_29
REMARK    9  A    between atoms: C_29  and  N_30
REMARK                            x       y       z     vdW  Elec       q    Type
REMARK                         _______ _______ _______ _____ _____    ______ ____
ROOT
ATOM      1  N   UNL     1      50.570  35.202  59.724  0.00  0.00    +0.000 NA
ATOM      2  C   UNL     1      50.666  34.751  60.941  0.00  0.00    +0.000 C 
ENDROOT
BRANCH   2   4
ATOM      3  N   UNL     1      48.095  36.270  63.064  0.00  0.00    +0.000 N 
ATOM      4  C   UNL     1      49.844  35.421  61.957  0.00  0.00    +0.000 A 
ATOM      5  C   UNL     1      50.307  36.054  63.164  0.00  0.00    +0.000 A 
ATOM      6  C   UNL     1      49.195  36.568  63.829  0.00  0.00    +0.000 A 
ATOM      7  C   UNL     1      48.465  35.586  61.934  0.00  0.00    +0.000 A 
ATOM      8  C   UNL     1      51.575  36.229  63.756  0.00  0.00    +0.000 A 
ATOM      9  C   UNL     1      49.283  37.250  65.047  0.00  0.00    +0.000 A 
ATOM     10  C   UNL     1      50.557  37.411  65.607  0.00  0.00    +0.000 A 
ATOM     11  C   UNL     1      51.686  36.906  64.972  0.00  0.00    +0.000 A 
ATOM     12  H   UNL     1      47.151  36.530  63.309  0.00  0.00    +0.000 HD
BRANCH   7  13
ATOM     13  O   UNL     1      47.566  35.205  61.032  0.00  0.00    +0.000 OA
ATOM     14  H   UNL     1      47.821  34.357  60.628  0.00  0.00    +0.000 HD
ENDBRANCH   7  13
BRANCH  10  16
ATOM     15  O   UNL     1      50.211  37.755  67.929  0.00  0.00    +0.000 OA
ATOM     16  C   UNL     1      50.746  38.118  66.892  0.00  0.00    +0.000 C 
BRANCH  16  17
ATOM     17  O   UNL     1      51.580  39.177  66.689  0.00  0.00    +0.000 OA
ATOM     18  C   UNL     1      52.591  39.416  67.634  0.00  0.00    +0.000 C 
ENDBRANCH  16  17
ENDBRANCH  10  16
ENDBRANCH   2   4
BRANCH   1  22
ATOM     19  C   UNL     1      52.965  33.482  56.689  0.00  0.00    +0.000 A 
ATOM     20  C   UNL     1      53.384  34.609  57.401  0.00  0.00    +0.000 A 
ATOM     21  C   UNL     1      51.715  32.944  57.023  0.00  0.00    +0.000 A 
ATOM     22  C   UNL     1      51.340  34.651  58.693  0.00  0.00    +0.000 A 
ATOM     23  C   UNL     1      52.593  35.184  58.395  0.00  0.00    +0.000 A 
ATOM     24  C   UNL     1      50.916  33.509  58.015  0.00  0.00    +0.000 A 
BRANCH  19  26
ATOM     25  O   UNL     1      53.014  34.315  53.917  0.00  0.00    +0.000 OA
ATOM     26  N   UNL     1      53.778  32.887  55.653  0.00  0.00    +0.000 N 
ATOM     27  C   UNL     1      53.708  33.390  54.329  0.00  0.00    +0.000 C 
ATOM     28  C   UNL     1      54.625  31.772  56.086  0.00  0.00    +0.000 C 
BRANCH  27  29
ATOM     29  C   UNL     1      54.550  32.735  53.339  0.00  0.00    +0.000 C 
BRANCH  29  30
ATOM     30  N   UNL     1      55.396  32.103  52.328  0.00  0.00    +0.000 N 
ATOM     31  N   UNL     1      58.266  30.426  53.575  0.00  0.00    +0.000 N 
ATOM     32  C   UNL     1      56.789  32.564  52.584  0.00  0.00    +0.000 C 
ATOM     33  C   UNL     1      55.615  30.700  52.778  0.00  0.00    +0.000 C 
ATOM     34  C   UNL     1      58.047  31.830  53.133  0.00  0.00    +0.000 C 
ATOM     35  C   UNL     1      56.873  29.966  53.327  0.00  0.00    +0.000 C 
ATOM     36  C   UNL     1      58.450  30.462  55.019  0.00  0.00    +0.000 C 
ENDBRANCH  29  30
ENDBRANCH  27  29
ENDBRANCH  19  26
ENDBRANCH   1  22
BRANCH   2  37
ATOM     37  C   UNL     1      51.531  33.635  61.363  0.00  0.00    +0.000 A 
ATOM     38  C   UNL     1      50.990  32.357  61.490  0.00  0.00    +0.000 A 
ATOM     39  C   UNL     1      52.885  33.876  61.593  0.00  0.00    +0.000 A 
ATOM     40  C   UNL     1      51.820  31.305  61.863  0.00  0.00    +0.000 A 
ATOM     41  C   UNL     1      53.706  32.816  61.966  0.00  0.00    +0.000 A 
ATOM     42  C   UNL     1      53.175  31.534  62.100  0.00  0.00    +0.000 A 
ENDBRANCH   2  37
TORSDOF 9
ENDMDL
