MODEL 1
REMARK VINA RESULT:      -7.6      0.000      0.000
REMARK  Name = 14132199_RiccardinD.pdbqt.pdb
REMARK  3 active torsions:
REMARK  status: ('A' for Active; 'I' for Inactive)
REMARK    1  A    between atoms: C_11  and  O_30
REMARK    2  A    between atoms: C_16  and  O_32
REMARK    3  A    between atoms: C_28  and  O_34
REMARK                            x       y       z     vdW  Elec       q    Type
REMARK                         _______ _______ _______ _____ _____    ______ ____
ROOT
ATOM      1  O   UNL     1      64.322  60.681  58.568  0.00  0.00    +0.000 OA
ATOM      2  C   UNL     1      64.356  53.741  59.001  0.00  0.00    +0.000 C 
ATOM      3  C   UNL     1      63.788  52.432  59.152  0.00  0.00    +0.000 A 
ATOM      4  C   UNL     1      62.401  52.247  59.392  0.00  0.00    +0.000 A 
ATOM      5  C   UNL     1      64.800  55.203  58.836  0.00  0.00    +0.000 C 
ATOM      6  C   UNL     1      59.858  57.246  59.842  0.00  0.00    +0.000 C 
ATOM      7  C   UNL     1      61.510  53.406  59.623  0.00  0.00    +0.000 A 
ATOM      8  C   UNL     1      60.154  55.855  59.928  0.00  0.00    +0.000 A 
ATOM      9  C   UNL     1      60.059  58.751  59.646  0.00  0.00    +0.000 C 
ATOM     10  C   UNL     1      64.997  56.610  58.705  0.00  0.00    +0.000 A 
ATOM     11  C   UNL     1      60.479  53.780  58.749  0.00  0.00    +0.000 A 
ATOM     12  C   UNL     1      60.779  59.948  59.382  0.00  0.00    +0.000 A 
ATOM     13  C   UNL     1      61.756  54.239  60.723  0.00  0.00    +0.000 A 
ATOM     14  C   UNL     1      59.818  55.003  58.881  0.00  0.00    +0.000 A 
ATOM     15  C   UNL     1      61.095  55.455  60.873  0.00  0.00    +0.000 A 
ATOM     16  C   UNL     1      61.930  50.921  59.416  0.00  0.00    +0.000 A 
ATOM     17  C   UNL     1      64.644  51.339  59.001  0.00  0.00    +0.000 A 
ATOM     18  C   UNL     1      62.793  49.833  59.284  0.00  0.00    +0.000 A 
ATOM     19  C   UNL     1      64.152  50.042  59.085  0.00  0.00    +0.000 A 
ATOM     20  C   UNL     1      62.131  59.776  59.106  0.00  0.00    +0.000 A 
ATOM     21  C   UNL     1      65.227  57.383  59.844  0.00  0.00    +0.000 A 
ATOM     22  C   UNL     1      64.745  57.225  57.478  0.00  0.00    +0.000 A 
ATOM     23  C   UNL     1      62.974  60.849  58.840  0.00  0.00    +0.000 A 
ATOM     24  C   UNL     1      60.234  61.223  59.396  0.00  0.00    +0.000 A 
ATOM     25  C   UNL     1      64.754  59.368  58.569  0.00  0.00    +0.000 A 
ATOM     26  C   UNL     1      65.117  58.770  59.778  0.00  0.00    +0.000 A 
ATOM     27  C   UNL     1      64.633  58.612  57.403  0.00  0.00    +0.000 A 
ATOM     28  C   UNL     1      62.427  62.127  58.854  0.00  0.00    +0.000 A 
ATOM     29  C   UNL     1      61.068  62.317  59.129  0.00  0.00    +0.000 A 
ENDROOT
BRANCH  11  30
ATOM     30  O   UNL     1      60.123  52.937  57.729  0.00  0.00    +0.000 OA
ATOM     31  H   UNL     1      59.950  53.477  56.935  0.00  0.00    +0.000 HD
ENDBRANCH  11  30
BRANCH  16  32
ATOM     32  O   UNL     1      60.601  50.620  59.549  0.00  0.00    +0.000 OA
ATOM     33  H   UNL     1      60.103  51.411  59.268  0.00  0.00    +0.000 HD
ENDBRANCH  16  32
BRANCH  28  34
ATOM     34  O   UNL     1      63.193  63.231  58.602  0.00  0.00    +0.000 OA
ATOM     35  H   UNL     1      63.086  63.448  57.658  0.00  0.00    +0.000 HD
ENDBRANCH  28  34
TORSDOF 3
ENDMDL
MODEL 2
REMARK VINA RESULT:      -7.5     13.907     19.243
REMARK  Name = 14132199_RiccardinD.pdbqt.pdb
REMARK  3 active torsions:
REMARK  status: ('A' for Active; 'I' for Inactive)
REMARK    1  A    between atoms: C_11  and  O_30
REMARK    2  A    between atoms: C_16  and  O_32
REMARK    3  A    between atoms: C_28  and  O_34
REMARK                            x       y       z     vdW  Elec       q    Type
REMARK                         _______ _______ _______ _____ _____    ______ ____
ROOT
ATOM      1  O   UNL     1      61.883  42.157  54.760  0.00  0.00    +0.000 OA
ATOM      2  C   UNL     1      63.219  35.351  55.265  0.00  0.00    +0.000 C 
ATOM      3  C   UNL     1      64.026  34.165  55.226  0.00  0.00    +0.000 A 
ATOM      4  C   UNL     1      65.395  34.209  54.855  0.00  0.00    +0.000 A 
ATOM      5  C   UNL     1      62.504  36.712  55.283  0.00  0.00    +0.000 C 
ATOM      6  C   UNL     1      66.824  39.469  53.452  0.00  0.00    +0.000 C 
ATOM      7  C   UNL     1      66.009  35.466  54.370  0.00  0.00    +0.000 A 
ATOM      8  C   UNL     1      66.809  38.050  53.586  0.00  0.00    +0.000 A 
ATOM      9  C   UNL     1      66.340  40.921  53.466  0.00  0.00    +0.000 C 
ATOM     10  C   UNL     1      62.038  38.060  55.246  0.00  0.00    +0.000 A 
ATOM     11  C   UNL     1      67.015  36.157  55.062  0.00  0.00    +0.000 A 
ATOM     12  C   UNL     1      65.417  41.987  53.649  0.00  0.00    +0.000 A 
ATOM     13  C   UNL     1      65.505  36.059  53.204  0.00  0.00    +0.000 A 
ATOM     14  C   UNL     1      67.400  37.447  54.692  0.00  0.00    +0.000 A 
ATOM     15  C   UNL     1      65.890  37.339  52.818  0.00  0.00    +0.000 A 
ATOM     16  C   UNL     1      66.121  33.008  54.954  0.00  0.00    +0.000 A 
ATOM     17  C   UNL     1      63.426  32.967  55.619  0.00  0.00    +0.000 A 
ATOM     18  C   UNL     1      65.512  31.811  55.329  0.00  0.00    +0.000 A 
ATOM     19  C   UNL     1      64.161  31.789  55.652  0.00  0.00    +0.000 A 
ATOM     20  C   UNL     1      64.157  41.609  54.099  0.00  0.00    +0.000 A 
ATOM     21  C   UNL     1      61.559  38.591  54.049  0.00  0.00    +0.000 A 
ATOM     22  C   UNL     1      62.266  38.892  56.343  0.00  0.00    +0.000 A 
ATOM     23  C   UNL     1      63.140  42.532  54.314  0.00  0.00    +0.000 A 
ATOM     24  C   UNL     1      65.689  43.324  53.403  0.00  0.00    +0.000 A 
ATOM     25  C   UNL     1      61.728  40.801  54.984  0.00  0.00    +0.000 A 
ATOM     26  C   UNL     1      61.390  39.968  53.916  0.00  0.00    +0.000 A 
ATOM     27  C   UNL     1      62.100  40.270  56.219  0.00  0.00    +0.000 A 
ATOM     28  C   UNL     1      63.413  43.872  54.067  0.00  0.00    +0.000 A 
ATOM     29  C   UNL     1      64.677  44.269  53.615  0.00  0.00    +0.000 A 
ENDROOT
BRANCH  11  30
ATOM     30  O   UNL     1      67.621  35.562  56.137  0.00  0.00    +0.000 OA
ATOM     31  H   UNL     1      68.302  34.949  55.800  0.00  0.00    +0.000 HD
ENDBRANCH  11  30
BRANCH  16  32
ATOM     32  O   UNL     1      67.468  32.945  54.710  0.00  0.00    +0.000 OA
ATOM     33  H   UNL     1      67.574  32.571  53.815  0.00  0.00    +0.000 HD
ENDBRANCH  16  32
BRANCH  28  34
ATOM     34  O   UNL     1      62.465  44.837  54.256  0.00  0.00    +0.000 OA
ATOM     35  H   UNL     1      61.776  44.458  54.832  0.00  0.00    +0.000 HD
ENDBRANCH  28  34
TORSDOF 3
ENDMDL
MODEL 3
REMARK VINA RESULT:      -7.1     10.373     14.100
REMARK  Name = 14132199_RiccardinD.pdbqt.pdb
REMARK  3 active torsions:
REMARK  status: ('A' for Active; 'I' for Inactive)
REMARK    1  A    between atoms: C_11  and  O_30
REMARK    2  A    between atoms: C_16  and  O_32
REMARK    3  A    between atoms: C_28  and  O_34
REMARK                            x       y       z     vdW  Elec       q    Type
REMARK                         _______ _______ _______ _____ _____    ______ ____
ROOT
ATOM      1  O   UNL     1      52.263  60.840  65.974  0.00  0.00    +0.000 OA
ATOM      2  C   UNL     1      57.193  64.965  68.628  0.00  0.00    +0.000 C 
ATOM      3  C   UNL     1      58.379  65.772  68.610  0.00  0.00    +0.000 A 
ATOM      4  C   UNL     1      59.170  65.905  67.440  0.00  0.00    +0.000 A 
ATOM      5  C   UNL     1      55.940  64.088  68.472  0.00  0.00    +0.000 C 
ATOM      6  C   UNL     1      57.039  62.714  63.323  0.00  0.00    +0.000 C 
ATOM      7  C   UNL     1      58.869  65.112  66.227  0.00  0.00    +0.000 A 
ATOM      8  C   UNL     1      57.920  63.501  64.121  0.00  0.00    +0.000 A 
ATOM      9  C   UNL     1      55.828  61.867  62.924  0.00  0.00    +0.000 C 
ATOM     10  C   UNL     1      54.838  63.255  68.115  0.00  0.00    +0.000 A 
ATOM     11  C   UNL     1      58.438  65.676  65.017  0.00  0.00    +0.000 A 
ATOM     12  C   UNL     1      54.588  61.196  63.106  0.00  0.00    +0.000 A 
ATOM     13  C   UNL     1      58.924  63.713  66.302  0.00  0.00    +0.000 A 
ATOM     14  C   UNL     1      57.945  64.884  63.977  0.00  0.00    +0.000 A 
ATOM     15  C   UNL     1      58.447  62.913  65.268  0.00  0.00    +0.000 A 
ATOM     16  C   UNL     1      60.251  66.804  67.500  0.00  0.00    +0.000 A 
ATOM     17  C   UNL     1      58.701  66.467  69.778  0.00  0.00    +0.000 A 
ATOM     18  C   UNL     1      60.579  67.481  68.674  0.00  0.00    +0.000 A 
ATOM     19  C   UNL     1      59.808  67.304  69.817  0.00  0.00    +0.000 A 
ATOM     20  C   UNL     1      54.027  61.324  64.372  0.00  0.00    +0.000 A 
ATOM     21  C   UNL     1      54.964  61.868  68.204  0.00  0.00    +0.000 A 
ATOM     22  C   UNL     1      53.730  63.821  67.482  0.00  0.00    +0.000 A 
ATOM     23  C   UNL     1      52.823  60.717  64.712  0.00  0.00    +0.000 A 
ATOM     24  C   UNL     1      53.941  60.444  62.137  0.00  0.00    +0.000 A 
ATOM     25  C   UNL     1      52.987  61.622  66.855  0.00  0.00    +0.000 A 
ATOM     26  C   UNL     1      54.030  61.043  67.582  0.00  0.00    +0.000 A 
ATOM     27  C   UNL     1      52.792  63.003  66.857  0.00  0.00    +0.000 A 
ATOM     28  C   UNL     1      52.175  59.963  63.741  0.00  0.00    +0.000 A 
ATOM     29  C   UNL     1      52.726  59.826  62.462  0.00  0.00    +0.000 A 
ENDROOT
BRANCH  11  30
ATOM     30  O   UNL     1      58.482  67.035  64.856  0.00  0.00    +0.000 OA
ATOM     31  H   UNL     1      59.257  67.250  64.300  0.00  0.00    +0.000 HD
ENDBRANCH  11  30
BRANCH  16  32
ATOM     32  O   UNL     1      61.031  67.084  66.409  0.00  0.00    +0.000 OA
ATOM     33  H   UNL     1      60.471  66.947  65.621  0.00  0.00    +0.000 HD
ENDBRANCH  16  32
BRANCH  28  34
ATOM     34  O   UNL     1      50.989  59.337  64.001  0.00  0.00    +0.000 OA
ATOM     35  H   UNL     1      51.041  58.983  64.907  0.00  0.00    +0.000 HD
ENDBRANCH  28  34
TORSDOF 3
ENDMDL
MODEL 4
REMARK VINA RESULT:      -7.1     29.769     32.721
REMARK  Name = 14132199_RiccardinD.pdbqt.pdb
REMARK  3 active torsions:
REMARK  status: ('A' for Active; 'I' for Inactive)
REMARK    1  A    between atoms: C_11  and  O_30
REMARK    2  A    between atoms: C_16  and  O_32
REMARK    3  A    between atoms: C_28  and  O_34
REMARK                            x       y       z     vdW  Elec       q    Type
REMARK                         _______ _______ _______ _____ _____    ______ ____
ROOT
ATOM      1  O   UNL     1      57.659  70.047  82.371  0.00  0.00    +0.000 OA
ATOM      2  C   UNL     1      57.583  70.535  89.307  0.00  0.00    +0.000 C 
ATOM      3  C   UNL     1      57.643  71.201  90.577  0.00  0.00    +0.000 A 
ATOM      4  C   UNL     1      57.882  72.596  90.675  0.00  0.00    +0.000 A 
ATOM      5  C   UNL     1      57.521  69.984  87.874  0.00  0.00    +0.000 C 
ATOM      6  C   UNL     1      58.721  74.753  85.546  0.00  0.00    +0.000 C 
ATOM      7  C   UNL     1      58.206  73.396  89.473  0.00  0.00    +0.000 A 
ATOM      8  C   UNL     1      58.703  74.562  86.958  0.00  0.00    +0.000 A 
ATOM      9  C   UNL     1      58.635  74.440  84.050  0.00  0.00    +0.000 C 
ATOM     10  C   UNL     1      57.492  69.681  86.480  0.00  0.00    +0.000 A 
ATOM     11  C   UNL     1      57.371  74.399  88.959  0.00  0.00    +0.000 A 
ATOM     12  C   UNL     1      58.452  73.633  82.894  0.00  0.00    +0.000 A 
ATOM     13  C   UNL     1      59.362  73.083  88.744  0.00  0.00    +0.000 A 
ATOM     14  C   UNL     1      57.599  74.966  87.703  0.00  0.00    +0.000 A 
ATOM     15  C   UNL     1      59.607  73.650  87.496  0.00  0.00    +0.000 A 
ATOM     16  C   UNL     1      57.813  73.165  91.960  0.00  0.00    +0.000 A 
ATOM     17  C   UNL     1      57.404  70.430  91.717  0.00  0.00    +0.000 A 
ATOM     18  C   UNL     1      57.594  72.388  93.097  0.00  0.00    +0.000 A 
ATOM     19  C   UNL     1      57.398  71.018  92.976  0.00  0.00    +0.000 A 
ATOM     20  C   UNL     1      58.151  72.299  83.146  0.00  0.00    +0.000 A 
ATOM     21  C   UNL     1      58.682  69.389  85.812  0.00  0.00    +0.000 A 
ATOM     22  C   UNL     1      56.315  69.891  85.759  0.00  0.00    +0.000 A 
ATOM     23  C   UNL     1      57.957  71.378  82.122  0.00  0.00    +0.000 A 
ATOM     24  C   UNL     1      58.564  74.079  81.586  0.00  0.00    +0.000 A 
ATOM     25  C   UNL     1      57.561  69.716  83.710  0.00  0.00    +0.000 A 
ATOM     26  C   UNL     1      58.718  69.394  84.420  0.00  0.00    +0.000 A 
ATOM     27  C   UNL     1      56.343  69.898  84.366  0.00  0.00    +0.000 A 
ATOM     28  C   UNL     1      58.069  71.827  80.812  0.00  0.00    +0.000 A 
ATOM     29  C   UNL     1      58.370  73.166  80.541  0.00  0.00    +0.000 A 
ENDROOT
BRANCH  11  30
ATOM     30  O   UNL     1      56.297  74.822  89.696  0.00  0.00    +0.000 OA
ATOM     31  H   UNL     1      56.058  74.110  90.320  0.00  0.00    +0.000 HD
ENDBRANCH  11  30
BRANCH  16  32
ATOM     32  O   UNL     1      57.937  74.514  92.170  0.00  0.00    +0.000 OA
ATOM     33  H   UNL     1      57.038  74.889  92.121  0.00  0.00    +0.000 HD
ENDBRANCH  16  32
BRANCH  28  34
ATOM     34  O   UNL     1      57.891  70.981  79.753  0.00  0.00    +0.000 OA
ATOM     35  H   UNL     1      58.682  71.053  79.189  0.00  0.00    +0.000 HD
ENDBRANCH  28  34
TORSDOF 3
ENDMDL
MODEL 5
REMARK VINA RESULT:      -6.9     16.268     19.660
REMARK  Name = 14132199_RiccardinD.pdbqt.pdb
REMARK  3 active torsions:
REMARK  status: ('A' for Active; 'I' for Inactive)
REMARK    1  A    between atoms: C_11  and  O_30
REMARK    2  A    between atoms: C_16  and  O_32
REMARK    3  A    between atoms: C_28  and  O_34
REMARK                            x       y       z     vdW  Elec       q    Type
REMARK                         _______ _______ _______ _____ _____    ______ ____
ROOT
ATOM      1  O   UNL     1      72.037  42.807  62.567  0.00  0.00    +0.000 OA
ATOM      2  C   UNL     1      69.612  36.366  63.559  0.00  0.00    +0.000 C 
ATOM      3  C   UNL     1      68.954  35.305  64.267  0.00  0.00    +0.000 A 
ATOM      4  C   UNL     1      68.454  35.488  65.583  0.00  0.00    +0.000 A 
ATOM      5  C   UNL     1      70.265  37.608  62.932  0.00  0.00    +0.000 C 
ATOM      6  C   UNL     1      69.688  40.673  67.391  0.00  0.00    +0.000 C 
ATOM      7  C   UNL     1      68.707  36.745  66.323  0.00  0.00    +0.000 A 
ATOM      8  C   UNL     1      69.330  39.293  67.346  0.00  0.00    +0.000 A 
ATOM      9  C   UNL     1      70.225  42.035  66.947  0.00  0.00    +0.000 C 
ATOM     10  C   UNL     1      70.813  38.864  62.536  0.00  0.00    +0.000 A 
ATOM     11  C   UNL     1      67.699  37.649  66.688  0.00  0.00    +0.000 A 
ATOM     12  C   UNL     1      70.815  42.980  66.064  0.00  0.00    +0.000 A 
ATOM     13  C   UNL     1      70.032  37.111  66.599  0.00  0.00    +0.000 A 
ATOM     14  C   UNL     1      68.001  38.922  67.175  0.00  0.00    +0.000 A 
ATOM     15  C   UNL     1      70.345  38.373  67.096  0.00  0.00    +0.000 A 
ATOM     16  C   UNL     1      67.731  34.419  66.144  0.00  0.00    +0.000 A 
ATOM     17  C   UNL     1      68.776  34.096  63.592  0.00  0.00    +0.000 A 
ATOM     18  C   UNL     1      67.573  33.207  65.472  0.00  0.00    +0.000 A 
ATOM     19  C   UNL     1      68.104  33.042  64.199  0.00  0.00    +0.000 A 
ATOM     20  C   UNL     1      71.128  42.494  64.799  0.00  0.00    +0.000 A 
ATOM     21  C   UNL     1      72.137  39.169  62.854  0.00  0.00    +0.000 A 
ATOM     22  C   UNL     1      69.966  39.852  62.032  0.00  0.00    +0.000 A 
ATOM     23  C   UNL     1      71.722  43.290  63.827  0.00  0.00    +0.000 A 
ATOM     24  C   UNL     1      71.096  44.300  66.384  0.00  0.00    +0.000 A 
ATOM     25  C   UNL     1      71.704  41.482  62.354  0.00  0.00    +0.000 A 
ATOM     26  C   UNL     1      72.592  40.482  62.752  0.00  0.00    +0.000 A 
ATOM     27  C   UNL     1      70.413  41.167  61.928  0.00  0.00    +0.000 A 
ATOM     28  C   UNL     1      72.003  44.613  64.148  0.00  0.00    +0.000 A 
ATOM     29  C   UNL     1      71.693  45.118  65.416  0.00  0.00    +0.000 A 
ENDROOT
BRANCH  11  30
ATOM     30  O   UNL     1      66.386  37.283  66.548  0.00  0.00    +0.000 OA
ATOM     31  H   UNL     1      65.840  37.901  67.071  0.00  0.00    +0.000 HD
ENDBRANCH  11  30
BRANCH  16  32
ATOM     32  O   UNL     1      67.124  34.510  67.369  0.00  0.00    +0.000 OA
ATOM     33  H   UNL     1      66.207  34.197  67.252  0.00  0.00    +0.000 HD
ENDBRANCH  16  32
BRANCH  28  34
ATOM     34  O   UNL     1      72.585  45.456  63.245  0.00  0.00    +0.000 OA
ATOM     35  H   UNL     1      73.515  45.570  63.512  0.00  0.00    +0.000 HD
ENDBRANCH  28  34
TORSDOF 3
ENDMDL
MODEL 6
REMARK VINA RESULT:      -6.8     10.360     14.014
REMARK  Name = 14132199_RiccardinD.pdbqt.pdb
REMARK  3 active torsions:
REMARK  status: ('A' for Active; 'I' for Inactive)
REMARK    1  A    between atoms: C_11  and  O_30
REMARK    2  A    between atoms: C_16  and  O_32
REMARK    3  A    between atoms: C_28  and  O_34
REMARK                            x       y       z     vdW  Elec       q    Type
REMARK                         _______ _______ _______ _____ _____    ______ ____
ROOT
ATOM      1  O   UNL     1      54.410  61.537  64.339  0.00  0.00    +0.000 OA
ATOM      2  C   UNL     1      60.106  65.473  64.983  0.00  0.00    +0.000 C 
ATOM      3  C   UNL     1      61.050  66.316  65.659  0.00  0.00    +0.000 A 
ATOM      4  C   UNL     1      60.856  66.718  67.006  0.00  0.00    +0.000 A 
ATOM      5  C   UNL     1      59.018  64.548  64.415  0.00  0.00    +0.000 C 
ATOM      6  C   UNL     1      55.951  64.717  68.906  0.00  0.00    +0.000 C 
ATOM      7  C   UNL     1      59.605  66.384  67.724  0.00  0.00    +0.000 A 
ATOM      8  C   UNL     1      57.141  65.485  68.750  0.00  0.00    +0.000 A 
ATOM      9  C   UNL     1      54.801  63.762  68.577  0.00  0.00    +0.000 C 
ATOM     10  C   UNL     1      57.919  63.698  64.090  0.00  0.00    +0.000 A 
ATOM     11  C   UNL     1      59.549  65.520  68.827  0.00  0.00    +0.000 A 
ATOM     12  C   UNL     1      54.034  62.869  67.780  0.00  0.00    +0.000 A 
ATOM     13  C   UNL     1      58.389  66.878  67.230  0.00  0.00    +0.000 A 
ATOM     14  C   UNL     1      58.331  65.053  69.327  0.00  0.00    +0.000 A 
ATOM     15  C   UNL     1      57.170  66.430  67.728  0.00  0.00    +0.000 A 
ATOM     16  C   UNL     1      61.893  67.454  67.607  0.00  0.00    +0.000 A 
ATOM     17  C   UNL     1      62.199  66.687  64.956  0.00  0.00    +0.000 A 
ATOM     18  C   UNL     1      63.029  67.838  66.895  0.00  0.00    +0.000 A 
ATOM     19  C   UNL     1      63.178  67.462  65.566  0.00  0.00    +0.000 A 
ATOM     20  C   UNL     1      54.545  62.622  66.510  0.00  0.00    +0.000 A 
ATOM     21  C   UNL     1      56.733  64.257  63.612  0.00  0.00    +0.000 A 
ATOM     22  C   UNL     1      57.964  62.352  64.454  0.00  0.00    +0.000 A 
ATOM     23  C   UNL     1      53.905  61.782  65.606  0.00  0.00    +0.000 A 
ATOM     24  C   UNL     1      52.851  62.264  68.177  0.00  0.00    +0.000 A 
ATOM     25  C   UNL     1      55.599  62.182  64.054  0.00  0.00    +0.000 A 
ATOM     26  C   UNL     1      55.567  63.495  63.582  0.00  0.00    +0.000 A 
ATOM     27  C   UNL     1      56.802  61.583  64.427  0.00  0.00    +0.000 A 
ATOM     28  C   UNL     1      52.719  61.176  66.005  0.00  0.00    +0.000 A 
ATOM     29  C   UNL     1      52.193  61.413  67.280  0.00  0.00    +0.000 A 
ENDROOT
BRANCH  11  30
ATOM     30  O   UNL     1      60.714  65.109  69.419  0.00  0.00    +0.000 OA
ATOM     31  H   UNL     1      61.171  65.897  69.769  0.00  0.00    +0.000 HD
ENDBRANCH  11  30
BRANCH  16  32
ATOM     32  O   UNL     1      61.860  67.820  68.927  0.00  0.00    +0.000 OA
ATOM     33  H   UNL     1      62.276  67.095  69.430  0.00  0.00    +0.000 HD
ENDBRANCH  16  32
BRANCH  28  34
ATOM     34  O   UNL     1      52.034  60.338  65.172  0.00  0.00    +0.000 OA
ATOM     35  H   UNL     1      52.478  60.364  64.305  0.00  0.00    +0.000 HD
ENDBRANCH  28  34
TORSDOF 3
ENDMDL
MODEL 7
REMARK VINA RESULT:      -6.8     28.596     31.788
REMARK  Name = 14132199_RiccardinD.pdbqt.pdb
REMARK  3 active torsions:
REMARK  status: ('A' for Active; 'I' for Inactive)
REMARK    1  A    between atoms: C_11  and  O_30
REMARK    2  A    between atoms: C_16  and  O_32
REMARK    3  A    between atoms: C_28  and  O_34
REMARK                            x       y       z     vdW  Elec       q    Type
REMARK                         _______ _______ _______ _____ _____    ______ ____
ROOT
ATOM      1  O   UNL     1      57.965  68.674  88.816  0.00  0.00    +0.000 OA
ATOM      2  C   UNL     1      58.273  71.332  82.397  0.00  0.00    +0.000 C 
ATOM      3  C   UNL     1      58.326  72.369  81.406  0.00  0.00    +0.000 A 
ATOM      4  C   UNL     1      58.261  73.741  81.762  0.00  0.00    +0.000 A 
ATOM      5  C   UNL     1      58.231  70.349  83.578  0.00  0.00    +0.000 C 
ATOM      6  C   UNL     1      57.563  74.239  87.324  0.00  0.00    +0.000 C 
ATOM      7  C   UNL     1      58.007  74.150  83.162  0.00  0.00    +0.000 A 
ATOM      8  C   UNL     1      57.593  74.507  85.924  0.00  0.00    +0.000 A 
ATOM      9  C   UNL     1      57.574  73.458  88.641  0.00  0.00    +0.000 C 
ATOM     10  C   UNL     1      58.189  69.618  84.802  0.00  0.00    +0.000 A 
ATOM     11  C   UNL     1      58.944  74.827  83.956  0.00  0.00    +0.000 A 
ATOM     12  C   UNL     1      57.628  72.309  89.475  0.00  0.00    +0.000 A 
ATOM     13  C   UNL     1      56.804  73.766  83.771  0.00  0.00    +0.000 A 
ATOM     14  C   UNL     1      58.756  74.987  85.331  0.00  0.00    +0.000 A 
ATOM     15  C   UNL     1      56.599  73.932  85.137  0.00  0.00    +0.000 A 
ATOM     16  C   UNL     1      58.430  74.677  80.725  0.00  0.00    +0.000 A 
ATOM     17  C   UNL     1      58.498  71.978  80.076  0.00  0.00    +0.000 A 
ATOM     18  C   UNL     1      58.582  74.281  79.397  0.00  0.00    +0.000 A 
ATOM     19  C   UNL     1      58.606  72.931  79.071  0.00  0.00    +0.000 A 
ATOM     20  C   UNL     1      57.771  71.098  88.807  0.00  0.00    +0.000 A 
ATOM     21  C   UNL     1      56.956  69.277  85.360  0.00  0.00    +0.000 A 
ATOM     22  C   UNL     1      59.364  69.441  85.534  0.00  0.00    +0.000 A 
ATOM     23  C   UNL     1      57.826  69.883  89.480  0.00  0.00    +0.000 A 
ATOM     24  C   UNL     1      57.539  72.326  90.859  0.00  0.00    +0.000 A 
ATOM     25  C   UNL     1      58.056  68.777  87.440  0.00  0.00    +0.000 A 
ATOM     26  C   UNL     1      56.886  68.843  86.682  0.00  0.00    +0.000 A 
ATOM     27  C   UNL     1      59.303  69.007  86.857  0.00  0.00    +0.000 A 
ATOM     28  C   UNL     1      57.736  69.901  90.867  0.00  0.00    +0.000 A 
ATOM     29  C   UNL     1      57.595  71.111  91.555  0.00  0.00    +0.000 A 
ENDROOT
BRANCH  11  30
ATOM     30  O   UNL     1      60.081  75.326  83.376  0.00  0.00    +0.000 OA
ATOM     31  H   UNL     1      60.377  74.693  82.695  0.00  0.00    +0.000 HD
ENDBRANCH  11  30
BRANCH  16  32
ATOM     32  O   UNL     1      58.477  76.026  80.958  0.00  0.00    +0.000 OA
ATOM     33  H   UNL     1      59.020  76.155  81.759  0.00  0.00    +0.000 HD
ENDBRANCH  16  32
BRANCH  28  34
ATOM     34  O   UNL     1      57.784  68.747  91.597  0.00  0.00    +0.000 OA
ATOM     35  H   UNL     1      57.111  68.145  91.231  0.00  0.00    +0.000 HD
ENDBRANCH  28  34
TORSDOF 3
ENDMDL
MODEL 8
REMARK VINA RESULT:      -6.7     27.681     30.693
REMARK  Name = 14132199_RiccardinD.pdbqt.pdb
REMARK  3 active torsions:
REMARK  status: ('A' for Active; 'I' for Inactive)
REMARK    1  A    between atoms: C_11  and  O_30
REMARK    2  A    between atoms: C_16  and  O_32
REMARK    3  A    between atoms: C_28  and  O_34
REMARK                            x       y       z     vdW  Elec       q    Type
REMARK                         _______ _______ _______ _____ _____    ______ ____
ROOT
ATOM      1  O   UNL     1      58.766  76.434  81.029  0.00  0.00    +0.000 OA
ATOM      2  C   UNL     1      58.034  73.373  87.231  0.00  0.00    +0.000 C 
ATOM      3  C   UNL     1      57.892  72.276  88.144  0.00  0.00    +0.000 A 
ATOM      4  C   UNL     1      57.801  70.935  87.688  0.00  0.00    +0.000 A 
ATOM      5  C   UNL     1      58.211  74.427  86.126  0.00  0.00    +0.000 C 
ATOM      6  C   UNL     1      57.856  70.826  82.062  0.00  0.00    +0.000 C 
ATOM      7  C   UNL     1      57.722  70.630  86.242  0.00  0.00    +0.000 A 
ATOM      8  C   UNL     1      57.677  70.471  83.431  0.00  0.00    +0.000 A 
ATOM      9  C   UNL     1      58.092  71.684  80.817  0.00  0.00    +0.000 C 
ATOM     10  C   UNL     1      58.379  75.234  84.961  0.00  0.00    +0.000 A 
ATOM     11  C   UNL     1      58.722  69.945  85.536  0.00  0.00    +0.000 A 
ATOM     12  C   UNL     1      58.324  72.876  80.079  0.00  0.00    +0.000 A 
ATOM     13  C   UNL     1      56.638  71.127  85.505  0.00  0.00    +0.000 A 
ATOM     14  C   UNL     1      58.717  69.881  84.141  0.00  0.00    +0.000 A 
ATOM     15  C   UNL     1      56.616  71.059  84.115  0.00  0.00    +0.000 A 
ATOM     16  C   UNL     1      57.774  69.929  88.671  0.00  0.00    +0.000 A 
ATOM     17  C   UNL     1      57.899  72.573  89.509  0.00  0.00    +0.000 A 
ATOM     18  C   UNL     1      57.761  70.231  90.032  0.00  0.00    +0.000 A 
ATOM     19  C   UNL     1      57.814  71.555  90.452  0.00  0.00    +0.000 A 
ATOM     20  C   UNL     1      58.439  74.032  80.843  0.00  0.00    +0.000 A 
ATOM     21  C   UNL     1      57.256  75.686  84.267  0.00  0.00    +0.000 A 
ATOM     22  C   UNL     1      59.652  75.380  84.408  0.00  0.00    +0.000 A 
ATOM     23  C   UNL     1      58.654  75.280  80.270  0.00  0.00    +0.000 A 
ATOM     24  C   UNL     1      58.427  72.950  78.698  0.00  0.00    +0.000 A 
ATOM     25  C   UNL     1      58.659  76.242  82.395  0.00  0.00    +0.000 A 
ATOM     26  C   UNL     1      57.393  76.204  82.982  0.00  0.00    +0.000 A 
ATOM     27  C   UNL     1      59.799  75.897  83.122  0.00  0.00    +0.000 A 
ATOM     28  C   UNL     1      58.757  75.353  78.886  0.00  0.00    +0.000 A 
ATOM     29  C   UNL     1      58.646  74.199  78.102  0.00  0.00    +0.000 A 
ENDROOT
BRANCH  11  30
ATOM     30  O   UNL     1      59.737  69.339  86.228  0.00  0.00    +0.000 OA
ATOM     31  H   UNL     1      60.148  70.006  86.811  0.00  0.00    +0.000 HD
ENDBRANCH  11  30
BRANCH  16  32
ATOM     32  O   UNL     1      57.777  68.596  88.353  0.00  0.00    +0.000 OA
ATOM     33  H   UNL     1      58.633  68.412  87.921  0.00  0.00    +0.000 HD
ENDBRANCH  16  32
BRANCH  28  34
ATOM     34  O   UNL     1      58.969  76.544  78.250  0.00  0.00    +0.000 OA
ATOM     35  H   UNL     1      59.764  76.440  77.697  0.00  0.00    +0.000 HD
ENDBRANCH  28  34
TORSDOF 3
ENDMDL
MODEL 9
REMARK VINA RESULT:      -6.6     24.953     26.685
REMARK  Name = 14132199_RiccardinD.pdbqt.pdb
REMARK  3 active torsions:
REMARK  status: ('A' for Active; 'I' for Inactive)
REMARK    1  A    between atoms: C_11  and  O_30
REMARK    2  A    between atoms: C_16  and  O_32
REMARK    3  A    between atoms: C_28  and  O_34
REMARK                            x       y       z     vdW  Elec       q    Type
REMARK                         _______ _______ _______ _____ _____    ______ ____
ROOT
ATOM      1  O   UNL     1      54.401  62.596  82.599  0.00  0.00    +0.000 OA
ATOM      2  C   UNL     1      51.533  56.271  82.235  0.00  0.00    +0.000 C 
ATOM      3  C   UNL     1      51.254  54.929  82.661  0.00  0.00    +0.000 A 
ATOM      4  C   UNL     1      51.859  54.377  83.820  0.00  0.00    +0.000 A 
ATOM      5  C   UNL     1      51.917  57.728  81.932  0.00  0.00    +0.000 C 
ATOM      6  C   UNL     1      55.442  58.092  86.061  0.00  0.00    +0.000 C 
ATOM      7  C   UNL     1      52.900  55.123  84.561  0.00  0.00    +0.000 A 
ATOM      8  C   UNL     1      54.763  56.885  85.724  0.00  0.00    +0.000 A 
ATOM      9  C   UNL     1      55.906  59.549  85.993  0.00  0.00    +0.000 C 
ATOM     10  C   UNL     1      52.390  59.071  81.837  0.00  0.00    +0.000 A 
ATOM     11  C   UNL     1      52.731  55.600  85.869  0.00  0.00    +0.000 A 
ATOM     12  C   UNL     1      55.988  60.869  85.473  0.00  0.00    +0.000 A 
ATOM     13  C   UNL     1      54.090  55.459  83.901  0.00  0.00    +0.000 A 
ATOM     14  C   UNL     1      53.639  56.492  86.444  0.00  0.00    +0.000 A 
ATOM     15  C   UNL     1      55.009  56.337  84.468  0.00  0.00    +0.000 A 
ATOM     16  C   UNL     1      51.434  53.093  84.209  0.00  0.00    +0.000 A 
ATOM     17  C   UNL     1      50.321  54.201  81.919  0.00  0.00    +0.000 A 
ATOM     18  C   UNL     1      50.516  52.363  83.454  0.00  0.00    +0.000 A 
ATOM     19  C   UNL     1      49.966  52.914  82.303  0.00  0.00    +0.000 A 
ATOM     20  C   UNL     1      55.202  61.114  84.352  0.00  0.00    +0.000 A 
ATOM     21  C   UNL     1      53.590  59.334  81.175  0.00  0.00    +0.000 A 
ATOM     22  C   UNL     1      51.768  60.070  82.588  0.00  0.00    +0.000 A 
ATOM     23  C   UNL     1      55.181  62.351  83.718  0.00  0.00    +0.000 A 
ATOM     24  C   UNL     1      56.782  61.881  85.991  0.00  0.00    +0.000 A 
ATOM     25  C   UNL     1      53.641  61.521  82.176  0.00  0.00    +0.000 A 
ATOM     26  C   UNL     1      54.216  60.568  81.333  0.00  0.00    +0.000 A 
ATOM     27  C   UNL     1      52.388  61.307  82.751  0.00  0.00    +0.000 A 
ATOM     28  C   UNL     1      55.977  63.364  84.239  0.00  0.00    +0.000 A 
ATOM     29  C   UNL     1      56.773  63.135  85.367  0.00  0.00    +0.000 A 
ENDROOT
BRANCH  11  30
ATOM     30  O   UNL     1      51.641  55.198  86.596  0.00  0.00    +0.000 OA
ATOM     31  H   UNL     1      51.145  54.547  86.064  0.00  0.00    +0.000 HD
ENDBRANCH  11  30
BRANCH  16  32
ATOM     32  O   UNL     1      51.878  52.493  85.358  0.00  0.00    +0.000 OA
ATOM     33  H   UNL     1      52.612  53.039  85.695  0.00  0.00    +0.000 HD
ENDBRANCH  16  32
BRANCH  28  34
ATOM     34  O   UNL     1      56.009  64.606  83.670  0.00  0.00    +0.000 OA
ATOM     35  H   UNL     1      55.889  65.256  84.387  0.00  0.00    +0.000 HD
ENDBRANCH  28  34
TORSDOF 3
ENDMDL
