MODEL 1
REMARK VINA RESULT:      -4.3      0.000      0.000
REMARK  Name = 146026348_FluorouracilMononitrate.pdbqt.pdb
REMARK  2 active torsions:
REMARK  status: ('A' for Active; 'I' for Inactive)
REMARK    1  A    between atoms: N_4  and  O_10
REMARK    2  A    between atoms: O_10  and  N_13
REMARK                            x       y       z     vdW  Elec       q    Type
REMARK                         _______ _______ _______ _____ _____    ______ ____
ROOT
ATOM      1  F   UNL     1      64.439  37.341  70.290  0.00  0.00    +0.000 F 
ATOM      2  O   UNL     1      63.908  39.311  68.379  0.00  0.00    +0.000 OA
ATOM      3  O   UNL     1      60.199  40.518  70.960  0.00  0.00    +0.000 OA
ATOM      4  N   UNL     1      61.954  39.843  69.552  0.00  0.00    +0.000 N 
ATOM      5  N   UNL     1      63.322  38.086  70.304  0.00  0.00    +0.000 N 
ATOM      6  C   UNL     1      63.138  39.092  69.310  0.00  0.00    +0.000 A 
ATOM      7  C   UNL     1      61.122  39.774  70.670  0.00  0.00    +0.000 A 
ATOM      8  C   UNL     1      61.526  38.688  71.533  0.00  0.00    +0.000 A 
ATOM      9  C   UNL     1      62.473  37.988  71.344  0.00  0.00    +0.000 A 
ENDROOT
BRANCH   4  10
ATOM     10  O   UNL     1      61.731  40.923  68.678  0.00  0.00    +0.000 OA
BRANCH  10  13
ATOM     11  O   UNL     1      61.308  40.099  66.628  0.00  0.00    +0.000 OA
ATOM     12  O   UNL     1      59.669  40.980  67.869  0.00  0.00    +0.000 OA
ATOM     13  N   UNL     1      60.825  40.643  67.625  0.00  0.00    +0.000 N 
ENDBRANCH  10  13
ENDBRANCH   4  10
TORSDOF 2
ENDMDL
MODEL 2
REMARK VINA RESULT:      -4.0     13.783     14.636
REMARK  Name = 146026348_FluorouracilMononitrate.pdbqt.pdb
REMARK  2 active torsions:
REMARK  status: ('A' for Active; 'I' for Inactive)
REMARK    1  A    between atoms: N_4  and  O_10
REMARK    2  A    between atoms: O_10  and  N_13
REMARK                            x       y       z     vdW  Elec       q    Type
REMARK                         _______ _______ _______ _____ _____    ______ ____
ROOT
ATOM      1  F   UNL     1      53.531  31.964  58.820  0.00  0.00    +0.000 F 
ATOM      2  O   UNL     1      53.291  34.467  57.602  0.00  0.00    +0.000 OA
ATOM      3  O   UNL     1      52.084  36.156  61.793  0.00  0.00    +0.000 OA
ATOM      4  N   UNL     1      52.528  35.324  59.642  0.00  0.00    +0.000 N 
ATOM      5  N   UNL     1      53.039  33.037  59.456  0.00  0.00    +0.000 N 
ATOM      6  C   UNL     1      52.975  34.288  58.775  0.00  0.00    +0.000 A 
ATOM      7  C   UNL     1      52.315  35.242  61.019  0.00  0.00    +0.000 A 
ATOM      8  C   UNL     1      52.454  33.877  61.470  0.00  0.00    +0.000 A 
ATOM      9  C   UNL     1      52.766  32.960  60.773  0.00  0.00    +0.000 A 
ENDROOT
BRANCH   4  10
ATOM     10  O   UNL     1      52.519  36.618  59.089  0.00  0.00    +0.000 OA
BRANCH  10  13
ATOM     11  O   UNL     1      51.504  37.245  57.183  0.00  0.00    +0.000 OA
ATOM     12  O   UNL     1      50.316  36.843  59.034  0.00  0.00    +0.000 OA
ATOM     13  N   UNL     1      51.343  36.935  58.366  0.00  0.00    +0.000 N 
ENDBRANCH  10  13
ENDBRANCH   4  10
TORSDOF 2
ENDMDL
MODEL 3
REMARK VINA RESULT:      -3.9     15.462     16.830
REMARK  Name = 146026348_FluorouracilMononitrate.pdbqt.pdb
REMARK  2 active torsions:
REMARK  status: ('A' for Active; 'I' for Inactive)
REMARK    1  A    between atoms: N_4  and  O_10
REMARK    2  A    between atoms: O_10  and  N_13
REMARK                            x       y       z     vdW  Elec       q    Type
REMARK                         _______ _______ _______ _____ _____    ______ ____
ROOT
ATOM      1  F   UNL     1      43.005  42.811  72.331  0.00  0.00    +0.000 F 
ATOM      2  O   UNL     1      45.479  42.802  73.632  0.00  0.00    +0.000 OA
ATOM      3  O   UNL     1      47.362  44.268  69.609  0.00  0.00    +0.000 OA
ATOM      4  N   UNL     1      46.486  43.380  71.600  0.00  0.00    +0.000 N 
ATOM      5  N   UNL     1      44.165  43.025  71.690  0.00  0.00    +0.000 N 
ATOM      6  C   UNL     1      45.384  43.033  72.429  0.00  0.00    +0.000 A 
ATOM      7  C   UNL     1      46.443  43.821  70.276  0.00  0.00    +0.000 A 
ATOM      8  C   UNL     1      45.097  43.734  69.759  0.00  0.00    +0.000 A 
ATOM      9  C   UNL     1      44.147  43.389  70.394  0.00  0.00    +0.000 A 
ENDROOT
BRANCH   4  10
ATOM     10  O   UNL     1      47.724  43.506  72.256  0.00  0.00    +0.000 OA
BRANCH  10  13
ATOM     11  O   UNL     1      48.760  42.040  73.611  0.00  0.00    +0.000 OA
ATOM     12  O   UNL     1      48.544  41.623  71.424  0.00  0.00    +0.000 OA
ATOM     13  N   UNL     1      48.408  42.281  72.453  0.00  0.00    +0.000 N 
ENDBRANCH  10  13
ENDBRANCH   4  10
TORSDOF 2
ENDMDL
MODEL 4
REMARK VINA RESULT:      -3.9     16.810     18.055
REMARK  Name = 146026348_FluorouracilMononitrate.pdbqt.pdb
REMARK  2 active torsions:
REMARK  status: ('A' for Active; 'I' for Inactive)
REMARK    1  A    between atoms: N_4  and  O_10
REMARK    2  A    between atoms: O_10  and  N_13
REMARK                            x       y       z     vdW  Elec       q    Type
REMARK                         _______ _______ _______ _____ _____    ______ ____
ROOT
ATOM      1  F   UNL     1      43.000  41.265  73.094  0.00  0.00    +0.000 F 
ATOM      2  O   UNL     1      45.642  42.116  72.772  0.00  0.00    +0.000 OA
ATOM      3  O   UNL     1      43.957  45.752  70.361  0.00  0.00    +0.000 OA
ATOM      4  N   UNL     1      44.858  43.861  71.425  0.00  0.00    +0.000 N 
ATOM      5  N   UNL     1      43.341  42.297  72.307  0.00  0.00    +0.000 N 
ATOM      6  C   UNL     1      44.709  42.689  72.218  0.00  0.00    +0.000 A 
ATOM      7  C   UNL     1      43.842  44.666  70.905  0.00  0.00    +0.000 A 
ATOM      8  C   UNL     1      42.551  44.062  71.139  0.00  0.00    +0.000 A 
ATOM      9  C   UNL     1      42.375  43.048  71.743  0.00  0.00    +0.000 A 
ENDROOT
BRANCH   4  10
ATOM     10  O   UNL     1      46.162  44.384  71.351  0.00  0.00    +0.000 OA
BRANCH  10  13
ATOM     11  O   UNL     1      47.429  42.862  70.286  0.00  0.00    +0.000 OA
ATOM     12  O   UNL     1      46.875  44.788  69.293  0.00  0.00    +0.000 OA
ATOM     13  N   UNL     1      46.892  43.970  70.210  0.00  0.00    +0.000 N 
ENDBRANCH  10  13
ENDBRANCH   4  10
TORSDOF 2
ENDMDL
MODEL 5
REMARK VINA RESULT:      -3.8     16.295     17.700
REMARK  Name = 146026348_FluorouracilMononitrate.pdbqt.pdb
REMARK  2 active torsions:
REMARK  status: ('A' for Active; 'I' for Inactive)
REMARK    1  A    between atoms: N_4  and  O_10
REMARK    2  A    between atoms: O_10  and  N_13
REMARK                            x       y       z     vdW  Elec       q    Type
REMARK                         _______ _______ _______ _____ _____    ______ ____
ROOT
ATOM      1  F   UNL     1      43.301  42.533  71.926  0.00  0.00    +0.000 F 
ATOM      2  O   UNL     1      43.856  40.769  74.022  0.00  0.00    +0.000 OA
ATOM      3  O   UNL     1      48.170  42.574  74.117  0.00  0.00    +0.000 OA
ATOM      4  N   UNL     1      46.070  41.528  73.999  0.00  0.00    +0.000 N 
ATOM      5  N   UNL     1      44.531  42.377  72.438  0.00  0.00    +0.000 N 
ATOM      6  C   UNL     1      44.728  41.478  73.527  0.00  0.00    +0.000 A 
ATOM      7  C   UNL     1      47.070  42.420  73.611  0.00  0.00    +0.000 A 
ATOM      8  C   UNL     1      46.620  43.232  72.504  0.00  0.00    +0.000 A 
ATOM      9  C   UNL     1      45.526  43.186  72.030  0.00  0.00    +0.000 A 
ENDROOT
BRANCH   4  10
ATOM     10  O   UNL     1      46.344  40.744  75.135  0.00  0.00    +0.000 OA
BRANCH  10  13
ATOM     11  O   UNL     1      45.073  40.404  76.959  0.00  0.00    +0.000 OA
ATOM     12  O   UNL     1      46.009  42.398  76.572  0.00  0.00    +0.000 OA
ATOM     13  N   UNL     1      45.750  41.221  76.330  0.00  0.00    +0.000 N 
ENDBRANCH  10  13
ENDBRANCH   4  10
TORSDOF 2
ENDMDL
MODEL 6
REMARK VINA RESULT:      -3.7     44.466     45.017
REMARK  Name = 146026348_FluorouracilMononitrate.pdbqt.pdb
REMARK  2 active torsions:
REMARK  status: ('A' for Active; 'I' for Inactive)
REMARK    1  A    between atoms: N_4  and  O_10
REMARK    2  A    between atoms: O_10  and  N_13
REMARK                            x       y       z     vdW  Elec       q    Type
REMARK                         _______ _______ _______ _____ _____    ______ ____
ROOT
ATOM      1  F   UNL     1      76.508  81.317  79.675  0.00  0.00    +0.000 F 
ATOM      2  O   UNL     1      75.684  81.226  82.344  0.00  0.00    +0.000 OA
ATOM      3  O   UNL     1      79.317  78.393  83.149  0.00  0.00    +0.000 OA
ATOM      4  N   UNL     1      77.391  79.680  82.759  0.00  0.00    +0.000 N 
ATOM      5  N   UNL     1      77.067  80.501  80.581  0.00  0.00    +0.000 N 
ATOM      6  C   UNL     1      76.610  80.533  81.931  0.00  0.00    +0.000 A 
ATOM      7  C   UNL     1      78.557  78.997  82.410  0.00  0.00    +0.000 A 
ATOM      8  C   UNL     1      78.815  79.132  80.995  0.00  0.00    +0.000 A 
ATOM      9  C   UNL     1      78.156  79.784  80.244  0.00  0.00    +0.000 A 
ENDROOT
BRANCH   4  10
ATOM     10  O   UNL     1      77.078  79.712  84.131  0.00  0.00    +0.000 OA
BRANCH  10  13
ATOM     11  O   UNL     1      75.032  79.354  84.992  0.00  0.00    +0.000 OA
ATOM     12  O   UNL     1      76.296  77.645  84.297  0.00  0.00    +0.000 OA
ATOM     13  N   UNL     1      76.039  78.827  84.512  0.00  0.00    +0.000 N 
ENDBRANCH  10  13
ENDBRANCH   4  10
TORSDOF 2
ENDMDL
MODEL 7
REMARK VINA RESULT:      -3.7      2.068      2.699
REMARK  Name = 146026348_FluorouracilMononitrate.pdbqt.pdb
REMARK  2 active torsions:
REMARK  status: ('A' for Active; 'I' for Inactive)
REMARK    1  A    between atoms: N_4  and  O_10
REMARK    2  A    between atoms: O_10  and  N_13
REMARK                            x       y       z     vdW  Elec       q    Type
REMARK                         _______ _______ _______ _____ _____    ______ ____
ROOT
ATOM      1  F   UNL     1      61.751  37.035  71.127  0.00  0.00    +0.000 F 
ATOM      2  O   UNL     1      62.598  36.643  68.493  0.00  0.00    +0.000 OA
ATOM      3  O   UNL     1      61.653  41.161  67.739  0.00  0.00    +0.000 OA
ATOM      4  N   UNL     1      61.989  38.854  68.027  0.00  0.00    +0.000 N 
ATOM      5  N   UNL     1      61.628  37.974  70.177  0.00  0.00    +0.000 N 
ATOM      6  C   UNL     1      62.111  37.708  68.862  0.00  0.00    +0.000 A 
ATOM      7  C   UNL     1      61.610  40.142  68.409  0.00  0.00    +0.000 A 
ATOM      8  C   UNL     1      61.180  40.153  69.788  0.00  0.00    +0.000 A 
ATOM      9  C   UNL     1      61.202  39.206  70.514  0.00  0.00    +0.000 A 
ENDROOT
BRANCH   4  10
ATOM     10  O   UNL     1      62.525  38.723  66.733  0.00  0.00    +0.000 OA
BRANCH  10  13
ATOM     11  O   UNL     1      60.718  37.665  65.912  0.00  0.00    +0.000 OA
ATOM     12  O   UNL     1      61.685  39.330  64.774  0.00  0.00    +0.000 OA
ATOM     13  N   UNL     1      61.554  38.551  65.715  0.00  0.00    +0.000 N 
ENDBRANCH  10  13
ENDBRANCH   4  10
TORSDOF 2
ENDMDL
MODEL 8
REMARK VINA RESULT:      -3.6     25.668     26.384
REMARK  Name = 146026348_FluorouracilMononitrate.pdbqt.pdb
REMARK  2 active torsions:
REMARK  status: ('A' for Active; 'I' for Inactive)
REMARK    1  A    between atoms: N_4  and  O_10
REMARK    2  A    between atoms: O_10  and  N_13
REMARK                            x       y       z     vdW  Elec       q    Type
REMARK                         _______ _______ _______ _____ _____    ______ ____
ROOT
ATOM      1  F   UNL     1      37.679  37.964  58.231  0.00  0.00    +0.000 F 
ATOM      2  O   UNL     1      36.426  39.469  60.224  0.00  0.00    +0.000 OA
ATOM      3  O   UNL     1      38.697  43.196  58.542  0.00  0.00    +0.000 OA
ATOM      4  N   UNL     1      37.663  41.328  59.519  0.00  0.00    +0.000 N 
ATOM      5  N   UNL     1      37.983  39.249  58.470  0.00  0.00    +0.000 N 
ATOM      6  C   UNL     1      37.278  39.958  59.487  0.00  0.00    +0.000 A 
ATOM      7  C   UNL     1      38.488  41.996  58.614  0.00  0.00    +0.000 A 
ATOM      8  C   UNL     1      39.068  41.063  57.676  0.00  0.00    +0.000 A 
ATOM      9  C   UNL     1      38.828  39.895  57.645  0.00  0.00    +0.000 A 
ENDROOT
BRANCH   4  10
ATOM     10  O   UNL     1      36.955  42.136  60.428  0.00  0.00    +0.000 OA
BRANCH  10  13
ATOM     11  O   UNL     1      36.625  42.476  62.626  0.00  0.00    +0.000 OA
ATOM     12  O   UNL     1      38.475  41.457  61.892  0.00  0.00    +0.000 OA
ATOM     13  N   UNL     1      37.388  42.018  61.772  0.00  0.00    +0.000 N 
ENDBRANCH  10  13
ENDBRANCH   4  10
TORSDOF 2
ENDMDL
MODEL 9
REMARK VINA RESULT:      -3.6     45.078     45.563
REMARK  Name = 146026348_FluorouracilMononitrate.pdbqt.pdb
REMARK  2 active torsions:
REMARK  status: ('A' for Active; 'I' for Inactive)
REMARK    1  A    between atoms: N_4  and  O_10
REMARK    2  A    between atoms: O_10  and  N_13
REMARK                            x       y       z     vdW  Elec       q    Type
REMARK                         _______ _______ _______ _____ _____    ______ ____
ROOT
ATOM      1  F   UNL     1      79.295  83.069  83.081  0.00  0.00    +0.000 F 
ATOM      2  O   UNL     1      77.872  82.149  80.858  0.00  0.00    +0.000 OA
ATOM      3  O   UNL     1      76.508  78.533  83.493  0.00  0.00    +0.000 OA
ATOM      4  N   UNL     1      77.296  80.242  82.087  0.00  0.00    +0.000 N 
ATOM      5  N   UNL     1      78.686  81.873  83.051  0.00  0.00    +0.000 N 
ATOM      6  C   UNL     1      77.955  81.488  81.890  0.00  0.00    +0.000 A 
ATOM      7  C   UNL     1      77.198  79.515  83.275  0.00  0.00    +0.000 A 
ATOM      8  C   UNL     1      78.013  80.118  84.303  0.00  0.00    +0.000 A 
ATOM      9  C   UNL     1      78.636  81.128  84.171  0.00  0.00    +0.000 A 
ENDROOT
BRANCH   4  10
ATOM     10  O   UNL     1      76.470  79.817  81.030  0.00  0.00    +0.000 OA
BRANCH  10  13
ATOM     11  O   UNL     1      78.242  78.808  80.083  0.00  0.00    +0.000 OA
ATOM     12  O   UNL     1      76.182  77.972  79.838  0.00  0.00    +0.000 OA
ATOM     13  N   UNL     1      77.019  78.775  80.244  0.00  0.00    +0.000 N 
ENDBRANCH  10  13
ENDBRANCH   4  10
TORSDOF 2
ENDMDL
