MODEL 1
REMARK VINA RESULT:      -7.5      0.000      0.000
REMARK  Name = 179268_Nortopsentin.pdbqt.pdb
REMARK  2 active torsions:
REMARK  status: ('A' for Active; 'I' for Inactive)
REMARK    1  A    between atoms: C_3  and  C_9
REMARK    2  A    between atoms: C_4  and  C_20
REMARK                            x       y       z     vdW  Elec       q    Type
REMARK                         _______ _______ _______ _____ _____    ______ ____
ROOT
ATOM      1  N   UNL     1      62.849  40.201  55.079  0.00  0.00    +0.000 N 
ATOM      2  N   UNL     1      61.519  40.563  53.349  0.00  0.00    +0.000 NA
ATOM      3  C   UNL     1      62.244  39.003  54.818  0.00  0.00    +0.000 A 
ATOM      4  C   UNL     1      62.385  41.119  54.171  0.00  0.00    +0.000 A 
ATOM      5  C   UNL     1      61.423  39.250  53.741  0.00  0.00    +0.000 A 
ATOM      6  H   UNL     1      63.519  40.392  55.808  0.00  0.00    +0.000 HD
ENDROOT
BRANCH   3   9
ATOM      7 BR   UNL     1      64.912  32.257  54.700  0.00  0.00    +0.000 Br
ATOM      8  N   UNL     1      62.337  36.234  57.178  0.00  0.00    +0.000 N 
ATOM      9  C   UNL     1      62.437  37.730  55.541  0.00  0.00    +0.000 A 
ATOM     10  C   UNL     1      63.084  36.542  55.095  0.00  0.00    +0.000 A 
ATOM     11  C   UNL     1      63.005  35.621  56.144  0.00  0.00    +0.000 A 
ATOM     12  C   UNL     1      61.991  37.508  56.823  0.00  0.00    +0.000 A 
ATOM     13  C   UNL     1      63.730  36.151  53.906  0.00  0.00    +0.000 A 
ATOM     14  C   UNL     1      63.539  34.329  56.065  0.00  0.00    +0.000 A 
ATOM     15  C   UNL     1      64.270  34.868  53.806  0.00  0.00    +0.000 A 
ATOM     16  C   UNL     1      64.171  33.982  54.871  0.00  0.00    +0.000 A 
ATOM     17  H   UNL     1      62.131  35.808  58.071  0.00  0.00    +0.000 HD
ENDBRANCH   3   9
BRANCH   4  20
ATOM     18 BR   UNL     1      67.927  45.787  54.103  0.00  0.00    +0.000 Br
ATOM     19  N   UNL     1      62.680  44.755  54.034  0.00  0.00    +0.000 N 
ATOM     20  C   UNL     1      62.806  42.542  54.124  0.00  0.00    +0.000 A 
ATOM     21  C   UNL     1      64.131  43.060  54.131  0.00  0.00    +0.000 A 
ATOM     22  C   UNL     1      64.022  44.451  54.075  0.00  0.00    +0.000 A 
ATOM     23  C   UNL     1      61.936  43.607  54.064  0.00  0.00    +0.000 A 
ATOM     24  C   UNL     1      65.416  42.485  54.180  0.00  0.00    +0.000 A 
ATOM     25  C   UNL     1      65.132  45.301  54.064  0.00  0.00    +0.000 A 
ATOM     26  C   UNL     1      66.538  43.316  54.172  0.00  0.00    +0.000 A 
ATOM     27  C   UNL     1      66.388  44.695  54.114  0.00  0.00    +0.000 A 
ATOM     28  H   UNL     1      62.302  45.692  53.990  0.00  0.00    +0.000 HD
ENDBRANCH   4  20
TORSDOF 2
ENDMDL
MODEL 2
REMARK VINA RESULT:      -6.7     27.471     30.012
REMARK  Name = 179268_Nortopsentin.pdbqt.pdb
REMARK  2 active torsions:
REMARK  status: ('A' for Active; 'I' for Inactive)
REMARK    1  A    between atoms: C_3  and  C_9
REMARK    2  A    between atoms: C_4  and  C_20
REMARK                            x       y       z     vdW  Elec       q    Type
REMARK                         _______ _______ _______ _____ _____    ______ ____
ROOT
ATOM      1  N   UNL     1      60.629  66.497  67.354  0.00  0.00    +0.000 N 
ATOM      2  N   UNL     1      61.659  66.143  69.279  0.00  0.00    +0.000 NA
ATOM      3  C   UNL     1      60.049  65.378  67.886  0.00  0.00    +0.000 A 
ATOM      4  C   UNL     1      61.596  66.930  68.225  0.00  0.00    +0.000 A 
ATOM      5  C   UNL     1      60.704  65.176  69.080  0.00  0.00    +0.000 A 
ATOM      6  H   UNL     1      60.396  66.938  66.477  0.00  0.00    +0.000 HD
ENDROOT
BRANCH   3   9
ATOM      7 BR   UNL     1      53.058  63.454  68.125  0.00  0.00    +0.000 Br
ATOM      8  N   UNL     1      57.927  63.156  65.936  0.00  0.00    +0.000 N 
ATOM      9  C   UNL     1      58.961  64.572  67.297  0.00  0.00    +0.000 A 
ATOM     10  C   UNL     1      57.598  64.486  67.701  0.00  0.00    +0.000 A 
ATOM     11  C   UNL     1      56.974  63.590  66.828  0.00  0.00    +0.000 A 
ATOM     12  C   UNL     1      59.129  63.744  66.212  0.00  0.00    +0.000 A 
ATOM     13  C   UNL     1      56.826  65.078  68.720  0.00  0.00    +0.000 A 
ATOM     14  C   UNL     1      55.618  63.254  66.921  0.00  0.00    +0.000 A 
ATOM     15  C   UNL     1      55.473  64.758  68.831  0.00  0.00    +0.000 A 
ATOM     16  C   UNL     1      54.889  63.862  67.944  0.00  0.00    +0.000 A 
ATOM     17  H   UNL     1      57.764  62.499  65.185  0.00  0.00    +0.000 HD
ENDBRANCH   3   9
BRANCH   4  20
ATOM     18 BR   UNL     1      68.243  69.420  66.763  0.00  0.00    +0.000 Br
ATOM     19  N   UNL     1      63.062  70.246  67.799  0.00  0.00    +0.000 N 
ATOM     20  C   UNL     1      62.452  68.123  68.005  0.00  0.00    +0.000 A 
ATOM     21  C   UNL     1      63.845  68.156  67.717  0.00  0.00    +0.000 A 
ATOM     22  C   UNL     1      64.201  69.501  67.593  0.00  0.00    +0.000 A 
ATOM     23  C   UNL     1      61.999  69.422  68.049  0.00  0.00    +0.000 A 
ATOM     24  C   UNL     1      64.842  67.176  67.548  0.00  0.00    +0.000 A 
ATOM     25  C   UNL     1      65.504  69.920  67.309  0.00  0.00    +0.000 A 
ATOM     26  C   UNL     1      66.151  67.572  67.264  0.00  0.00    +0.000 A 
ATOM     27  C   UNL     1      66.464  68.920  67.149  0.00  0.00    +0.000 A 
ATOM     28  H   UNL     1      63.020  71.256  67.770  0.00  0.00    +0.000 HD
ENDBRANCH   4  20
TORSDOF 2
ENDMDL
MODEL 3
REMARK VINA RESULT:      -6.7     27.457     30.753
REMARK  Name = 179268_Nortopsentin.pdbqt.pdb
REMARK  2 active torsions:
REMARK  status: ('A' for Active; 'I' for Inactive)
REMARK    1  A    between atoms: C_3  and  C_9
REMARK    2  A    between atoms: C_4  and  C_20
REMARK                            x       y       z     vdW  Elec       q    Type
REMARK                         _______ _______ _______ _____ _____    ______ ____
ROOT
ATOM      1  N   UNL     1      60.598  66.464  67.352  0.00  0.00    +0.000 N 
ATOM      2  N   UNL     1      60.554  65.110  69.101  0.00  0.00    +0.000 NA
ATOM      3  C   UNL     1      61.545  66.941  68.216  0.00  0.00    +0.000 A 
ATOM      4  C   UNL     1      60.021  65.358  67.923  0.00  0.00    +0.000 A 
ATOM      5  C   UNL     1      61.501  66.087  69.294  0.00  0.00    +0.000 A 
ATOM      6  H   UNL     1      60.356  66.847  66.452  0.00  0.00    +0.000 HD
ENDROOT
BRANCH   3   9
ATOM      7 BR   UNL     1      68.205  69.433  66.771  0.00  0.00    +0.000 Br
ATOM      8  N   UNL     1      63.037  70.243  67.879  0.00  0.00    +0.000 N 
ATOM      9  C   UNL     1      62.418  68.117  68.023  0.00  0.00    +0.000 A 
ATOM     10  C   UNL     1      63.810  68.152  67.723  0.00  0.00    +0.000 A 
ATOM     11  C   UNL     1      64.170  69.501  67.639  0.00  0.00    +0.000 A 
ATOM     12  C   UNL     1      61.975  69.415  68.111  0.00  0.00    +0.000 A 
ATOM     13  C   UNL     1      64.805  67.178  67.514  0.00  0.00    +0.000 A 
ATOM     14  C   UNL     1      65.474  69.925  67.357  0.00  0.00    +0.000 A 
ATOM     15  C   UNL     1      66.111  67.579  67.231  0.00  0.00    +0.000 A 
ATOM     16  C   UNL     1      66.429  68.929  67.156  0.00  0.00    +0.000 A 
ATOM     17  H   UNL     1      62.994  71.253  67.883  0.00  0.00    +0.000 HD
ENDBRANCH   3   9
BRANCH   4  20
ATOM     18 BR   UNL     1      53.015  63.511  68.001  0.00  0.00    +0.000 Br
ATOM     19  N   UNL     1      57.922  63.153  65.908  0.00  0.00    +0.000 N 
ATOM     20  C   UNL     1      58.945  64.553  67.293  0.00  0.00    +0.000 A 
ATOM     21  C   UNL     1      57.574  64.483  67.668  0.00  0.00    +0.000 A 
ATOM     22  C   UNL     1      56.957  63.597  66.782  0.00  0.00    +0.000 A 
ATOM     23  C   UNL     1      59.129  63.725  66.209  0.00  0.00    +0.000 A 
ATOM     24  C   UNL     1      56.793  65.086  68.674  0.00  0.00    +0.000 A 
ATOM     25  C   UNL     1      55.597  63.280  66.848  0.00  0.00    +0.000 A 
ATOM     26  C   UNL     1      55.433  64.783  68.758  0.00  0.00    +0.000 A 
ATOM     27  C   UNL     1      54.856  63.896  67.858  0.00  0.00    +0.000 A 
ATOM     28  H   UNL     1      57.761  62.498  65.155  0.00  0.00    +0.000 HD
ENDBRANCH   4  20
TORSDOF 2
ENDMDL
MODEL 4
REMARK VINA RESULT:      -6.6     12.456     13.847
REMARK  Name = 179268_Nortopsentin.pdbqt.pdb
REMARK  2 active torsions:
REMARK  status: ('A' for Active; 'I' for Inactive)
REMARK    1  A    between atoms: C_3  and  C_9
REMARK    2  A    between atoms: C_4  and  C_20
REMARK                            x       y       z     vdW  Elec       q    Type
REMARK                         _______ _______ _______ _____ _____    ______ ____
ROOT
ATOM      1  N   UNL     1      53.304  34.965  60.574  0.00  0.00    +0.000 N 
ATOM      2  N   UNL     1      51.294  35.886  60.665  0.00  0.00    +0.000 NA
ATOM      3  C   UNL     1      53.014  35.096  61.904  0.00  0.00    +0.000 A 
ATOM      4  C   UNL     1      52.240  35.454  59.857  0.00  0.00    +0.000 A 
ATOM      5  C   UNL     1      51.763  35.669  61.938  0.00  0.00    +0.000 A 
ATOM      6  H   UNL     1      54.146  34.579  60.175  0.00  0.00    +0.000 HD
ENDROOT
BRANCH   3   9
ATOM      7 BR   UNL     1      58.494  36.853  66.323  0.00  0.00    +0.000 Br
ATOM      8  N   UNL     1      54.673  33.478  64.710  0.00  0.00    +0.000 N 
ATOM      9  C   UNL     1      53.866  34.703  63.045  0.00  0.00    +0.000 A 
ATOM     10  C   UNL     1      54.935  35.426  63.647  0.00  0.00    +0.000 A 
ATOM     11  C   UNL     1      55.422  34.632  64.690  0.00  0.00    +0.000 A 
ATOM     12  C   UNL     1      53.732  33.513  63.720  0.00  0.00    +0.000 A 
ATOM     13  C   UNL     1      55.542  36.676  63.417  0.00  0.00    +0.000 A 
ATOM     14  C   UNL     1      56.485  35.022  65.513  0.00  0.00    +0.000 A 
ATOM     15  C   UNL     1      56.603  37.085  64.225  0.00  0.00    +0.000 A 
ATOM     16  C   UNL     1      57.058  36.266  65.251  0.00  0.00    +0.000 A 
ATOM     17  H   UNL     1      54.799  32.714  65.361  0.00  0.00    +0.000 HD
ENDBRANCH   3   9
BRANCH   4  20
ATOM     18 BR   UNL     1      53.963  32.141  53.647  0.00  0.00    +0.000 Br
ATOM     19  N   UNL     1      51.696  36.179  56.321  0.00  0.00    +0.000 N 
ATOM     20  C   UNL     1      52.171  35.487  58.375  0.00  0.00    +0.000 A 
ATOM     21  C   UNL     1      52.695  34.536  57.456  0.00  0.00    +0.000 A 
ATOM     22  C   UNL     1      52.383  34.996  56.174  0.00  0.00    +0.000 A 
ATOM     23  C   UNL     1      51.563  36.485  57.648  0.00  0.00    +0.000 A 
ATOM     24  C   UNL     1      53.406  33.326  57.584  0.00  0.00    +0.000 A 
ATOM     25  C   UNL     1      52.743  34.310  55.011  0.00  0.00    +0.000 A 
ATOM     26  C   UNL     1      53.776  32.625  56.434  0.00  0.00    +0.000 A 
ATOM     27  C   UNL     1      53.446  33.116  55.178  0.00  0.00    +0.000 A 
ATOM     28  H   UNL     1      51.342  36.740  55.557  0.00  0.00    +0.000 HD
ENDBRANCH   4  20
TORSDOF 2
ENDMDL
MODEL 5
REMARK VINA RESULT:      -6.6     26.655     29.659
REMARK  Name = 179268_Nortopsentin.pdbqt.pdb
REMARK  2 active torsions:
REMARK  status: ('A' for Active; 'I' for Inactive)
REMARK    1  A    between atoms: C_3  and  C_9
REMARK    2  A    between atoms: C_4  and  C_20
REMARK                            x       y       z     vdW  Elec       q    Type
REMARK                         _______ _______ _______ _____ _____    ______ ____
ROOT
ATOM      1  N   UNL     1      60.007  66.778  67.886  0.00  0.00    +0.000 N 
ATOM      2  N   UNL     1      61.530  66.008  69.294  0.00  0.00    +0.000 NA
ATOM      3  C   UNL     1      59.507  65.600  68.368  0.00  0.00    +0.000 A 
ATOM      4  C   UNL     1      61.231  66.989  68.469  0.00  0.00    +0.000 A 
ATOM      5  C   UNL     1      60.468  65.139  69.239  0.00  0.00    +0.000 A 
ATOM      6  H   UNL     1      59.566  67.393  67.219  0.00  0.00    +0.000 HD
ENDROOT
BRANCH   3   9
ATOM      7 BR   UNL     1      55.785  61.466  63.709  0.00  0.00    +0.000 Br
ATOM      8  N   UNL     1      56.080  64.390  68.175  0.00  0.00    +0.000 N 
ATOM      9  C   UNL     1      58.217  64.970  68.021  0.00  0.00    +0.000 A 
ATOM     10  C   UNL     1      57.897  64.156  66.896  0.00  0.00    +0.000 A 
ATOM     11  C   UNL     1      56.549  63.807  67.021  0.00  0.00    +0.000 A 
ATOM     12  C   UNL     1      57.080  65.094  68.785  0.00  0.00    +0.000 A 
ATOM     13  C   UNL     1      58.613  63.678  65.782  0.00  0.00    +0.000 A 
ATOM     14  C   UNL     1      55.880  63.005  66.089  0.00  0.00    +0.000 A 
ATOM     15  C   UNL     1      57.967  62.876  64.841  0.00  0.00    +0.000 A 
ATOM     16  C   UNL     1      56.625  62.552  65.001  0.00  0.00    +0.000 A 
ATOM     17  H   UNL     1      55.134  64.311  68.524  0.00  0.00    +0.000 HD
ENDBRANCH   3   9
BRANCH   4  20
ATOM     18 BR   UNL     1      67.818  69.359  66.595  0.00  0.00    +0.000 Br
ATOM     19  N   UNL     1      62.735  70.280  67.976  0.00  0.00    +0.000 N 
ATOM     20  C   UNL     1      62.095  68.167  68.203  0.00  0.00    +0.000 A 
ATOM     21  C   UNL     1      63.467  68.175  67.824  0.00  0.00    +0.000 A 
ATOM     22  C   UNL     1      63.842  69.514  67.689  0.00  0.00    +0.000 A 
ATOM     23  C   UNL     1      61.673  69.474  68.289  0.00  0.00    +0.000 A 
ATOM     24  C   UNL     1      64.430  67.176  67.581  0.00  0.00    +0.000 A 
ATOM     25  C   UNL     1      65.131  69.909  67.323  0.00  0.00    +0.000 A 
ATOM     26  C   UNL     1      65.725  67.549  67.216  0.00  0.00    +0.000 A 
ATOM     27  C   UNL     1      66.058  68.892  67.092  0.00  0.00    +0.000 A 
ATOM     28  H   UNL     1      62.712  71.290  67.959  0.00  0.00    +0.000 HD
ENDBRANCH   4  20
TORSDOF 2
ENDMDL
MODEL 6
REMARK VINA RESULT:      -6.6     14.179     17.064
REMARK  Name = 179268_Nortopsentin.pdbqt.pdb
REMARK  2 active torsions:
REMARK  status: ('A' for Active; 'I' for Inactive)
REMARK    1  A    between atoms: C_3  and  C_9
REMARK    2  A    between atoms: C_4  and  C_20
REMARK                            x       y       z     vdW  Elec       q    Type
REMARK                         _______ _______ _______ _____ _____    ______ ____
ROOT
ATOM      1  N   UNL     1      49.492  35.932  60.694  0.00  0.00    +0.000 N 
ATOM      2  N   UNL     1      51.611  35.977  61.327  0.00  0.00    +0.000 NA
ATOM      3  C   UNL     1      49.474  35.833  62.057  0.00  0.00    +0.000 A 
ATOM      4  C   UNL     1      50.800  36.017  60.290  0.00  0.00    +0.000 A 
ATOM      5  C   UNL     1      50.799  35.862  62.430  0.00  0.00    +0.000 A 
ATOM      6  H   UNL     1      48.692  35.943  60.079  0.00  0.00    +0.000 HD
ENDROOT
BRANCH   3   9
ATOM      7 BR   UNL     1      45.175  39.001  66.969  0.00  0.00    +0.000 Br
ATOM      8  N   UNL     1      46.495  34.832  63.892  0.00  0.00    +0.000 N 
ATOM      9  C   UNL     1      48.287  35.719  62.928  0.00  0.00    +0.000 A 
ATOM     10  C   UNL     1      47.745  36.683  63.825  0.00  0.00    +0.000 A 
ATOM     11  C   UNL     1      46.620  36.098  64.416  0.00  0.00    +0.000 A 
ATOM     12  C   UNL     1      47.496  34.595  62.993  0.00  0.00    +0.000 A 
ATOM     13  C   UNL     1      48.092  37.996  64.199  0.00  0.00    +0.000 A 
ATOM     14  C   UNL     1      45.826  36.758  65.360  0.00  0.00    +0.000 A 
ATOM     15  C   UNL     1      47.314  38.672  65.139  0.00  0.00    +0.000 A 
ATOM     16  C   UNL     1      46.203  38.056  65.703  0.00  0.00    +0.000 A 
ATOM     17  H   UNL     1      45.768  34.172  64.134  0.00  0.00    +0.000 HD
ENDBRANCH   3   9
BRANCH   4  20
ATOM     18 BR   UNL     1      53.569  32.648  54.503  0.00  0.00    +0.000 Br
ATOM     19  N   UNL     1      51.665  37.037  56.893  0.00  0.00    +0.000 N 
ATOM     20  C   UNL     1      51.237  36.139  58.877  0.00  0.00    +0.000 A 
ATOM     21  C   UNL     1      51.773  35.122  58.039  0.00  0.00    +0.000 A 
ATOM     22  C   UNL     1      52.032  35.714  56.800  0.00  0.00    +0.000 A 
ATOM     23  C   UNL     1      51.183  37.304  58.146  0.00  0.00    +0.000 A 
ATOM     24  C   UNL     1      52.064  33.754  58.207  0.00  0.00    +0.000 A 
ATOM     25  C   UNL     1      52.568  35.009  55.718  0.00  0.00    +0.000 A 
ATOM     26  C   UNL     1      52.601  33.032  57.140  0.00  0.00    +0.000 A 
ATOM     27  C   UNL     1      52.844  33.656  55.924  0.00  0.00    +0.000 A 
ATOM     28  H   UNL     1      51.741  37.711  56.143  0.00  0.00    +0.000 HD
ENDBRANCH   4  20
TORSDOF 2
ENDMDL
MODEL 7
REMARK VINA RESULT:      -6.5     12.444     13.897
REMARK  Name = 179268_Nortopsentin.pdbqt.pdb
REMARK  2 active torsions:
REMARK  status: ('A' for Active; 'I' for Inactive)
REMARK    1  A    between atoms: C_3  and  C_9
REMARK    2  A    between atoms: C_4  and  C_20
REMARK                            x       y       z     vdW  Elec       q    Type
REMARK                         _______ _______ _______ _____ _____    ______ ____
ROOT
ATOM      1  N   UNL     1      52.776  35.209  60.754  0.00  0.00    +0.000 N 
ATOM      2  N   UNL     1      51.024  35.771  61.982  0.00  0.00    +0.000 NA
ATOM      3  C   UNL     1      51.795  35.556  59.866  0.00  0.00    +0.000 A 
ATOM      4  C   UNL     1      52.271  35.352  62.022  0.00  0.00    +0.000 A 
ATOM      5  C   UNL     1      50.717  35.901  60.649  0.00  0.00    +0.000 A 
ATOM      6  H   UNL     1      53.710  34.901  60.531  0.00  0.00    +0.000 HD
ENDROOT
BRANCH   3   9
ATOM      7 BR   UNL     1      54.131  32.166  53.891  0.00  0.00    +0.000 Br
ATOM      8  N   UNL     1      51.621  36.230  56.294  0.00  0.00    +0.000 N 
ATOM      9  C   UNL     1      51.886  35.555  58.392  0.00  0.00    +0.000 A 
ATOM     10  C   UNL     1      52.497  34.593  57.538  0.00  0.00    +0.000 A 
ATOM     11  C   UNL     1      52.315  35.044  56.227  0.00  0.00    +0.000 A 
ATOM     12  C   UNL     1      51.358  36.546  57.597  0.00  0.00    +0.000 A 
ATOM     13  C   UNL     1      53.188  33.383  57.741  0.00  0.00    +0.000 A 
ATOM     14  C   UNL     1      52.789  34.348  55.109  0.00  0.00    +0.000 A 
ATOM     15  C   UNL     1      53.669  32.672  56.641  0.00  0.00    +0.000 A 
ATOM     16  C   UNL     1      53.467  33.154  55.353  0.00  0.00    +0.000 A 
ATOM     17  H   UNL     1      51.345  36.788  55.497  0.00  0.00    +0.000 HD
ENDBRANCH   3   9
BRANCH   4  20
ATOM     18 BR   UNL     1      58.247  36.711  65.888  0.00  0.00    +0.000 Br
ATOM     19  N   UNL     1      53.564  34.212  65.240  0.00  0.00    +0.000 N 
ATOM     20  C   UNL     1      53.033  35.073  63.265  0.00  0.00    +0.000 A 
ATOM     21  C   UNL     1      54.290  35.612  63.657  0.00  0.00    +0.000 A 
ATOM     22  C   UNL     1      54.599  35.054  64.900  0.00  0.00    +0.000 A 
ATOM     23  C   UNL     1      52.612  34.216  64.257  0.00  0.00    +0.000 A 
ATOM     24  C   UNL     1      55.199  36.521  63.081  0.00  0.00    +0.000 A 
ATOM     25  C   UNL     1      55.771  35.357  65.600  0.00  0.00    +0.000 A 
ATOM     26  C   UNL     1      56.376  36.836  63.762  0.00  0.00    +0.000 A 
ATOM     27  C   UNL     1      56.647  36.260  64.996  0.00  0.00    +0.000 A 
ATOM     28  H   UNL     1      53.517  33.671  66.092  0.00  0.00    +0.000 HD
ENDBRANCH   4  20
TORSDOF 2
ENDMDL
MODEL 8
REMARK VINA RESULT:      -6.5     26.593     30.182
REMARK  Name = 179268_Nortopsentin.pdbqt.pdb
REMARK  2 active torsions:
REMARK  status: ('A' for Active; 'I' for Inactive)
REMARK    1  A    between atoms: C_3  and  C_9
REMARK    2  A    between atoms: C_4  and  C_20
REMARK                            x       y       z     vdW  Elec       q    Type
REMARK                         _______ _______ _______ _____ _____    ______ ____
ROOT
ATOM      1  N   UNL     1      60.146  66.433  67.837  0.00  0.00    +0.000 N 
ATOM      2  N   UNL     1      61.506  65.678  69.410  0.00  0.00    +0.000 NA
ATOM      3  C   UNL     1      59.514  65.352  68.388  0.00  0.00    +0.000 A 
ATOM      4  C   UNL     1      61.346  66.597  68.480  0.00  0.00    +0.000 A 
ATOM      5  C   UNL     1      60.376  64.899  69.361  0.00  0.00    +0.000 A 
ATOM      6  H   UNL     1      59.802  67.015  67.088  0.00  0.00    +0.000 HD
ENDROOT
BRANCH   3   9
ATOM      7 BR   UNL     1      55.637  61.523  63.597  0.00  0.00    +0.000 Br
ATOM      8  N   UNL     1      56.030  64.336  68.127  0.00  0.00    +0.000 N 
ATOM      9  C   UNL     1      58.197  64.801  68.011  0.00  0.00    +0.000 A 
ATOM     10  C   UNL     1      57.849  64.029  66.867  0.00  0.00    +0.000 A 
ATOM     11  C   UNL     1      56.482  63.752  66.967  0.00  0.00    +0.000 A 
ATOM     12  C   UNL     1      57.058  64.971  68.764  0.00  0.00    +0.000 A 
ATOM     13  C   UNL     1      58.553  63.534  65.752  0.00  0.00    +0.000 A 
ATOM     14  C   UNL     1      55.783  63.006  66.010  0.00  0.00    +0.000 A 
ATOM     15  C   UNL     1      57.877  62.788  64.786  0.00  0.00    +0.000 A 
ATOM     16  C   UNL     1      56.518  62.535  64.922  0.00  0.00    +0.000 A 
ATOM     17  H   UNL     1      55.076  64.301  68.463  0.00  0.00    +0.000 HD
ENDBRANCH   3   9
BRANCH   4  20
ATOM     18 BR   UNL     1      62.814  73.691  68.660  0.00  0.00    +0.000 Br
ATOM     19  N   UNL     1      64.179  68.662  67.460  0.00  0.00    +0.000 N 
ATOM     20  C   UNL     1      62.326  67.668  68.169  0.00  0.00    +0.000 A 
ATOM     21  C   UNL     1      62.190  69.067  68.394  0.00  0.00    +0.000 A 
ATOM     22  C   UNL     1      63.368  69.666  67.939  0.00  0.00    +0.000 A 
ATOM     23  C   UNL     1      63.558  67.450  67.594  0.00  0.00    +0.000 A 
ATOM     24  C   UNL     1      61.183  69.887  68.940  0.00  0.00    +0.000 A 
ATOM     25  C   UNL     1      63.593  71.044  68.001  0.00  0.00    +0.000 A 
ATOM     26  C   UNL     1      61.387  71.266  69.010  0.00  0.00    +0.000 A 
ATOM     27  C   UNL     1      62.572  71.823  68.548  0.00  0.00    +0.000 A 
ATOM     28  H   UNL     1      65.099  68.803  67.067  0.00  0.00    +0.000 HD
ENDBRANCH   4  20
TORSDOF 2
ENDMDL
MODEL 9
REMARK VINA RESULT:      -6.4     10.788     13.487
REMARK  Name = 179268_Nortopsentin.pdbqt.pdb
REMARK  2 active torsions:
REMARK  status: ('A' for Active; 'I' for Inactive)
REMARK    1  A    between atoms: C_3  and  C_9
REMARK    2  A    between atoms: C_4  and  C_20
REMARK                            x       y       z     vdW  Elec       q    Type
REMARK                         _______ _______ _______ _____ _____    ______ ____
ROOT
ATOM      1  N   UNL     1      53.888  33.800  56.447  0.00  0.00    +0.000 N 
ATOM      2  N   UNL     1      51.819  33.427  55.759  0.00  0.00    +0.000 NA
ATOM      3  C   UNL     1      53.998  32.953  55.379  0.00  0.00    +0.000 A 
ATOM      4  C   UNL     1      52.556  34.063  56.645  0.00  0.00    +0.000 A 
ATOM      5  C   UNL     1      52.703  32.735  54.967  0.00  0.00    +0.000 A 
ATOM      6  H   UNL     1      54.643  34.173  57.001  0.00  0.00    +0.000 HD
ENDROOT
BRANCH   3   9
ATOM      7 BR   UNL     1      58.680  32.934  49.836  0.00  0.00    +0.000 Br
ATOM      8  N   UNL     1      57.080  31.172  54.624  0.00  0.00    +0.000 N 
ATOM      9  C   UNL     1      55.241  32.401  54.803  0.00  0.00    +0.000 A 
ATOM     10  C   UNL     1      55.860  32.711  53.559  0.00  0.00    +0.000 A 
ATOM     11  C   UNL     1      57.013  31.924  53.474  0.00  0.00    +0.000 A 
ATOM     12  C   UNL     1      56.015  31.453  55.431  0.00  0.00    +0.000 A 
ATOM     13  C   UNL     1      55.562  33.580  52.491  0.00  0.00    +0.000 A 
ATOM     14  C   UNL     1      57.882  31.961  52.377  0.00  0.00    +0.000 A 
ATOM     15  C   UNL     1      56.415  33.634  51.388  0.00  0.00    +0.000 A 
ATOM     16  C   UNL     1      57.551  32.835  51.342  0.00  0.00    +0.000 A 
ATOM     17  H   UNL     1      57.810  30.507  54.842  0.00  0.00    +0.000 HD
ENDBRANCH   3   9
BRANCH   4  20
ATOM     18 BR   UNL     1      48.025  34.703  62.264  0.00  0.00    +0.000 Br
ATOM     19  N   UNL     1      51.722  36.742  58.981  0.00  0.00    +0.000 N 
ATOM     20  C   UNL     1      52.024  34.945  57.714  0.00  0.00    +0.000 A 
ATOM     21  C   UNL     1      51.046  34.632  58.698  0.00  0.00    +0.000 A 
ATOM     22  C   UNL     1      50.875  35.777  59.479  0.00  0.00    +0.000 A 
ATOM     23  C   UNL     1      52.421  36.248  57.913  0.00  0.00    +0.000 A 
ATOM     24  C   UNL     1      50.285  33.486  59.005  0.00  0.00    +0.000 A 
ATOM     25  C   UNL     1      49.983  35.839  60.554  0.00  0.00    +0.000 A 
ATOM     26  C   UNL     1      49.388  33.527  60.073  0.00  0.00    +0.000 A 
ATOM     27  C   UNL     1      49.247  34.685  60.826  0.00  0.00    +0.000 A 
ATOM     28  H   UNL     1      51.811  37.678  59.353  0.00  0.00    +0.000 HD
ENDBRANCH   4  20
TORSDOF 2
ENDMDL
