MODEL 1
REMARK VINA RESULT:      -4.7      0.000      0.000
REMARK  Name = 21574552_Mertensene.pdbqt.pdb
REMARK  1 active torsions:
REMARK  status: ('A' for Active; 'I' for Inactive)
REMARK    1  A    between atoms: C_4  and  C_13
REMARK                            x       y       z     vdW  Elec       q    Type
REMARK                         _______ _______ _______ _____ _____    ______ ____
ROOT
ATOM      1 BR   UNL     1      48.851  32.627  60.748  0.00  0.00    +0.000 Br
ATOM      2 CL   UNL     1      51.041  37.047  57.427  0.00  0.00    +0.000 Cl
ATOM      3 CL   UNL     1      51.412  33.926  56.113  0.00  0.00    +0.000 Cl
ATOM      4  C   UNL     1      50.546  35.088  60.703  0.00  0.00    +0.000 C 
ATOM      5  C   UNL     1      51.340  35.774  59.677  0.00  0.00    +0.000 C 
ATOM      6  C   UNL     1      51.822  35.706  58.301  0.00  0.00    +0.000 C 
ATOM      7  C   UNL     1      50.106  33.768  60.020  0.00  0.00    +0.000 C 
ATOM      8  C   UNL     1      51.342  34.349  57.769  0.00  0.00    +0.000 C 
ATOM      9  C   UNL     1      50.553  33.585  58.678  0.00  0.00    +0.000 C 
ATOM     10  C   UNL     1      51.430  34.760  61.927  0.00  0.00    +0.000 C 
ATOM     11  C   UNL     1      53.343  35.864  58.192  0.00  0.00    +0.000 C 
ENDROOT
BRANCH   4  13
ATOM     12 CL   UNL     1      47.009  37.515  61.780  0.00  0.00    +0.000 Cl
ATOM     13  C   UNL     1      49.367  35.890  61.066  0.00  0.00    +0.000 C 
ATOM     14  C   UNL     1      48.407  36.547  61.359  0.00  0.00    +0.000 C 
ENDBRANCH   4  13
TORSDOF 1
ENDMDL
MODEL 2
REMARK VINA RESULT:      -4.5     26.812     27.952
REMARK  Name = 21574552_Mertensene.pdbqt.pdb
REMARK  1 active torsions:
REMARK  status: ('A' for Active; 'I' for Inactive)
REMARK    1  A    between atoms: C_4  and  C_13
REMARK                            x       y       z     vdW  Elec       q    Type
REMARK                         _______ _______ _______ _____ _____    ______ ____
ROOT
ATOM      1 BR   UNL     1      50.809  53.579  82.993  0.00  0.00    +0.000 Br
ATOM      2 CL   UNL     1      47.841  52.581  77.938  0.00  0.00    +0.000 Cl
ATOM      3 CL   UNL     1      49.226  55.680  78.218  0.00  0.00    +0.000 Cl
ATOM      4  C   UNL     1      48.283  52.563  81.761  0.00  0.00    +0.000 C 
ATOM      5  C   UNL     1      47.562  52.836  80.513  0.00  0.00    +0.000 C 
ATOM      6  C   UNL     1      47.530  53.668  79.313  0.00  0.00    +0.000 C 
ATOM      7  C   UNL     1      49.415  53.621  81.784  0.00  0.00    +0.000 C 
ATOM      8  C   UNL     1      48.675  54.676  79.488  0.00  0.00    +0.000 C 
ATOM      9  C   UNL     1      49.455  54.510  80.670  0.00  0.00    +0.000 C 
ATOM     10  C   UNL     1      47.350  52.788  82.973  0.00  0.00    +0.000 C 
ATOM     11  C   UNL     1      46.179  54.360  79.102  0.00  0.00    +0.000 C 
ENDROOT
BRANCH   4  13
ATOM     12 CL   UNL     1      49.981  48.480  81.692  0.00  0.00    +0.000 Cl
ATOM     13  C   UNL     1      48.854  51.207  81.742  0.00  0.00    +0.000 C 
ATOM     14  C   UNL     1      49.317  50.100  81.724  0.00  0.00    +0.000 C 
ENDBRANCH   4  13
TORSDOF 1
ENDMDL
MODEL 3
REMARK VINA RESULT:      -4.3     33.987     35.098
REMARK  Name = 21574552_Mertensene.pdbqt.pdb
REMARK  1 active torsions:
REMARK  status: ('A' for Active; 'I' for Inactive)
REMARK    1  A    between atoms: C_4  and  C_13
REMARK                            x       y       z     vdW  Elec       q    Type
REMARK                         _______ _______ _______ _____ _____    ______ ____
ROOT
ATOM      1 BR   UNL     1      62.275  67.532  64.531  0.00  0.00    +0.000 Br
ATOM      2 CL   UNL     1      61.282  65.268  69.939  0.00  0.00    +0.000 Cl
ATOM      3 CL   UNL     1      58.797  64.744  67.669  0.00  0.00    +0.000 Cl
ATOM      4  C   UNL     1      62.292  68.047  67.475  0.00  0.00    +0.000 C 
ATOM      5  C   UNL     1      61.563  67.495  68.622  0.00  0.00    +0.000 C 
ATOM      6  C   UNL     1      60.498  66.583  69.029  0.00  0.00    +0.000 C 
ATOM      7  C   UNL     1      61.598  67.411  66.243  0.00  0.00    +0.000 C 
ATOM      8  C   UNL     1      59.889  66.060  67.721  0.00  0.00    +0.000 C 
ATOM      9  C   UNL     1      60.518  66.525  66.529  0.00  0.00    +0.000 C 
ATOM     10  C   UNL     1      62.119  69.581  67.423  0.00  0.00    +0.000 C 
ATOM     11  C   UNL     1      59.451  67.250  69.928  0.00  0.00    +0.000 C 
ENDROOT
BRANCH   4  13
ATOM     12 CL   UNL     1      66.551  66.859  67.601  0.00  0.00    +0.000 Cl
ATOM     13  C   UNL     1      63.707  67.647  67.522  0.00  0.00    +0.000 C 
ATOM     14  C   UNL     1      64.863  67.324  67.558  0.00  0.00    +0.000 C 
ENDBRANCH   4  13
TORSDOF 1
ENDMDL
MODEL 4
REMARK VINA RESULT:      -4.1     13.757     15.729
REMARK  Name = 21574552_Mertensene.pdbqt.pdb
REMARK  1 active torsions:
REMARK  status: ('A' for Active; 'I' for Inactive)
REMARK    1  A    between atoms: C_4  and  C_13
REMARK                            x       y       z     vdW  Elec       q    Type
REMARK                         _______ _______ _______ _____ _____    ______ ____
ROOT
ATOM      1 BR   UNL     1      48.496  41.079  72.128  0.00  0.00    +0.000 Br
ATOM      2 CL   UNL     1      42.778  42.556  71.430  0.00  0.00    +0.000 Cl
ATOM      3 CL   UNL     1      44.568  42.286  68.545  0.00  0.00    +0.000 Cl
ATOM      4  C   UNL     1      46.275  42.876  73.005  0.00  0.00    +0.000 C 
ATOM      5  C   UNL     1      45.055  43.391  72.374  0.00  0.00    +0.000 C 
ATOM      6  C   UNL     1      44.290  43.449  71.132  0.00  0.00    +0.000 C 
ATOM      7  C   UNL     1      47.022  42.156  71.855  0.00  0.00    +0.000 C 
ATOM      8  C   UNL     1      45.156  42.731  70.088  0.00  0.00    +0.000 C 
ATOM      9  C   UNL     1      46.374  42.181  70.584  0.00  0.00    +0.000 C 
ATOM     10  C   UNL     1      47.140  44.047  73.522  0.00  0.00    +0.000 C 
ATOM     11  C   UNL     1      43.944  44.880  70.709  0.00  0.00    +0.000 C 
ENDROOT
BRANCH   4  13
ATOM     12 CL   UNL     1      45.289  39.994  76.212  0.00  0.00    +0.000 Cl
ATOM     13  C   UNL     1      45.940  41.919  74.071  0.00  0.00    +0.000 C 
ATOM     14  C   UNL     1      45.670  41.137  74.941  0.00  0.00    +0.000 C 
ENDBRANCH   4  13
TORSDOF 1
ENDMDL
MODEL 5
REMARK VINA RESULT:      -4.0      2.953      5.381
REMARK  Name = 21574552_Mertensene.pdbqt.pdb
REMARK  1 active torsions:
REMARK  status: ('A' for Active; 'I' for Inactive)
REMARK    1  A    between atoms: C_4  and  C_13
REMARK                            x       y       z     vdW  Elec       q    Type
REMARK                         _______ _______ _______ _____ _____    ______ ____
ROOT
ATOM      1 BR   UNL     1      53.570  30.660  58.172  0.00  0.00    +0.000 Br
ATOM      2 CL   UNL     1      52.668  36.533  58.420  0.00  0.00    +0.000 Cl
ATOM      3 CL   UNL     1      53.486  35.065  61.383  0.00  0.00    +0.000 Cl
ATOM      4  C   UNL     1      51.765  32.924  57.431  0.00  0.00    +0.000 C 
ATOM      5  C   UNL     1      51.491  34.251  57.995  0.00  0.00    +0.000 C 
ATOM      6  C   UNL     1      51.774  35.154  59.107  0.00  0.00    +0.000 C 
ATOM      7  C   UNL     1      52.684  32.250  58.481  0.00  0.00    +0.000 C 
ATOM      8  C   UNL     1      52.657  34.349  60.070  0.00  0.00    +0.000 C 
ATOM      9  C   UNL     1      52.997  33.037  59.629  0.00  0.00    +0.000 C 
ATOM     10  C   UNL     1      50.453  32.118  57.308  0.00  0.00    +0.000 C 
ATOM     11  C   UNL     1      50.505  35.678  59.788  0.00  0.00    +0.000 C 
ENDROOT
BRANCH   4  13
ATOM     12 CL   UNL     1      53.897  33.291  53.574  0.00  0.00    +0.000 Cl
ATOM     13  C   UNL     1      52.468  33.045  56.144  0.00  0.00    +0.000 C 
ATOM     14  C   UNL     1      53.045  33.145  55.096  0.00  0.00    +0.000 C 
ENDBRANCH   4  13
TORSDOF 1
ENDMDL
MODEL 6
REMARK VINA RESULT:      -3.9     31.818     33.744
REMARK  Name = 21574552_Mertensene.pdbqt.pdb
REMARK  1 active torsions:
REMARK  status: ('A' for Active; 'I' for Inactive)
REMARK    1  A    between atoms: C_4  and  C_13
REMARK                            x       y       z     vdW  Elec       q    Type
REMARK                         _______ _______ _______ _____ _____    ______ ____
ROOT
ATOM      1 BR   UNL     1      56.242  58.830  83.780  0.00  0.00    +0.000 Br
ATOM      2 CL   UNL     1      51.213  60.774  81.273  0.00  0.00    +0.000 Cl
ATOM      3 CL   UNL     1      51.159  57.527  82.300  0.00  0.00    +0.000 Cl
ATOM      4  C   UNL     1      55.023  60.271  81.462  0.00  0.00    +0.000 C 
ATOM      5  C   UNL     1      53.715  60.237  80.800  0.00  0.00    +0.000 C 
ATOM      6  C   UNL     1      52.417  59.568  80.759  0.00  0.00    +0.000 C 
ATOM      7  C   UNL     1      54.967  59.097  82.472  0.00  0.00    +0.000 C 
ATOM      8  C   UNL     1      52.519  58.423  81.776  0.00  0.00    +0.000 C 
ATOM      9  C   UNL     1      53.751  58.353  82.490  0.00  0.00    +0.000 C 
ATOM     10  C   UNL     1      56.146  60.006  80.433  0.00  0.00    +0.000 C 
ATOM     11  C   UNL     1      52.048  59.065  79.359  0.00  0.00    +0.000 C 
ENDROOT
BRANCH   4  13
ATOM     12 CL   UNL     1      55.597  64.108  83.585  0.00  0.00    +0.000 Cl
ATOM     13  C   UNL     1      55.209  61.545  82.174  0.00  0.00    +0.000 C 
ATOM     14  C   UNL     1      55.363  62.585  82.751  0.00  0.00    +0.000 C 
ENDBRANCH   4  13
TORSDOF 1
ENDMDL
MODEL 7
REMARK VINA RESULT:      -3.9     13.416     15.665
REMARK  Name = 21574552_Mertensene.pdbqt.pdb
REMARK  1 active torsions:
REMARK  status: ('A' for Active; 'I' for Inactive)
REMARK    1  A    between atoms: C_4  and  C_13
REMARK                            x       y       z     vdW  Elec       q    Type
REMARK                         _______ _______ _______ _____ _____    ______ ____
ROOT
ATOM      1 BR   UNL     1      41.294  41.549  71.677  0.00  0.00    +0.000 Br
ATOM      2 CL   UNL     1      47.186  42.212  71.226  0.00  0.00    +0.000 Cl
ATOM      3 CL   UNL     1      46.057  41.345  74.321  0.00  0.00    +0.000 Cl
ATOM      4  C   UNL     1      43.527  43.290  70.719  0.00  0.00    +0.000 C 
ATOM      5  C   UNL     1      44.922  43.492  71.123  0.00  0.00    +0.000 C 
ATOM      6  C   UNL     1      45.942  43.134  72.105  0.00  0.00    +0.000 C 
ATOM      7  C   UNL     1      42.946  42.361  71.815  0.00  0.00    +0.000 C 
ATOM      8  C   UNL     1      45.223  42.248  73.132  0.00  0.00    +0.000 C 
ATOM      9  C   UNL     1      43.853  41.976  72.846  0.00  0.00    +0.000 C 
ATOM     10  C   UNL     1      42.769  44.637  70.737  0.00  0.00    +0.000 C 
ATOM     11  C   UNL     1      46.599  44.356  72.756  0.00  0.00    +0.000 C 
ENDROOT
BRANCH   4  13
ATOM     12 CL   UNL     1      43.346  41.308  66.769  0.00  0.00    +0.000 Cl
ATOM     13  C   UNL     1      43.459  42.630  69.406  0.00  0.00    +0.000 C 
ATOM     14  C   UNL     1      43.408  42.092  68.334  0.00  0.00    +0.000 C 
ENDBRANCH   4  13
TORSDOF 1
ENDMDL
MODEL 8
REMARK VINA RESULT:      -3.8     22.537     24.112
REMARK  Name = 21574552_Mertensene.pdbqt.pdb
REMARK  1 active torsions:
REMARK  status: ('A' for Active; 'I' for Inactive)
REMARK    1  A    between atoms: C_4  and  C_13
REMARK                            x       y       z     vdW  Elec       q    Type
REMARK                         _______ _______ _______ _____ _____    ______ ____
ROOT
ATOM      1 BR   UNL     1      60.947  57.927  60.361  0.00  0.00    +0.000 Br
ATOM      2 CL   UNL     1      64.712  53.873  58.182  0.00  0.00    +0.000 Cl
ATOM      3 CL   UNL     1      61.610  53.874  56.776  0.00  0.00    +0.000 Cl
ATOM      4  C   UNL     1      62.908  55.766  61.006  0.00  0.00    +0.000 C 
ATOM      5  C   UNL     1      63.384  54.565  60.311  0.00  0.00    +0.000 C 
ATOM      6  C   UNL     1      63.211  53.725  59.129  0.00  0.00    +0.000 C 
ATOM      7  C   UNL     1      61.746  56.281  60.119  0.00  0.00    +0.000 C 
ATOM      8  C   UNL     1      62.021  54.331  58.372  0.00  0.00    +0.000 C 
ATOM      9  C   UNL     1      61.470  55.511  58.951  0.00  0.00    +0.000 C 
ATOM     10  C   UNL     1      62.359  55.389  62.400  0.00  0.00    +0.000 C 
ATOM     11  C   UNL     1      62.986  52.249  59.472  0.00  0.00    +0.000 C 
ENDROOT
BRANCH   4  13
ATOM     12 CL   UNL     1      66.131  58.787  61.228  0.00  0.00    +0.000 Cl
ATOM     13  C   UNL     1      63.975  56.776  61.082  0.00  0.00    +0.000 C 
ATOM     14  C   UNL     1      64.848  57.597  61.143  0.00  0.00    +0.000 C 
ENDBRANCH   4  13
TORSDOF 1
ENDMDL
MODEL 9
REMARK VINA RESULT:      -3.7     20.525     21.540
REMARK  Name = 21574552_Mertensene.pdbqt.pdb
REMARK  1 active torsions:
REMARK  status: ('A' for Active; 'I' for Inactive)
REMARK    1  A    between atoms: C_4  and  C_13
REMARK                            x       y       z     vdW  Elec       q    Type
REMARK                         _______ _______ _______ _____ _____    ______ ____
ROOT
ATOM      1 BR   UNL     1      69.372  38.049  62.379  0.00  0.00    +0.000 Br
ATOM      2 CL   UNL     1      70.613  43.383  64.695  0.00  0.00    +0.000 Cl
ATOM      3 CL   UNL     1      70.186  43.333  61.317  0.00  0.00    +0.000 Cl
ATOM      4  C   UNL     1      71.159  39.605  64.200  0.00  0.00    +0.000 C 
ATOM      5  C   UNL     1      71.587  41.006  64.274  0.00  0.00    +0.000 C 
ATOM      6  C   UNL     1      71.528  42.306  63.611  0.00  0.00    +0.000 C 
ATOM      7  C   UNL     1      70.379  39.518  62.864  0.00  0.00    +0.000 C 
ATOM      8  C   UNL     1      70.763  42.061  62.304  0.00  0.00    +0.000 C 
ATOM      9  C   UNL     1      70.289  40.730  62.118  0.00  0.00    +0.000 C 
ATOM     10  C   UNL     1      72.391  38.676  64.134  0.00  0.00    +0.000 C 
ATOM     11  C   UNL     1      72.913  42.914  63.364  0.00  0.00    +0.000 C 
ENDROOT
BRANCH   4  13
ATOM     12 CL   UNL     1      68.513  38.616  67.604  0.00  0.00    +0.000 Cl
ATOM     13  C   UNL     1      70.273  39.276  65.328  0.00  0.00    +0.000 C 
ATOM     14  C   UNL     1      69.553  39.008  66.251  0.00  0.00    +0.000 C 
ENDBRANCH   4  13
TORSDOF 1
ENDMDL
