MODEL 1
REMARK VINA RESULT:      -7.4      0.000      0.000
REMARK  Name = 222284_BetaSitosterol.pdbqt.pdb
REMARK  5 active torsions:
REMARK  status: ('A' for Active; 'I' for Inactive)
REMARK    1  A    between atoms: C_5  and  C_22
REMARK    2  A    between atoms: C_19  and  O_20
REMARK    3  A    between atoms: C_22  and  C_24
REMARK    4  A    between atoms: C_25  and  C_26
REMARK    5  A    between atoms: C_26  and  C_30
REMARK                            x       y       z     vdW  Elec       q    Type
REMARK                         _______ _______ _______ _____ _____    ______ ____
ROOT
ATOM      1  C   UNL     1      63.578  51.338  58.615  0.00  0.00    +0.000 C 
ATOM      2  C   UNL     1      62.070  51.895  58.738  0.00  0.00    +0.000 C 
ATOM      3  C   UNL     1      61.746  53.118  59.500  0.00  0.00    +0.000 C 
ATOM      4  C   UNL     1      62.738  54.140  59.997  0.00  0.00    +0.000 C 
ATOM      5  C   UNL     1      63.695  50.937  57.152  0.00  0.00    +0.000 C 
ATOM      6  C   UNL     1      64.433  52.467  58.987  0.00  0.00    +0.000 C 
ATOM      7  C   UNL     1      62.349  55.370  60.862  0.00  0.00    +0.000 C 
ATOM      8  C   UNL     1      61.425  51.644  57.486  0.00  0.00    +0.000 C 
ATOM      9  C   UNL     1      64.068  53.771  59.653  0.00  0.00    +0.000 C 
ATOM     10  C   UNL     1      62.433  51.099  56.510  0.00  0.00    +0.000 C 
ATOM     11  C   UNL     1      60.403  53.509  59.720  0.00  0.00    +0.000 C 
ATOM     12  C   UNL     1      63.718  50.111  59.552  0.00  0.00    +0.000 C 
ATOM     13  C   UNL     1      60.737  55.729  60.831  0.00  0.00    +0.000 C 
ATOM     14  C   UNL     1      63.002  56.602  60.330  0.00  0.00    +0.000 C 
ATOM     15  C   UNL     1      59.970  54.788  60.370  0.00  0.00    +0.000 C 
ATOM     16  C   UNL     1      62.729  55.088  62.344  0.00  0.00    +0.000 C 
ATOM     17  C   UNL     1      60.413  57.092  60.477  0.00  0.00    +0.000 C 
ATOM     18  C   UNL     1      62.494  57.997  59.926  0.00  0.00    +0.000 C 
ATOM     19  C   UNL     1      61.098  58.267  60.031  0.00  0.00    +0.000 C 
ENDROOT
BRANCH  19  20
ATOM     20  O   UNL     1      60.636  59.521  60.301  0.00  0.00    +0.000 OA
ATOM     21  H   UNL     1      61.244  60.204  59.973  0.00  0.00    +0.000 HD
ENDBRANCH  19  20
BRANCH   5  22
ATOM     22  C   UNL     1      64.904  50.522  56.513  0.00  0.00    +0.000 C 
ATOM     23  C   UNL     1      66.057  51.464  56.274  0.00  0.00    +0.000 C 
BRANCH  22  24
ATOM     24  C   UNL     1      65.110  49.185  56.077  0.00  0.00    +0.000 C 
ATOM     25  C   UNL     1      65.304  47.734  55.611  0.00  0.00    +0.000 C 
BRANCH  25  26
ATOM     26  C   UNL     1      65.474  46.380  55.192  0.00  0.00    +0.000 C 
ATOM     27  C   UNL     1      66.742  45.708  55.369  0.00  0.00    +0.000 C 
ATOM     28  C   UNL     1      67.937  46.383  56.015  0.00  0.00    +0.000 C 
ATOM     29  C   UNL     1      67.011  44.292  54.908  0.00  0.00    +0.000 C 
BRANCH  26  30
ATOM     30  C   UNL     1      64.388  45.679  54.603  0.00  0.00    +0.000 C 
ATOM     31  C   UNL     1      63.215  44.960  53.926  0.00  0.00    +0.000 C 
ENDBRANCH  26  30
ENDBRANCH  25  26
ENDBRANCH  22  24
ENDBRANCH   5  22
TORSDOF 5
ENDMDL
MODEL 2
REMARK VINA RESULT:      -7.4      4.425      8.157
REMARK  Name = 222284_BetaSitosterol.pdbqt.pdb
REMARK  5 active torsions:
REMARK  status: ('A' for Active; 'I' for Inactive)
REMARK    1  A    between atoms: C_5  and  C_22
REMARK    2  A    between atoms: C_19  and  O_20
REMARK    3  A    between atoms: C_22  and  C_24
REMARK    4  A    between atoms: C_25  and  C_26
REMARK    5  A    between atoms: C_26  and  C_30
REMARK                            x       y       z     vdW  Elec       q    Type
REMARK                         _______ _______ _______ _____ _____    ______ ____
ROOT
ATOM      1  C   UNL     1      63.495  52.289  58.606  0.00  0.00    +0.000 C 
ATOM      2  C   UNL     1      64.484  51.022  58.735  0.00  0.00    +0.000 C 
ATOM      3  C   UNL     1      65.880  51.161  59.199  0.00  0.00    +0.000 C 
ATOM      4  C   UNL     1      66.473  52.375  59.869  0.00  0.00    +0.000 C 
ATOM      5  C   UNL     1      62.180  51.777  59.174  0.00  0.00    +0.000 C 
ATOM      6  C   UNL     1      64.117  53.341  59.412  0.00  0.00    +0.000 C 
ATOM      7  C   UNL     1      67.969  52.496  60.267  0.00  0.00    +0.000 C 
ATOM      8  C   UNL     1      63.693  49.914  59.177  0.00  0.00    +0.000 C 
ATOM      9  C   UNL     1      65.509  53.413  59.991  0.00  0.00    +0.000 C 
ATOM     10  C   UNL     1      62.299  50.392  59.483  0.00  0.00    +0.000 C 
ATOM     11  C   UNL     1      66.775  50.063  59.166  0.00  0.00    +0.000 C 
ATOM     12  C   UNL     1      63.363  52.647  57.103  0.00  0.00    +0.000 C 
ATOM     13  C   UNL     1      68.769  51.051  60.315  0.00  0.00    +0.000 C 
ATOM     14  C   UNL     1      68.092  53.021  61.659  0.00  0.00    +0.000 C 
ATOM     15  C   UNL     1      68.166  50.065  59.723  0.00  0.00    +0.000 C 
ATOM     16  C   UNL     1      68.700  53.392  59.226  0.00  0.00    +0.000 C 
ATOM     17  C   UNL     1      69.463  50.769  61.550  0.00  0.00    +0.000 C 
ATOM     18  C   UNL     1      68.839  52.554  62.920  0.00  0.00    +0.000 C 
ATOM     19  C   UNL     1      69.600  51.350  62.850  0.00  0.00    +0.000 C 
ENDROOT
BRANCH  19  20
ATOM     20  O   UNL     1      70.720  51.173  63.609  0.00  0.00    +0.000 OA
ATOM     21  H   UNL     1      70.779  50.266  63.951  0.00  0.00    +0.000 HD
ENDBRANCH  19  20
BRANCH   5  22
ATOM     22  C   UNL     1      61.025  52.585  59.415  0.00  0.00    +0.000 C 
ATOM     23  C   UNL     1      61.105  53.924  60.105  0.00  0.00    +0.000 C 
BRANCH  22  24
ATOM     24  C   UNL     1      59.725  52.190  59.002  0.00  0.00    +0.000 C 
ATOM     25  C   UNL     1      58.331  51.744  58.536  0.00  0.00    +0.000 C 
BRANCH  25  26
ATOM     26  C   UNL     1      57.040  51.332  58.084  0.00  0.00    +0.000 C 
ATOM     27  C   UNL     1      55.849  52.022  58.530  0.00  0.00    +0.000 C 
ATOM     28  C   UNL     1      55.902  53.211  59.471  0.00  0.00    +0.000 C 
ATOM     29  C   UNL     1      54.448  51.614  58.132  0.00  0.00    +0.000 C 
BRANCH  26  30
ATOM     30  C   UNL     1      56.920  50.242  57.182  0.00  0.00    +0.000 C 
ATOM     31  C   UNL     1      56.828  49.088  56.177  0.00  0.00    +0.000 C 
ENDBRANCH  26  30
ENDBRANCH  25  26
ENDBRANCH  22  24
ENDBRANCH   5  22
TORSDOF 5
ENDMDL
MODEL 3
REMARK VINA RESULT:      -7.3      4.430      9.145
REMARK  Name = 222284_BetaSitosterol.pdbqt.pdb
REMARK  5 active torsions:
REMARK  status: ('A' for Active; 'I' for Inactive)
REMARK    1  A    between atoms: C_5  and  C_22
REMARK    2  A    between atoms: C_19  and  O_20
REMARK    3  A    between atoms: C_22  and  C_24
REMARK    4  A    between atoms: C_25  and  C_26
REMARK    5  A    between atoms: C_26  and  C_30
REMARK                            x       y       z     vdW  Elec       q    Type
REMARK                         _______ _______ _______ _____ _____    ______ ____
ROOT
ATOM      1  C   UNL     1      64.858  51.977  58.698  0.00  0.00    +0.000 C 
ATOM      2  C   UNL     1      65.947  50.804  58.897  0.00  0.00    +0.000 C 
ATOM      3  C   UNL     1      67.275  51.061  59.491  0.00  0.00    +0.000 C 
ATOM      4  C   UNL     1      67.687  52.308  60.231  0.00  0.00    +0.000 C 
ATOM      5  C   UNL     1      63.551  51.332  59.135  0.00  0.00    +0.000 C 
ATOM      6  C   UNL     1      65.302  53.062  59.575  0.00  0.00    +0.000 C 
ATOM      7  C   UNL     1      69.123  52.558  60.767  0.00  0.00    +0.000 C 
ATOM      8  C   UNL     1      65.228  49.618  59.247  0.00  0.00    +0.000 C 
ATOM      9  C   UNL     1      66.623  53.249  60.280  0.00  0.00    +0.000 C 
ATOM     10  C   UNL     1      63.773  49.956  59.431  0.00  0.00    +0.000 C 
ATOM     11  C   UNL     1      68.270  50.053  59.522  0.00  0.00    +0.000 C 
ATOM     12  C   UNL     1      64.828  52.358  57.196  0.00  0.00    +0.000 C 
ATOM     13  C   UNL     1      70.050  51.193  60.866  0.00  0.00    +0.000 C 
ATOM     14  C   UNL     1      69.071  53.057  62.173  0.00  0.00    +0.000 C 
ATOM     15  C   UNL     1      69.599  50.170  60.205  0.00  0.00    +0.000 C 
ATOM     16  C   UNL     1      69.858  53.543  59.813  0.00  0.00    +0.000 C 
ATOM     17  C   UNL     1      70.653  50.946  62.155  0.00  0.00    +0.000 C 
ATOM     18  C   UNL     1      69.741  52.631  63.490  0.00  0.00    +0.000 C 
ATOM     19  C   UNL     1      70.617  51.505  63.471  0.00  0.00    +0.000 C 
ENDROOT
BRANCH  19  20
ATOM     20  O   UNL     1      71.675  51.415  64.327  0.00  0.00    +0.000 OA
ATOM     21  H   UNL     1      71.958  52.291  64.638  0.00  0.00    +0.000 HD
ENDBRANCH  19  20
BRANCH   5  22
ATOM     22  C   UNL     1      62.308  52.023  59.281  0.00  0.00    +0.000 C 
ATOM     23  C   UNL     1      60.977  51.326  59.155  0.00  0.00    +0.000 C 
BRANCH  22  24
ATOM     24  C   UNL     1      62.244  53.411  59.576  0.00  0.00    +0.000 C 
ATOM     25  C   UNL     1      62.195  54.917  59.874  0.00  0.00    +0.000 C 
BRANCH  25  26
ATOM     26  C   UNL     1      62.168  56.318  60.151  0.00  0.00    +0.000 C 
ATOM     27  C   UNL     1      60.964  57.089  59.932  0.00  0.00    +0.000 C 
ATOM     28  C   UNL     1      59.679  56.463  59.424  0.00  0.00    +0.000 C 
ATOM     29  C   UNL     1      60.874  58.582  60.158  0.00  0.00    +0.000 C 
BRANCH  26  30
ATOM     30  C   UNL     1      63.329  56.963  60.653  0.00  0.00    +0.000 C 
ATOM     31  C   UNL     1      64.613  57.628  61.164  0.00  0.00    +0.000 C 
ENDBRANCH  26  30
ENDBRANCH  25  26
ENDBRANCH  22  24
ENDBRANCH   5  22
TORSDOF 5
ENDMDL
MODEL 4
REMARK VINA RESULT:      -7.2     24.370     28.102
REMARK  Name = 222284_BetaSitosterol.pdbqt.pdb
REMARK  5 active torsions:
REMARK  status: ('A' for Active; 'I' for Inactive)
REMARK    1  A    between atoms: C_5  and  C_22
REMARK    2  A    between atoms: C_19  and  O_20
REMARK    3  A    between atoms: C_22  and  C_24
REMARK    4  A    between atoms: C_25  and  C_26
REMARK    5  A    between atoms: C_26  and  C_30
REMARK                            x       y       z     vdW  Elec       q    Type
REMARK                         _______ _______ _______ _____ _____    ______ ____
ROOT
ATOM      1  C   UNL     1      52.788  59.547  81.947  0.00  0.00    +0.000 C 
ATOM      2  C   UNL     1      52.278  58.069  82.340  0.00  0.00    +0.000 C 
ATOM      3  C   UNL     1      51.176  57.402  81.617  0.00  0.00    +0.000 C 
ATOM      4  C   UNL     1      50.593  57.838  80.296  0.00  0.00    +0.000 C 
ATOM      5  C   UNL     1      54.303  59.434  82.013  0.00  0.00    +0.000 C 
ATOM      6  C   UNL     1      52.272  59.782  80.597  0.00  0.00    +0.000 C 
ATOM      7  C   UNL     1      49.381  57.143  79.619  0.00  0.00    +0.000 C 
ATOM      8  C   UNL     1      53.430  57.317  82.733  0.00  0.00    +0.000 C 
ATOM      9  C   UNL     1      51.233  59.013  79.818  0.00  0.00    +0.000 C 
ATOM     10  C   UNL     1      54.666  58.142  82.491  0.00  0.00    +0.000 C 
ATOM     11  C   UNL     1      50.645  56.169  82.069  0.00  0.00    +0.000 C 
ATOM     12  C   UNL     1      52.247  60.543  83.005  0.00  0.00    +0.000 C 
ATOM     13  C   UNL     1      49.053  55.636  80.211  0.00  0.00    +0.000 C 
ATOM     14  C   UNL     1      49.663  56.906  78.172  0.00  0.00    +0.000 C 
ATOM     15  C   UNL     1      49.616  55.353  81.346  0.00  0.00    +0.000 C 
ATOM     16  C   UNL     1      48.108  58.011  79.841  0.00  0.00    +0.000 C 
ATOM     17  C   UNL     1      48.973  54.586  79.222  0.00  0.00    +0.000 C 
ATOM     18  C   UNL     1      49.594  55.676  77.252  0.00  0.00    +0.000 C 
ATOM     19  C   UNL     1      49.195  54.429  77.817  0.00  0.00    +0.000 C 
ENDROOT
BRANCH  19  20
ATOM     20  O   UNL     1      48.530  53.495  77.078  0.00  0.00    +0.000 OA
ATOM     21  H   UNL     1      47.581  53.482  77.290  0.00  0.00    +0.000 HD
ENDBRANCH  19  20
BRANCH   5  22
ATOM     22  C   UNL     1      55.217  60.453  81.599  0.00  0.00    +0.000 C 
ATOM     23  C   UNL     1      56.106  60.298  80.390  0.00  0.00    +0.000 C 
BRANCH  22  24
ATOM     24  C   UNL     1      55.335  61.690  82.287  0.00  0.00    +0.000 C 
ATOM     25  C   UNL     1      55.482  63.036  83.013  0.00  0.00    +0.000 C 
BRANCH  25  26
ATOM     26  C   UNL     1      55.638  64.286  83.685  0.00  0.00    +0.000 C 
ATOM     27  C   UNL     1      56.196  64.341  85.018  0.00  0.00    +0.000 C 
ATOM     28  C   UNL     1      56.657  63.099  85.758  0.00  0.00    +0.000 C 
ATOM     29  C   UNL     1      56.348  65.621  85.810  0.00  0.00    +0.000 C 
BRANCH  26  30
ATOM     30  C   UNL     1      55.251  65.491  83.040  0.00  0.00    +0.000 C 
ATOM     31  C   UNL     1      54.804  66.761  82.308  0.00  0.00    +0.000 C 
ENDBRANCH  26  30
ENDBRANCH  25  26
ENDBRANCH  22  24
ENDBRANCH   5  22
TORSDOF 5
ENDMDL
MODEL 5
REMARK VINA RESULT:      -7.2     18.875     22.214
REMARK  Name = 222284_BetaSitosterol.pdbqt.pdb
REMARK  5 active torsions:
REMARK  status: ('A' for Active; 'I' for Inactive)
REMARK    1  A    between atoms: C_5  and  C_22
REMARK    2  A    between atoms: C_19  and  O_20
REMARK    3  A    between atoms: C_22  and  C_24
REMARK    4  A    between atoms: C_25  and  C_26
REMARK    5  A    between atoms: C_26  and  C_30
REMARK                            x       y       z     vdW  Elec       q    Type
REMARK                         _______ _______ _______ _____ _____    ______ ____
ROOT
ATOM      1  C   UNL     1      66.032  70.050  67.168  0.00  0.00    +0.000 C 
ATOM      2  C   UNL     1      64.770  70.895  67.711  0.00  0.00    +0.000 C 
ATOM      3  C   UNL     1      63.436  70.285  67.890  0.00  0.00    +0.000 C 
ATOM      4  C   UNL     1      63.131  68.808  67.884  0.00  0.00    +0.000 C 
ATOM      5  C   UNL     1      67.177  70.501  68.061  0.00  0.00    +0.000 C 
ATOM      6  C   UNL     1      65.657  68.647  67.351  0.00  0.00    +0.000 C 
ATOM      7  C   UNL     1      61.697  68.224  67.999  0.00  0.00    +0.000 C 
ATOM      8  C   UNL     1      65.269  71.816  68.686  0.00  0.00    +0.000 C 
ATOM      9  C   UNL     1      64.309  68.044  67.661  0.00  0.00    +0.000 C 
ATOM     10  C   UNL     1      66.729  71.541  68.925  0.00  0.00    +0.000 C 
ATOM     11  C   UNL     1      62.310  71.075  68.226  0.00  0.00    +0.000 C 
ATOM     12  C   UNL     1      66.277  70.445  65.689  0.00  0.00    +0.000 C 
ATOM     13  C   UNL     1      60.579  69.298  68.570  0.00  0.00    +0.000 C 
ATOM     14  C   UNL     1      61.670  67.114  68.996  0.00  0.00    +0.000 C 
ATOM     15  C   UNL     1      60.946  70.543  68.548  0.00  0.00    +0.000 C 
ATOM     16  C   UNL     1      61.219  67.770  66.590  0.00  0.00    +0.000 C 
ATOM     17  C   UNL     1      59.811  68.845  69.708  0.00  0.00    +0.000 C 
ATOM     18  C   UNL     1      60.807  66.799  70.230  0.00  0.00    +0.000 C 
ATOM     19  C   UNL     1      59.786  67.725  70.597  0.00  0.00    +0.000 C 
ENDROOT
BRANCH  19  20
ATOM     20  O   UNL     1      58.640  67.311  71.210  0.00  0.00    +0.000 OA
ATOM     21  H   UNL     1      58.634  67.549  72.152  0.00  0.00    +0.000 HD
ENDBRANCH  19  20
BRANCH   5  22
ATOM     22  C   UNL     1      68.484  69.920  68.069  0.00  0.00    +0.000 C 
ATOM     23  C   UNL     1      68.707  68.430  68.011  0.00  0.00    +0.000 C 
BRANCH  22  24
ATOM     24  C   UNL     1      69.663  70.712  68.111  0.00  0.00    +0.000 C 
ATOM     25  C   UNL     1      70.947  71.554  68.133  0.00  0.00    +0.000 C 
BRANCH  25  26
ATOM     26  C   UNL     1      72.151  72.322  68.148  0.00  0.00    +0.000 C 
ATOM     27  C   UNL     1      72.147  73.689  68.624  0.00  0.00    +0.000 C 
ATOM     28  C   UNL     1      70.891  74.365  69.142  0.00  0.00    +0.000 C 
ATOM     29  C   UNL     1      73.371  74.578  68.627  0.00  0.00    +0.000 C 
BRANCH  26  30
ATOM     30  C   UNL     1      73.368  71.742  67.701  0.00  0.00    +0.000 C 
ATOM     31  C   UNL     1      74.652  71.077  67.194  0.00  0.00    +0.000 C 
ENDBRANCH  26  30
ENDBRANCH  25  26
ENDBRANCH  22  24
ENDBRANCH   5  22
TORSDOF 5
ENDMDL
MODEL 6
REMARK VINA RESULT:      -6.9     25.971     27.854
REMARK  Name = 222284_BetaSitosterol.pdbqt.pdb
REMARK  5 active torsions:
REMARK  status: ('A' for Active; 'I' for Inactive)
REMARK    1  A    between atoms: C_5  and  C_22
REMARK    2  A    between atoms: C_19  and  O_20
REMARK    3  A    between atoms: C_22  and  C_24
REMARK    4  A    between atoms: C_25  and  C_26
REMARK    5  A    between atoms: C_26  and  C_30
REMARK                            x       y       z     vdW  Elec       q    Type
REMARK                         _______ _______ _______ _____ _____    ______ ____
ROOT
ATOM      1  C   UNL     1      50.095  50.619  83.926  0.00  0.00    +0.000 C 
ATOM      2  C   UNL     1      49.031  50.765  82.724  0.00  0.00    +0.000 C 
ATOM      3  C   UNL     1      48.629  52.082  82.188  0.00  0.00    +0.000 C 
ATOM      4  C   UNL     1      49.323  53.394  82.452  0.00  0.00    +0.000 C 
ATOM      5  C   UNL     1      50.979  49.463  83.486  0.00  0.00    +0.000 C 
ATOM      6  C   UNL     1      50.790  51.907  83.977  0.00  0.00    +0.000 C 
ATOM      7  C   UNL     1      48.811  54.762  81.925  0.00  0.00    +0.000 C 
ATOM      8  C   UNL     1      49.254  49.670  81.830  0.00  0.00    +0.000 C 
ATOM      9  C   UNL     1      50.436  53.218  83.318  0.00  0.00    +0.000 C 
ATOM     10  C   UNL     1      50.470  48.905  82.278  0.00  0.00    +0.000 C 
ATOM     11  C   UNL     1      47.586  52.197  81.236  0.00  0.00    +0.000 C 
ATOM     12  C   UNL     1      49.317  50.277  85.222  0.00  0.00    +0.000 C 
ATOM     13  C   UNL     1      47.713  54.639  80.696  0.00  0.00    +0.000 C 
ATOM     14  C   UNL     1      49.935  55.539  81.325  0.00  0.00    +0.000 C 
ATOM     15  C   UNL     1      47.185  53.463  80.542  0.00  0.00    +0.000 C 
ATOM     16  C   UNL     1      48.114  55.526  83.088  0.00  0.00    +0.000 C 
ATOM     17  C   UNL     1      48.030  55.393  79.505  0.00  0.00    +0.000 C 
ATOM     18  C   UNL     1      50.154  56.243  79.975  0.00  0.00    +0.000 C 
ATOM     19  C   UNL     1      49.112  56.184  79.003  0.00  0.00    +0.000 C 
ENDROOT
BRANCH  19  20
ATOM     20  O   UNL     1      48.916  57.197  78.111  0.00  0.00    +0.000 OA
ATOM     21  H   UNL     1      48.316  57.875  78.467  0.00  0.00    +0.000 HD
ENDBRANCH  19  20
BRANCH   5  22
ATOM     22  C   UNL     1      52.172  49.046  84.154  0.00  0.00    +0.000 C 
ATOM     23  C   UNL     1      52.294  47.702  84.827  0.00  0.00    +0.000 C 
BRANCH  22  24
ATOM     24  C   UNL     1      53.333  49.864  84.212  0.00  0.00    +0.000 C 
ATOM     25  C   UNL     1      54.572  50.768  84.287  0.00  0.00    +0.000 C 
BRANCH  25  26
ATOM     26  C   UNL     1      55.713  51.625  84.351  0.00  0.00    +0.000 C 
ATOM     27  C   UNL     1      57.048  51.069  84.404  0.00  0.00    +0.000 C 
ATOM     28  C   UNL     1      57.309  49.575  84.377  0.00  0.00    +0.000 C 
ATOM     29  C   UNL     1      58.300  51.910  84.520  0.00  0.00    +0.000 C 
BRANCH  26  30
ATOM     30  C   UNL     1      55.543  53.034  84.354  0.00  0.00    +0.000 C 
ATOM     31  C   UNL     1      55.339  54.553  84.408  0.00  0.00    +0.000 C 
ENDBRANCH  26  30
ENDBRANCH  25  26
ENDBRANCH  22  24
ENDBRANCH   5  22
TORSDOF 5
ENDMDL
MODEL 7
REMARK VINA RESULT:      -6.8     20.565     24.831
REMARK  Name = 222284_BetaSitosterol.pdbqt.pdb
REMARK  5 active torsions:
REMARK  status: ('A' for Active; 'I' for Inactive)
REMARK    1  A    between atoms: C_5  and  C_22
REMARK    2  A    between atoms: C_19  and  O_20
REMARK    3  A    between atoms: C_22  and  C_24
REMARK    4  A    between atoms: C_25  and  C_26
REMARK    5  A    between atoms: C_26  and  C_30
REMARK                            x       y       z     vdW  Elec       q    Type
REMARK                         _______ _______ _______ _____ _____    ______ ____
ROOT
ATOM      1  C   UNL     1      47.989  34.043  61.886  0.00  0.00    +0.000 C 
ATOM      2  C   UNL     1      49.055  35.181  61.473  0.00  0.00    +0.000 C 
ATOM      3  C   UNL     1      50.161  34.914  60.530  0.00  0.00    +0.000 C 
ATOM      4  C   UNL     1      50.286  33.710  59.631  0.00  0.00    +0.000 C 
ATOM      5  C   UNL     1      46.655  34.773  61.857  0.00  0.00    +0.000 C 
ATOM      6  C   UNL     1      48.118  33.010  60.857  0.00  0.00    +0.000 C 
ATOM      7  C   UNL     1      51.510  33.442  58.714  0.00  0.00    +0.000 C 
ATOM      8  C   UNL     1      48.343  36.419  61.403  0.00  0.00    +0.000 C 
ATOM      9  C   UNL     1      49.191  32.821  59.812  0.00  0.00    +0.000 C 
ATOM     10  C   UNL     1      46.873  36.157  61.597  0.00  0.00    +0.000 C 
ATOM     11  C   UNL     1      51.170  35.879  60.294  0.00  0.00    +0.000 C 
ATOM     12  C   UNL     1      48.336  33.551  63.314  0.00  0.00    +0.000 C 
ATOM     13  C   UNL     1      52.458  34.769  58.454  0.00  0.00    +0.000 C 
ATOM     14  C   UNL     1      51.056  33.052  57.347  0.00  0.00    +0.000 C 
ATOM     15  C   UNL     1      52.261  35.758  59.273  0.00  0.00    +0.000 C 
ATOM     16  C   UNL     1      52.410  32.357  59.374  0.00  0.00    +0.000 C 
ATOM     17  C   UNL     1      52.712  35.087  57.068  0.00  0.00    +0.000 C 
ATOM     18  C   UNL     1      51.378  33.547  55.927  0.00  0.00    +0.000 C 
ATOM     19  C   UNL     1      52.293  34.631  55.778  0.00  0.00    +0.000 C 
ENDROOT
BRANCH  19  20
ATOM     20  O   UNL     1      53.091  34.741  54.677  0.00  0.00    +0.000 OA
ATOM     21  H   UNL     1      53.726  35.471  54.768  0.00  0.00    +0.000 HD
ENDBRANCH  19  20
BRANCH   5  22
ATOM     22  C   UNL     1      45.379  34.148  62.008  0.00  0.00    +0.000 C 
ATOM     23  C   UNL     1      44.389  34.575  63.062  0.00  0.00    +0.000 C 
BRANCH  22  24
ATOM     24  C   UNL     1      44.947  33.093  61.159  0.00  0.00    +0.000 C 
ATOM     25  C   UNL     1      44.506  31.953  60.229  0.00  0.00    +0.000 C 
BRANCH  25  26
ATOM     26  C   UNL     1      44.104  30.903  59.349  0.00  0.00    +0.000 C 
ATOM     27  C   UNL     1      44.851  30.628  58.141  0.00  0.00    +0.000 C 
ATOM     28  C   UNL     1      46.092  31.412  57.755  0.00  0.00    +0.000 C 
ATOM     29  C   UNL     1      44.459  29.565  57.138  0.00  0.00    +0.000 C 
BRANCH  26  30
ATOM     30  C   UNL     1      42.966  30.113  59.661  0.00  0.00    +0.000 C 
ATOM     31  C   UNL     1      41.723  29.297  60.036  0.00  0.00    +0.000 C 
ENDBRANCH  26  30
ENDBRANCH  25  26
ENDBRANCH  22  24
ENDBRANCH   5  22
TORSDOF 5
ENDMDL
MODEL 8
REMARK VINA RESULT:      -6.7      3.869      9.066
REMARK  Name = 222284_BetaSitosterol.pdbqt.pdb
REMARK  5 active torsions:
REMARK  status: ('A' for Active; 'I' for Inactive)
REMARK    1  A    between atoms: C_5  and  C_22
REMARK    2  A    between atoms: C_19  and  O_20
REMARK    3  A    between atoms: C_22  and  C_24
REMARK    4  A    between atoms: C_25  and  C_26
REMARK    5  A    between atoms: C_26  and  C_30
REMARK                            x       y       z     vdW  Elec       q    Type
REMARK                         _______ _______ _______ _____ _____    ______ ____
ROOT
ATOM      1  C   UNL     1      62.907  50.314  58.676  0.00  0.00    +0.000 C 
ATOM      2  C   UNL     1      64.475  49.942  58.626  0.00  0.00    +0.000 C 
ATOM      3  C   UNL     1      65.061  49.164  57.516  0.00  0.00    +0.000 C 
ATOM      4  C   UNL     1      64.398  48.873  56.193  0.00  0.00    +0.000 C 
ATOM      5  C   UNL     1      62.896  51.765  59.133  0.00  0.00    +0.000 C 
ATOM      6  C   UNL     1      62.427  50.124  57.306  0.00  0.00    +0.000 C 
ATOM      7  C   UNL     1      65.031  47.983  55.089  0.00  0.00    +0.000 C 
ATOM      8  C   UNL     1      65.189  51.056  59.170  0.00  0.00    +0.000 C 
ATOM      9  C   UNL     1      63.093  49.435  56.140  0.00  0.00    +0.000 C 
ATOM     10  C   UNL     1      64.224  52.180  59.438  0.00  0.00    +0.000 C 
ATOM     11  C   UNL     1      66.406  48.722  57.562  0.00  0.00    +0.000 C 
ATOM     12  C   UNL     1      62.223  49.387  59.714  0.00  0.00    +0.000 C 
ATOM     13  C   UNL     1      66.655  47.739  55.271  0.00  0.00    +0.000 C 
ATOM     14  C   UNL     1      64.915  48.649  53.759  0.00  0.00    +0.000 C 
ATOM     15  C   UNL     1      67.130  48.036  56.443  0.00  0.00    +0.000 C 
ATOM     16  C   UNL     1      64.351  46.583  55.114  0.00  0.00    +0.000 C 
ATOM     17  C   UNL     1      67.462  48.063  54.118  0.00  0.00    +0.000 C 
ATOM     18  C   UNL     1      65.913  48.991  52.638  0.00  0.00    +0.000 C 
ATOM     19  C   UNL     1      67.284  48.649  52.825  0.00  0.00    +0.000 C 
ENDROOT
BRANCH  19  20
ATOM     20  O   UNL     1      68.087  48.332  51.769  0.00  0.00    +0.000 OA
ATOM     21  H   UNL     1      67.611  48.405  50.925  0.00  0.00    +0.000 HD
ENDBRANCH  19  20
BRANCH   5  22
ATOM     22  C   UNL     1      61.734  52.596  59.187  0.00  0.00    +0.000 C 
ATOM     23  C   UNL     1      61.778  54.015  59.693  0.00  0.00    +0.000 C 
BRANCH  22  24
ATOM     24  C   UNL     1      60.460  52.145  58.747  0.00  0.00    +0.000 C 
ATOM     25  C   UNL     1      59.071  51.671  58.294  0.00  0.00    +0.000 C 
BRANCH  25  26
ATOM     26  C   UNL     1      57.775  51.226  57.891  0.00  0.00    +0.000 C 
ATOM     27  C   UNL     1      56.585  51.775  58.503  0.00  0.00    +0.000 C 
ATOM     28  C   UNL     1      56.642  52.847  59.575  0.00  0.00    +0.000 C 
ATOM     29  C   UNL     1      55.183  51.320  58.162  0.00  0.00    +0.000 C 
BRANCH  26  30
ATOM     30  C   UNL     1      57.648  50.242  56.874  0.00  0.00    +0.000 C 
ATOM     31  C   UNL     1      57.464  49.204  55.761  0.00  0.00    +0.000 C 
ENDBRANCH  26  30
ENDBRANCH  25  26
ENDBRANCH  22  24
ENDBRANCH   5  22
TORSDOF 5
ENDMDL
MODEL 9
REMARK VINA RESULT:      -6.7      1.863      3.221
REMARK  Name = 222284_BetaSitosterol.pdbqt.pdb
REMARK  5 active torsions:
REMARK  status: ('A' for Active; 'I' for Inactive)
REMARK    1  A    between atoms: C_5  and  C_22
REMARK    2  A    between atoms: C_19  and  O_20
REMARK    3  A    between atoms: C_22  and  C_24
REMARK    4  A    between atoms: C_25  and  C_26
REMARK    5  A    between atoms: C_26  and  C_30
REMARK                            x       y       z     vdW  Elec       q    Type
REMARK                         _______ _______ _______ _____ _____    ______ ____
ROOT
ATOM      1  C   UNL     1      62.188  51.371  58.508  0.00  0.00    +0.000 C 
ATOM      2  C   UNL     1      61.686  52.560  59.474  0.00  0.00    +0.000 C 
ATOM      3  C   UNL     1      62.598  53.618  59.954  0.00  0.00    +0.000 C 
ATOM      4  C   UNL     1      63.976  53.911  59.414  0.00  0.00    +0.000 C 
ATOM      5  C   UNL     1      61.072  51.246  57.482  0.00  0.00    +0.000 C 
ATOM      6  C   UNL     1      63.455  51.845  57.947  0.00  0.00    +0.000 C 
ATOM      7  C   UNL     1      64.924  54.987  60.009  0.00  0.00    +0.000 C 
ATOM      8  C   UNL     1      60.355  52.896  59.071  0.00  0.00    +0.000 C 
ATOM      9  C   UNL     1      64.317  53.011  58.368  0.00  0.00    +0.000 C 
ATOM     10  C   UNL     1      60.003  52.120  57.830  0.00  0.00    +0.000 C 
ATOM     11  C   UNL     1      62.176  54.567  60.917  0.00  0.00    +0.000 C 
ATOM     12  C   UNL     1      62.324  50.082  59.358  0.00  0.00    +0.000 C 
ATOM     13  C   UNL     1      64.166  56.087  60.980  0.00  0.00    +0.000 C 
ATOM     14  C   UNL     1      65.512  55.817  58.917  0.00  0.00    +0.000 C 
ATOM     15  C   UNL     1      62.977  55.747  61.378  0.00  0.00    +0.000 C 
ATOM     16  C   UNL     1      66.011  54.284  60.873  0.00  0.00    +0.000 C 
ATOM     17  C   UNL     1      64.387  57.473  60.636  0.00  0.00    +0.000 C 
ATOM     18  C   UNL     1      65.611  57.330  58.652  0.00  0.00    +0.000 C 
ATOM     19  C   UNL     1      65.024  58.223  59.597  0.00  0.00    +0.000 C 
ENDROOT
BRANCH  19  20
ATOM     20  O   UNL     1      65.539  59.467  59.812  0.00  0.00    +0.000 OA
ATOM     21  H   UNL     1      64.920  60.028  60.310  0.00  0.00    +0.000 HD
ENDBRANCH  19  20
BRANCH   5  22
ATOM     22  C   UNL     1      61.123  50.420  56.316  0.00  0.00    +0.000 C 
ATOM     23  C   UNL     1      60.043  50.440  55.264  0.00  0.00    +0.000 C 
BRANCH  22  24
ATOM     24  C   UNL     1      62.207  49.537  56.060  0.00  0.00    +0.000 C 
ATOM     25  C   UNL     1      63.367  48.564  55.802  0.00  0.00    +0.000 C 
BRANCH  25  26
ATOM     26  C   UNL     1      64.447  47.656  55.581  0.00  0.00    +0.000 C 
ATOM     27  C   UNL     1      64.232  46.416  54.868  0.00  0.00    +0.000 C 
ATOM     28  C   UNL     1      62.877  46.025  54.307  0.00  0.00    +0.000 C 
ATOM     29  C   UNL     1      65.314  45.385  54.637  0.00  0.00    +0.000 C 
BRANCH  26  30
ATOM     30  C   UNL     1      65.747  47.972  56.057  0.00  0.00    +0.000 C 
ATOM     31  C   UNL     1      67.168  48.316  56.519  0.00  0.00    +0.000 C 
ENDBRANCH  26  30
ENDBRANCH  25  26
ENDBRANCH  22  24
ENDBRANCH   5  22
TORSDOF 5
ENDMDL
