MODEL 1
REMARK VINA RESULT:      -5.7      0.000      0.000
REMARK  Name = 25023738_BI-D-1870.pdbqt.pdb
REMARK  4 active torsions:
REMARK  status: ('A' for Active; 'I' for Inactive)
REMARK    1  A    between atoms: N_2  and  C_26
REMARK    2  A    between atoms: N_14  and  C_16
REMARK    3  A    between atoms: C_20  and  O_24
REMARK    4  A    between atoms: C_27  and  C_28
REMARK                            x       y       z     vdW  Elec       q    Type
REMARK                         _______ _______ _______ _____ _____    ______ ____
ROOT
ATOM      1  O   UNL     1      71.319  35.019  55.077  0.00  0.00    +0.000 OA
ATOM      2  N   UNL     1      68.522  37.285  54.722  0.00  0.00    +0.000 N 
ATOM      3  N   UNL     1      69.046  34.588  55.350  0.00  0.00    +0.000 N 
ATOM      4  N   UNL     1      66.183  36.893  54.990  0.00  0.00    +0.000 NA
ATOM      5  N   UNL     1      65.339  34.786  55.571  0.00  0.00    +0.000 NA
ATOM      6  C   UNL     1      69.831  36.855  54.732  0.00  0.00    +0.000 C 
ATOM      7  C   UNL     1      67.450  36.417  55.014  0.00  0.00    +0.000 A 
ATOM      8  C   UNL     1      70.151  35.418  55.064  0.00  0.00    +0.000 C 
ATOM      9  C   UNL     1      67.721  35.101  55.319  0.00  0.00    +0.000 A 
ATOM     10  C   UNL     1      70.957  37.831  54.408  0.00  0.00    +0.000 C 
ATOM     11  C   UNL     1      69.158  33.174  55.691  0.00  0.00    +0.000 C 
ATOM     12  C   UNL     1      66.607  34.336  55.590  0.00  0.00    +0.000 A 
ATOM     13  C   UNL     1      65.162  36.070  55.267  0.00  0.00    +0.000 A 
ATOM     14  N   UNL     1      63.849  36.521  55.253  0.00  0.00    +0.000 N 
ATOM     15  H   UNL     1      63.206  35.774  55.484  0.00  0.00    +0.000 HD
ENDROOT
BRANCH  14  16
ATOM     16  C   UNL     1      63.304  37.782  54.984  0.00  0.00    +0.000 A 
ATOM     17  C   UNL     1      62.443  38.368  55.921  0.00  0.00    +0.000 A 
ATOM     18  C   UNL     1      61.882  39.622  55.688  0.00  0.00    +0.000 A 
ATOM     19  F   UNL     1      61.061  40.149  56.609  0.00  0.00    +0.000 F 
ATOM     20  C   UNL     1      62.167  40.315  54.519  0.00  0.00    +0.000 A 
ATOM     21  C   UNL     1      63.018  39.741  53.586  0.00  0.00    +0.000 A 
ATOM     22  F   UNL     1      63.303  40.401  52.453  0.00  0.00    +0.000 F 
ATOM     23  C   UNL     1      63.584  38.490  53.812  0.00  0.00    +0.000 A 
BRANCH  20  24
ATOM     24  O   UNL     1      61.613  41.544  54.297  0.00  0.00    +0.000 OA
ATOM     25  H   UNL     1      60.998  41.466  53.542  0.00  0.00    +0.000 HD
ENDBRANCH  20  24
ENDBRANCH  14  16
BRANCH   2  26
ATOM     26  C   UNL     1      68.207  38.674  54.400  0.00  0.00    +0.000 C 
ATOM     27  C   UNL     1      67.880  40.135  54.065  0.00  0.00    +0.000 C 
BRANCH  27  28
ATOM     28  C   UNL     1      67.575  41.478  53.752  0.00  0.00    +0.000 C 
ATOM     29  C   UNL     1      66.213  42.024  54.053  0.00  0.00    +0.000 C 
ATOM     30  C   UNL     1      68.598  42.337  53.074  0.00  0.00    +0.000 C 
ENDBRANCH  27  28
ENDBRANCH   2  26
TORSDOF 4
ENDMDL
MODEL 2
REMARK VINA RESULT:      -5.6     34.894     36.197
REMARK  Name = 25023738_BI-D-1870.pdbqt.pdb
REMARK  4 active torsions:
REMARK  status: ('A' for Active; 'I' for Inactive)
REMARK    1  A    between atoms: N_2  and  C_26
REMARK    2  A    between atoms: N_14  and  C_16
REMARK    3  A    between atoms: C_20  and  O_24
REMARK    4  A    between atoms: C_27  and  C_28
REMARK                            x       y       z     vdW  Elec       q    Type
REMARK                         _______ _______ _______ _____ _____    ______ ____
ROOT
ATOM      1  O   UNL     1      47.963  50.657  82.421  0.00  0.00    +0.000 OA
ATOM      2  N   UNL     1      49.896  53.686  81.996  0.00  0.00    +0.000 N 
ATOM      3  N   UNL     1      49.847  51.365  83.594  0.00  0.00    +0.000 N 
ATOM      4  N   UNL     1      51.826  54.454  83.169  0.00  0.00    +0.000 NA
ATOM      5  N   UNL     1      52.794  53.215  84.908  0.00  0.00    +0.000 NA
ATOM      6  C   UNL     1      48.904  52.755  81.773  0.00  0.00    +0.000 C 
ATOM      7  C   UNL     1      50.875  53.507  82.995  0.00  0.00    +0.000 A 
ATOM      8  C   UNL     1      48.845  51.500  82.609  0.00  0.00    +0.000 C 
ATOM      9  C   UNL     1      50.839  52.368  83.768  0.00  0.00    +0.000 A 
ATOM     10  C   UNL     1      47.866  52.993  80.683  0.00  0.00    +0.000 C 
ATOM     11  C   UNL     1      49.952  50.223  84.496  0.00  0.00    +0.000 C 
ATOM     12  C   UNL     1      51.838  52.287  84.714  0.00  0.00    +0.000 A 
ATOM     13  C   UNL     1      52.759  54.286  84.118  0.00  0.00    +0.000 A 
ATOM     14  N   UNL     1      53.751  55.235  84.328  0.00  0.00    +0.000 N 
ATOM     15  H   UNL     1      54.370  54.953  85.078  0.00  0.00    +0.000 HD
ENDROOT
BRANCH  14  16
ATOM     16  C   UNL     1      54.016  56.455  83.696  0.00  0.00    +0.000 A 
ATOM     17  C   UNL     1      55.342  56.797  83.399  0.00  0.00    +0.000 A 
ATOM     18  C   UNL     1      55.645  58.003  82.770  0.00  0.00    +0.000 A 
ATOM     19  F   UNL     1      56.926  58.294  82.503  0.00  0.00    +0.000 F 
ATOM     20  C   UNL     1      54.634  58.891  82.426  0.00  0.00    +0.000 A 
ATOM     21  C   UNL     1      53.318  58.560  82.718  0.00  0.00    +0.000 A 
ATOM     22  F   UNL     1      52.333  59.409  82.390  0.00  0.00    +0.000 F 
ATOM     23  C   UNL     1      53.008  57.357  83.345  0.00  0.00    +0.000 A 
BRANCH  20  24
ATOM     24  O   UNL     1      54.938  60.072  81.810  0.00  0.00    +0.000 OA
ATOM     25  H   UNL     1      54.948  60.773  82.490  0.00  0.00    +0.000 HD
ENDBRANCH  20  24
ENDBRANCH  14  16
BRANCH   2  26
ATOM     26  C   UNL     1      49.956  54.903  81.191  0.00  0.00    +0.000 C 
ATOM     27  C   UNL     1      50.017  56.178  80.341  0.00  0.00    +0.000 C 
BRANCH  27  28
ATOM     28  C   UNL     1      50.075  57.356  79.563  0.00  0.00    +0.000 C 
ATOM     29  C   UNL     1      50.216  57.260  78.075  0.00  0.00    +0.000 C 
ATOM     30  C   UNL     1      50.046  58.695  80.233  0.00  0.00    +0.000 C 
ENDBRANCH  27  28
ENDBRANCH   2  26
TORSDOF 4
ENDMDL
MODEL 3
REMARK VINA RESULT:      -5.6     13.165     14.482
REMARK  Name = 25023738_BI-D-1870.pdbqt.pdb
REMARK  4 active torsions:
REMARK  status: ('A' for Active; 'I' for Inactive)
REMARK    1  A    between atoms: N_2  and  C_26
REMARK    2  A    between atoms: N_14  and  C_16
REMARK    3  A    between atoms: C_20  and  O_24
REMARK    4  A    between atoms: C_27  and  C_28
REMARK                            x       y       z     vdW  Elec       q    Type
REMARK                         _______ _______ _______ _____ _____    ______ ____
ROOT
ATOM      1  O   UNL     1      56.983  28.639  53.900  0.00  0.00    +0.000 OA
ATOM      2  N   UNL     1      54.992  30.713  56.095  0.00  0.00    +0.000 N 
ATOM      3  N   UNL     1      55.839  30.608  53.409  0.00  0.00    +0.000 N 
ATOM      4  N   UNL     1      53.805  32.733  55.642  0.00  0.00    +0.000 NA
ATOM      5  N   UNL     1      53.787  33.708  53.510  0.00  0.00    +0.000 NA
ATOM      6  C   UNL     1      55.792  29.664  55.699  0.00  0.00    +0.000 C 
ATOM      7  C   UNL     1      54.592  31.726  55.198  0.00  0.00    +0.000 A 
ATOM      8  C   UNL     1      56.266  29.574  54.269  0.00  0.00    +0.000 C 
ATOM      9  C   UNL     1      55.014  31.661  53.888  0.00  0.00    +0.000 A 
ATOM     10  C   UNL     1      56.200  28.594  56.706  0.00  0.00    +0.000 C 
ATOM     11  C   UNL     1      56.195  30.691  51.996  0.00  0.00    +0.000 C 
ATOM     12  C   UNL     1      54.569  32.695  53.093  0.00  0.00    +0.000 A 
ATOM     13  C   UNL     1      53.422  33.697  54.791  0.00  0.00    +0.000 A 
ATOM     14  N   UNL     1      52.615  34.747  55.208  0.00  0.00    +0.000 N 
ATOM     15  H   UNL     1      52.423  35.382  54.443  0.00  0.00    +0.000 HD
ENDROOT
BRANCH  14  16
ATOM     16  C   UNL     1      52.054  35.047  56.454  0.00  0.00    +0.000 A 
ATOM     17  C   UNL     1      52.043  36.377  56.896  0.00  0.00    +0.000 A 
ATOM     18  C   UNL     1      51.492  36.714  58.131  0.00  0.00    +0.000 A 
ATOM     19  F   UNL     1      51.501  37.998  58.518  0.00  0.00    +0.000 F 
ATOM     20  C   UNL     1      50.945  35.735  58.949  0.00  0.00    +0.000 A 
ATOM     21  C   UNL     1      50.954  34.415  58.519  0.00  0.00    +0.000 A 
ATOM     22  F   UNL     1      50.427  33.460  59.300  0.00  0.00    +0.000 F 
ATOM     23  C   UNL     1      51.500  34.071  57.286  0.00  0.00    +0.000 A 
BRANCH  20  24
ATOM     24  O   UNL     1      50.408  36.073  60.159  0.00  0.00    +0.000 OA
ATOM     25  H   UNL     1      49.517  35.678  60.214  0.00  0.00    +0.000 HD
ENDBRANCH  20  24
ENDBRANCH  14  16
BRANCH   2  26
ATOM     26  C   UNL     1      54.532  30.806  57.478  0.00  0.00    +0.000 C 
ATOM     27  C   UNL     1      54.054  30.901  58.932  0.00  0.00    +0.000 C 
BRANCH  27  28
ATOM     28  C   UNL     1      53.610  30.991  60.270  0.00  0.00    +0.000 C 
ATOM     29  C   UNL     1      53.517  29.755  61.111  0.00  0.00    +0.000 C 
ATOM     30  C   UNL     1      53.184  32.315  60.827  0.00  0.00    +0.000 C 
ENDBRANCH  27  28
ENDBRANCH   2  26
TORSDOF 4
ENDMDL
MODEL 4
REMARK VINA RESULT:      -5.5      9.476     12.113
REMARK  Name = 25023738_BI-D-1870.pdbqt.pdb
REMARK  4 active torsions:
REMARK  status: ('A' for Active; 'I' for Inactive)
REMARK    1  A    between atoms: N_2  and  C_26
REMARK    2  A    between atoms: N_14  and  C_16
REMARK    3  A    between atoms: C_20  and  O_24
REMARK    4  A    between atoms: C_27  and  C_28
REMARK                            x       y       z     vdW  Elec       q    Type
REMARK                         _______ _______ _______ _____ _____    ______ ____
ROOT
ATOM      1  O   UNL     1      69.194  45.713  54.091  0.00  0.00    +0.000 OA
ATOM      2  N   UNL     1      66.375  47.455  55.544  0.00  0.00    +0.000 N 
ATOM      3  N   UNL     1      69.171  47.257  55.835  0.00  0.00    +0.000 N 
ATOM      4  N   UNL     1      66.301  49.040  57.325  0.00  0.00    +0.000 NA
ATOM      5  N   UNL     1      68.236  49.724  58.457  0.00  0.00    +0.000 NA
ATOM      6  C   UNL     1      67.064  46.604  54.707  0.00  0.00    +0.000 C 
ATOM      7  C   UNL     1      67.028  48.220  56.532  0.00  0.00    +0.000 A 
ATOM      8  C   UNL     1      68.563  46.471  54.833  0.00  0.00    +0.000 C 
ATOM      9  C   UNL     1      68.395  48.114  56.663  0.00  0.00    +0.000 A 
ATOM     10  C   UNL     1      66.314  45.795  53.655  0.00  0.00    +0.000 C 
ATOM     11  C   UNL     1      70.605  47.264  56.105  0.00  0.00    +0.000 C 
ATOM     12  C   UNL     1      68.937  48.902  57.654  0.00  0.00    +0.000 A 
ATOM     13  C   UNL     1      66.919  49.770  58.265  0.00  0.00    +0.000 A 
ATOM     14  N   UNL     1      66.208  50.622  59.099  0.00  0.00    +0.000 N 
ATOM     15  H   UNL     1      66.826  51.094  59.747  0.00  0.00    +0.000 HD
ENDROOT
BRANCH  14  16
ATOM     16  C   UNL     1      64.842  50.917  59.177  0.00  0.00    +0.000 A 
ATOM     17  C   UNL     1      63.923  49.866  59.298  0.00  0.00    +0.000 A 
ATOM     18  C   UNL     1      62.555  50.121  59.379  0.00  0.00    +0.000 A 
ATOM     19  F   UNL     1      61.707  49.088  59.494  0.00  0.00    +0.000 F 
ATOM     20  C   UNL     1      62.077  51.424  59.339  0.00  0.00    +0.000 A 
ATOM     21  C   UNL     1      62.982  52.470  59.218  0.00  0.00    +0.000 A 
ATOM     22  F   UNL     1      62.533  53.733  59.180  0.00  0.00    +0.000 F 
ATOM     23  C   UNL     1      64.349  52.224  59.139  0.00  0.00    +0.000 A 
BRANCH  20  24
ATOM     24  O   UNL     1      60.735  51.666  59.418  0.00  0.00    +0.000 OA
ATOM     25  H   UNL     1      60.520  52.380  58.787  0.00  0.00    +0.000 HD
ENDBRANCH  20  24
ENDBRANCH  14  16
BRANCH   2  26
ATOM     26  C   UNL     1      64.925  47.585  55.427  0.00  0.00    +0.000 C 
ATOM     27  C   UNL     1      63.402  47.716  55.304  0.00  0.00    +0.000 C 
BRANCH  27  28
ATOM     28  C   UNL     1      61.999  47.842  55.192  0.00  0.00    +0.000 C 
ATOM     29  C   UNL     1      61.174  46.659  54.787  0.00  0.00    +0.000 C 
ATOM     30  C   UNL     1      61.348  49.170  55.427  0.00  0.00    +0.000 C 
ENDBRANCH  27  28
ENDBRANCH   2  26
TORSDOF 4
ENDMDL
MODEL 5
REMARK VINA RESULT:      -5.5      3.953      7.069
REMARK  Name = 25023738_BI-D-1870.pdbqt.pdb
REMARK  4 active torsions:
REMARK  status: ('A' for Active; 'I' for Inactive)
REMARK    1  A    between atoms: N_2  and  C_26
REMARK    2  A    between atoms: N_14  and  C_16
REMARK    3  A    between atoms: C_20  and  O_24
REMARK    4  A    between atoms: C_27  and  C_28
REMARK                            x       y       z     vdW  Elec       q    Type
REMARK                         _______ _______ _______ _____ _____    ______ ____
ROOT
ATOM      1  O   UNL     1      66.225  46.637  53.422  0.00  0.00    +0.000 OA
ATOM      2  N   UNL     1      65.916  43.053  53.806  0.00  0.00    +0.000 N 
ATOM      3  N   UNL     1      64.301  45.362  53.733  0.00  0.00    +0.000 N 
ATOM      4  N   UNL     1      63.974  41.704  54.126  0.00  0.00    +0.000 NA
ATOM      5  N   UNL     1      61.825  42.633  54.242  0.00  0.00    +0.000 NA
ATOM      6  C   UNL     1      66.525  44.277  53.627  0.00  0.00    +0.000 C 
ATOM      7  C   UNL     1      64.518  42.931  53.953  0.00  0.00    +0.000 A 
ATOM      8  C   UNL     1      65.693  45.535  53.582  0.00  0.00    +0.000 C 
ATOM      9  C   UNL     1      63.742  44.067  53.915  0.00  0.00    +0.000 A 
ATOM     10  C   UNL     1      68.040  44.359  53.474  0.00  0.00    +0.000 C 
ATOM     11  C   UNL     1      63.338  46.458  53.716  0.00  0.00    +0.000 C 
ATOM     12  C   UNL     1      62.391  43.841  54.067  0.00  0.00    +0.000 A 
ATOM     13  C   UNL     1      62.646  41.584  54.266  0.00  0.00    +0.000 A 
ATOM     14  N   UNL     1      62.050  40.343  54.446  0.00  0.00    +0.000 N 
ATOM     15  H   UNL     1      61.045  40.433  54.534  0.00  0.00    +0.000 HD
ENDROOT
BRANCH  14  16
ATOM     16  C   UNL     1      62.592  39.056  54.518  0.00  0.00    +0.000 A 
ATOM     17  C   UNL     1      62.083  38.152  55.461  0.00  0.00    +0.000 A 
ATOM     18  C   UNL     1      62.599  36.861  55.562  0.00  0.00    +0.000 A 
ATOM     19  F   UNL     1      62.085  36.026  56.477  0.00  0.00    +0.000 F 
ATOM     20  C   UNL     1      63.629  36.446  54.729  0.00  0.00    +0.000 A 
ATOM     21  C   UNL     1      64.139  37.336  53.794  0.00  0.00    +0.000 A 
ATOM     22  F   UNL     1      65.133  36.946  52.982  0.00  0.00    +0.000 F 
ATOM     23  C   UNL     1      63.629  38.626  53.686  0.00  0.00    +0.000 A 
BRANCH  20  24
ATOM     24  O   UNL     1      64.129  35.179  54.834  0.00  0.00    +0.000 OA
ATOM     25  H   UNL     1      64.563  35.098  55.706  0.00  0.00    +0.000 HD
ENDBRANCH  20  24
ENDBRANCH  14  16
BRANCH   2  26
ATOM     26  C   UNL     1      66.717  41.833  53.852  0.00  0.00    +0.000 C 
ATOM     27  C   UNL     1      67.554  40.549  53.899  0.00  0.00    +0.000 C 
BRANCH  27  28
ATOM     28  C   UNL     1      68.329  39.369  53.943  0.00  0.00    +0.000 C 
ATOM     29  C   UNL     1      69.573  39.262  53.114  0.00  0.00    +0.000 C 
ATOM     30  C   UNL     1      67.878  38.210  54.777  0.00  0.00    +0.000 C 
ENDBRANCH  27  28
ENDBRANCH   2  26
TORSDOF 4
ENDMDL
MODEL 6
REMARK VINA RESULT:      -5.4     13.588     16.871
REMARK  Name = 25023738_BI-D-1870.pdbqt.pdb
REMARK  4 active torsions:
REMARK  status: ('A' for Active; 'I' for Inactive)
REMARK    1  A    between atoms: N_2  and  C_26
REMARK    2  A    between atoms: N_14  and  C_16
REMARK    3  A    between atoms: C_20  and  O_24
REMARK    4  A    between atoms: C_27  and  C_28
REMARK                            x       y       z     vdW  Elec       q    Type
REMARK                         _______ _______ _______ _____ _____    ______ ____
ROOT
ATOM      1  O   UNL     1      60.238  56.523  61.162  0.00  0.00    +0.000 OA
ATOM      2  N   UNL     1      63.084  54.453  60.325  0.00  0.00    +0.000 N 
ATOM      3  N   UNL     1      60.280  54.481  60.042  0.00  0.00    +0.000 N 
ATOM      4  N   UNL     1      63.179  52.360  59.183  0.00  0.00    +0.000 NA
ATOM      5  N   UNL     1      61.249  51.292  58.391  0.00  0.00    +0.000 NA
ATOM      6  C   UNL     1      62.382  55.521  60.839  0.00  0.00    +0.000 C 
ATOM      7  C   UNL     1      62.439  53.384  59.669  0.00  0.00    +0.000 A 
ATOM      8  C   UNL     1      60.879  55.572  60.707  0.00  0.00    +0.000 C 
ATOM      9  C   UNL     1      61.069  53.411  59.538  0.00  0.00    +0.000 A 
ATOM     10  C   UNL     1      63.123  56.653  61.541  0.00  0.00    +0.000 C 
ATOM     11  C   UNL     1      58.844  54.353  59.819  0.00  0.00    +0.000 C 
ATOM     12  C   UNL     1      60.536  52.322  58.882  0.00  0.00    +0.000 A 
ATOM     13  C   UNL     1      62.568  51.342  58.558  0.00  0.00    +0.000 A 
ATOM     14  N   UNL     1      63.292  50.273  58.047  0.00  0.00    +0.000 N 
ATOM     15  H   UNL     1      62.679  49.596  57.609  0.00  0.00    +0.000 HD
ENDROOT
BRANCH  14  16
ATOM     16  C   UNL     1      64.665  50.001  58.040  0.00  0.00    +0.000 A 
ATOM     17  C   UNL     1      65.423  50.284  59.184  0.00  0.00    +0.000 A 
ATOM     18  C   UNL     1      66.793  50.026  59.214  0.00  0.00    +0.000 A 
ATOM     19  F   UNL     1      67.483  50.310  60.328  0.00  0.00    +0.000 F 
ATOM     20  C   UNL     1      67.432  49.484  58.107  0.00  0.00    +0.000 A 
ATOM     21  C   UNL     1      66.688  49.203  56.970  0.00  0.00    +0.000 A 
ATOM     22  F   UNL     1      67.294  48.678  55.894  0.00  0.00    +0.000 F 
ATOM     23  C   UNL     1      65.320  49.456  56.933  0.00  0.00    +0.000 A 
BRANCH  20  24
ATOM     24  O   UNL     1      68.775  49.235  58.144  0.00  0.00    +0.000 OA
ATOM     25  H   UNL     1      68.991  48.874  59.025  0.00  0.00    +0.000 HD
ENDBRANCH  20  24
ENDBRANCH  14  16
BRANCH   2  26
ATOM     26  C   UNL     1      64.538  54.399  60.452  0.00  0.00    +0.000 C 
ATOM     27  C   UNL     1      66.065  54.346  60.582  0.00  0.00    +0.000 C 
BRANCH  27  28
ATOM     28  C   UNL     1      67.471  54.294  60.706  0.00  0.00    +0.000 C 
ATOM     29  C   UNL     1      68.105  53.251  61.574  0.00  0.00    +0.000 C 
ATOM     30  C   UNL     1      68.320  55.313  60.011  0.00  0.00    +0.000 C 
ENDBRANCH  27  28
ENDBRANCH   2  26
TORSDOF 4
ENDMDL
MODEL 7
REMARK VINA RESULT:      -5.4     14.073     17.408
REMARK  Name = 25023738_BI-D-1870.pdbqt.pdb
REMARK  4 active torsions:
REMARK  status: ('A' for Active; 'I' for Inactive)
REMARK    1  A    between atoms: N_2  and  C_26
REMARK    2  A    between atoms: N_14  and  C_16
REMARK    3  A    between atoms: C_20  and  O_24
REMARK    4  A    between atoms: C_27  and  C_28
REMARK                            x       y       z     vdW  Elec       q    Type
REMARK                         _______ _______ _______ _____ _____    ______ ____
ROOT
ATOM      1  O   UNL     1      51.959  37.261  69.564  0.00  0.00    +0.000 OA
ATOM      2  N   UNL     1      55.309  37.332  68.200  0.00  0.00    +0.000 N 
ATOM      3  N   UNL     1      53.834  38.399  70.351  0.00  0.00    +0.000 N 
ATOM      4  N   UNL     1      57.256  38.478  68.966  0.00  0.00    +0.000 NA
ATOM      5  N   UNL     1      57.226  39.827  70.882  0.00  0.00    +0.000 NA
ATOM      6  C   UNL     1      53.976  36.999  68.312  0.00  0.00    +0.000 C 
ATOM      7  C   UNL     1      55.945  38.185  69.125  0.00  0.00    +0.000 A 
ATOM      8  C   UNL     1      53.154  37.551  69.451  0.00  0.00    +0.000 C 
ATOM      9  C   UNL     1      55.212  38.699  70.171  0.00  0.00    +0.000 A 
ATOM     10  C   UNL     1      53.332  36.073  67.286  0.00  0.00    +0.000 C 
ATOM     11  C   UNL     1      53.207  39.026  71.510  0.00  0.00    +0.000 C 
ATOM     12  C   UNL     1      55.923  39.521  71.019  0.00  0.00    +0.000 A 
ATOM     13  C   UNL     1      57.864  39.289  69.844  0.00  0.00    +0.000 A 
ATOM     14  N   UNL     1      59.208  39.613  69.715  0.00  0.00    +0.000 N 
ATOM     15  H   UNL     1      59.504  40.232  70.459  0.00  0.00    +0.000 HD
ENDROOT
BRANCH  14  16
ATOM     16  C   UNL     1      60.166  39.235  68.768  0.00  0.00    +0.000 A 
ATOM     17  C   UNL     1      59.748  38.604  67.588  0.00  0.00    +0.000 A 
ATOM     18  C   UNL     1      60.674  38.214  66.621  0.00  0.00    +0.000 A 
ATOM     19  F   UNL     1      60.234  37.614  65.505  0.00  0.00    +0.000 F 
ATOM     20  C   UNL     1      62.030  38.442  66.812  0.00  0.00    +0.000 A 
ATOM     21  C   UNL     1      62.451  39.065  67.978  0.00  0.00    +0.000 A 
ATOM     22  F   UNL     1      63.759  39.292  68.173  0.00  0.00    +0.000 F 
ATOM     23  C   UNL     1      61.533  39.459  68.947  0.00  0.00    +0.000 A 
BRANCH  20  24
ATOM     24  O   UNL     1      62.932  38.056  65.860  0.00  0.00    +0.000 OA
ATOM     25  H   UNL     1      63.575  38.781  65.743  0.00  0.00    +0.000 HD
ENDBRANCH  20  24
ENDBRANCH  14  16
BRANCH   2  26
ATOM     26  C   UNL     1      56.108  36.801  67.099  0.00  0.00    +0.000 C 
ATOM     27  C   UNL     1      56.950  36.241  65.945  0.00  0.00    +0.000 C 
BRANCH  27  28
ATOM     28  C   UNL     1      57.722  35.728  64.880  0.00  0.00    +0.000 C 
ATOM     29  C   UNL     1      57.661  36.380  63.533  0.00  0.00    +0.000 C 
ATOM     30  C   UNL     1      58.559  34.503  65.087  0.00  0.00    +0.000 C 
ENDBRANCH  27  28
ENDBRANCH   2  26
TORSDOF 4
ENDMDL
MODEL 8
REMARK VINA RESULT:      -5.4     22.227     25.351
REMARK  Name = 25023738_BI-D-1870.pdbqt.pdb
REMARK  4 active torsions:
REMARK  status: ('A' for Active; 'I' for Inactive)
REMARK    1  A    between atoms: N_2  and  C_26
REMARK    2  A    between atoms: N_14  and  C_16
REMARK    3  A    between atoms: C_20  and  O_24
REMARK    4  A    between atoms: C_27  and  C_28
REMARK                            x       y       z     vdW  Elec       q    Type
REMARK                         _______ _______ _______ _____ _____    ______ ____
ROOT
ATOM      1  O   UNL     1      54.101  37.479  74.459  0.00  0.00    +0.000 OA
ATOM      2  N   UNL     1      50.847  38.968  73.927  0.00  0.00    +0.000 N 
ATOM      3  N   UNL     1      53.540  39.352  73.193  0.00  0.00    +0.000 N 
ATOM      4  N   UNL     1      50.222  40.880  72.644  0.00  0.00    +0.000 NA
ATOM      5  N   UNL     1      51.800  42.145  71.459  0.00  0.00    +0.000 NA
ATOM      6  C   UNL     1      51.791  38.087  74.408  0.00  0.00    +0.000 C 
ATOM      7  C   UNL     1      51.192  40.046  73.087  0.00  0.00    +0.000 A 
ATOM      8  C   UNL     1      53.244  38.261  74.037  0.00  0.00    +0.000 C 
ATOM      9  C   UNL     1      52.512  40.222  72.736  0.00  0.00    +0.000 A 
ATOM     10  C   UNL     1      51.370  36.937  75.316  0.00  0.00    +0.000 C 
ATOM     11  C   UNL     1      54.884  39.680  72.728  0.00  0.00    +0.000 C 
ATOM     12  C   UNL     1      52.745  41.301  71.912  0.00  0.00    +0.000 A 
ATOM     13  C   UNL     1      50.548  41.906  71.844  0.00  0.00    +0.000 A 
ATOM     14  N   UNL     1      49.582  42.783  71.369  0.00  0.00    +0.000 N 
ATOM     15  H   UNL     1      49.997  43.495  70.781  0.00  0.00    +0.000 HD
ENDROOT
BRANCH  14  16
ATOM     16  C   UNL     1      48.197  42.832  71.564  0.00  0.00    +0.000 A 
ATOM     17  C   UNL     1      47.697  43.080  72.849  0.00  0.00    +0.000 A 
ATOM     18  C   UNL     1      46.324  43.137  73.082  0.00  0.00    +0.000 A 
ATOM     19  F   UNL     1      45.884  43.376  74.326  0.00  0.00    +0.000 F 
ATOM     20  C   UNL     1      45.425  42.946  72.041  0.00  0.00    +0.000 A 
ATOM     21  C   UNL     1      45.913  42.698  70.766  0.00  0.00    +0.000 A 
ATOM     22  F   UNL     1      45.054  42.513  69.752  0.00  0.00    +0.000 F 
ATOM     23  C   UNL     1      47.282  42.642  70.525  0.00  0.00    +0.000 A 
BRANCH  20  24
ATOM     24  O   UNL     1      44.080  43.001  72.276  0.00  0.00    +0.000 OA
ATOM     25  H   UNL     1      43.814  43.941  72.283  0.00  0.00    +0.000 HD
ENDBRANCH  20  24
ENDBRANCH  14  16
BRANCH   2  26
ATOM     26  C   UNL     1      49.440  38.805  74.286  0.00  0.00    +0.000 C 
ATOM     27  C   UNL     1      47.962  38.632  74.658  0.00  0.00    +0.000 C 
BRANCH  27  28
ATOM     28  C   UNL     1      46.602  38.474  75.006  0.00  0.00    +0.000 C 
ATOM     29  C   UNL     1      46.086  37.125  75.405  0.00  0.00    +0.000 C 
ATOM     30  C   UNL     1      45.670  39.643  74.924  0.00  0.00    +0.000 C 
ENDBRANCH  27  28
ENDBRANCH   2  26
TORSDOF 4
ENDMDL
MODEL 9
REMARK VINA RESULT:      -5.2     12.064     15.434
REMARK  Name = 25023738_BI-D-1870.pdbqt.pdb
REMARK  4 active torsions:
REMARK  status: ('A' for Active; 'I' for Inactive)
REMARK    1  A    between atoms: N_2  and  C_26
REMARK    2  A    between atoms: N_14  and  C_16
REMARK    3  A    between atoms: C_20  and  O_24
REMARK    4  A    between atoms: C_27  and  C_28
REMARK                            x       y       z     vdW  Elec       q    Type
REMARK                         _______ _______ _______ _____ _____    ______ ____
ROOT
ATOM      1  O   UNL     1      61.240  55.732  61.031  0.00  0.00    +0.000 OA
ATOM      2  N   UNL     1      63.146  53.102  59.438  0.00  0.00    +0.000 N 
ATOM      3  N   UNL     1      60.502  54.067  59.580  0.00  0.00    +0.000 N 
ATOM      4  N   UNL     1      62.437  51.378  57.948  0.00  0.00    +0.000 NA
ATOM      5  N   UNL     1      60.203  51.162  57.276  0.00  0.00    +0.000 NA
ATOM      6  C   UNL     1      62.889  54.202  60.227  0.00  0.00    +0.000 C 
ATOM      7  C   UNL     1      62.128  52.454  58.708  0.00  0.00    +0.000 A 
ATOM      8  C   UNL     1      61.485  54.747  60.328  0.00  0.00    +0.000 C 
ATOM      9  C   UNL     1      60.840  52.936  58.787  0.00  0.00    +0.000 A 
ATOM     10  C   UNL     1      64.023  54.868  60.999  0.00  0.00    +0.000 C 
ATOM     11  C   UNL     1      59.093  54.446  59.552  0.00  0.00    +0.000 C 
ATOM     12  C   UNL     1      59.920  52.235  58.038  0.00  0.00    +0.000 A 
ATOM     13  C   UNL     1      61.471  50.760  57.253  0.00  0.00    +0.000 A 
ATOM     14  N   UNL     1      61.749  49.652  56.463  0.00  0.00    +0.000 N 
ATOM     15  H   UNL     1      60.910  49.311  56.009  0.00  0.00    +0.000 HD
ENDROOT
BRANCH  14  16
ATOM     16  C   UNL     1      62.945  48.972  56.207  0.00  0.00    +0.000 A 
ATOM     17  C   UNL     1      62.916  47.813  55.420  0.00  0.00    +0.000 A 
ATOM     18  C   UNL     1      64.087  47.109  55.144  0.00  0.00    +0.000 A 
ATOM     19  F   UNL     1      64.018  46.004  54.387  0.00  0.00    +0.000 F 
ATOM     20  C   UNL     1      65.306  47.545  55.645  0.00  0.00    +0.000 A 
ATOM     21  C   UNL     1      65.342  48.691  56.426  0.00  0.00    +0.000 A 
ATOM     22  F   UNL     1      66.514  49.123  56.915  0.00  0.00    +0.000 F 
ATOM     23  C   UNL     1      64.178  49.400  56.705  0.00  0.00    +0.000 A 
BRANCH  20  24
ATOM     24  O   UNL     1      66.450  46.849  55.371  0.00  0.00    +0.000 OA
ATOM     25  H   UNL     1      67.050  47.439  54.877  0.00  0.00    +0.000 HD
ENDBRANCH  20  24
ENDBRANCH  14  16
BRANCH   2  26
ATOM     26  C   UNL     1      64.502  52.569  59.338  0.00  0.00    +0.000 C 
ATOM     27  C   UNL     1      65.928  52.015  59.232  0.00  0.00    +0.000 C 
BRANCH  27  28
ATOM     28  C   UNL     1      67.240  51.499  59.137  0.00  0.00    +0.000 C 
ATOM     29  C   UNL     1      68.155  51.984  58.055  0.00  0.00    +0.000 C 
ATOM     30  C   UNL     1      67.693  50.432  60.085  0.00  0.00    +0.000 C 
ENDBRANCH  27  28
ENDBRANCH   2  26
TORSDOF 4
ENDMDL
