MODEL 1
REMARK VINA RESULT:      -4.8      0.000      0.000
REMARK  Name = 26879_Levamisole.pdbqt.pdb
REMARK  1 active torsions:
REMARK  status: ('A' for Active; 'I' for Inactive)
REMARK    1  A    between atoms: C_5  and  C_9
REMARK                            x       y       z     vdW  Elec       q    Type
REMARK                         _______ _______ _______ _____ _____    ______ ____
ROOT
ATOM      1  S   UNL     1      61.969  57.116  60.050  0.00  0.00    +0.000 S 
ATOM      2  N   UNL     1      60.292  54.904  59.582  0.00  0.00    +0.000 NA
ATOM      3  N   UNL     1      62.680  54.677  59.152  0.00  0.00    +0.000 NA
ATOM      4  C   UNL     1      60.823  53.587  59.749  0.00  0.00    +0.000 C 
ATOM      5  C   UNL     1      62.172  53.440  59.387  0.00  0.00    +0.000 C 
ATOM      6  C   UNL     1      59.941  55.612  60.787  0.00  0.00    +0.000 C 
ATOM      7  C   UNL     1      61.628  55.535  59.308  0.00  0.00    +0.000 C 
ATOM      8  C   UNL     1      60.702  56.855  61.130  0.00  0.00    +0.000 C 
ENDROOT
BRANCH   5   9
ATOM      9  C   UNL     1      62.957  52.217  59.324  0.00  0.00    +0.000 A 
ATOM     10  C   UNL     1      64.354  52.248  59.269  0.00  0.00    +0.000 A 
ATOM     11  C   UNL     1      62.318  50.974  59.313  0.00  0.00    +0.000 A 
ATOM     12  C   UNL     1      65.095  51.068  59.206  0.00  0.00    +0.000 A 
ATOM     13  C   UNL     1      63.053  49.792  59.250  0.00  0.00    +0.000 A 
ATOM     14  C   UNL     1      64.442  49.840  59.197  0.00  0.00    +0.000 A 
ENDBRANCH   5   9
TORSDOF 1
ENDMDL
MODEL 2
REMARK VINA RESULT:      -4.5     34.890     36.791
REMARK  Name = 26879_Levamisole.pdbqt.pdb
REMARK  1 active torsions:
REMARK  status: ('A' for Active; 'I' for Inactive)
REMARK    1  A    between atoms: C_5  and  C_9
REMARK                            x       y       z     vdW  Elec       q    Type
REMARK                         _______ _______ _______ _____ _____    ______ ____
ROOT
ATOM      1  S   UNL     1      76.964  77.867  84.092  0.00  0.00    +0.000 S 
ATOM      2  N   UNL     1      79.164  78.728  82.561  0.00  0.00    +0.000 NA
ATOM      3  N   UNL     1      77.125  78.053  81.409  0.00  0.00    +0.000 NA
ATOM      4  C   UNL     1      78.923  79.376  81.310  0.00  0.00    +0.000 C 
ATOM      5  C   UNL     1      77.810  78.899  80.598  0.00  0.00    +0.000 C 
ATOM      6  C   UNL     1      78.975  79.527  83.745  0.00  0.00    +0.000 C 
ATOM      7  C   UNL     1      77.860  77.981  82.559  0.00  0.00    +0.000 C 
ATOM      8  C   UNL     1      77.884  79.144  84.696  0.00  0.00    +0.000 C 
ENDROOT
BRANCH   5   9
ATOM      9  C   UNL     1      77.379  79.261  79.257  0.00  0.00    +0.000 A 
ATOM     10  C   UNL     1      76.077  79.008  78.815  0.00  0.00    +0.000 A 
ATOM     11  C   UNL     1      78.275  79.871  78.374  0.00  0.00    +0.000 A 
ATOM     12  C   UNL     1      75.677  79.357  77.526  0.00  0.00    +0.000 A 
ATOM     13  C   UNL     1      77.881  80.223  77.085  0.00  0.00    +0.000 A 
ATOM     14  C   UNL     1      76.582  79.965  76.661  0.00  0.00    +0.000 A 
ENDBRANCH   5   9
TORSDOF 1
ENDMDL
MODEL 3
REMARK VINA RESULT:      -4.4     28.779     31.011
REMARK  Name = 26879_Levamisole.pdbqt.pdb
REMARK  1 active torsions:
REMARK  status: ('A' for Active; 'I' for Inactive)
REMARK    1  A    between atoms: C_5  and  C_9
REMARK                            x       y       z     vdW  Elec       q    Type
REMARK                         _______ _______ _______ _____ _____    ______ ____
ROOT
ATOM      1  S   UNL     1      61.699  80.309  81.243  0.00  0.00    +0.000 S 
ATOM      2  N   UNL     1      63.313  78.262  80.181  0.00  0.00    +0.000 NA
ATOM      3  N   UNL     1      60.912  77.885  80.368  0.00  0.00    +0.000 NA
ATOM      4  C   UNL     1      62.753  77.375  79.209  0.00  0.00    +0.000 C 
ATOM      5  C   UNL     1      61.395  77.072  79.394  0.00  0.00    +0.000 C 
ATOM      6  C   UNL     1      63.704  79.566  79.711  0.00  0.00    +0.000 C 
ATOM      7  C   UNL     1      61.988  78.610  80.798  0.00  0.00    +0.000 C 
ATOM      8  C   UNL     1      62.980  80.762  80.246  0.00  0.00    +0.000 C 
ENDROOT
BRANCH   5   9
ATOM      9  C   UNL     1      60.579  76.118  78.659  0.00  0.00    +0.000 A 
ATOM     10  C   UNL     1      59.438  75.542  79.226  0.00  0.00    +0.000 A 
ATOM     11  C   UNL     1      60.932  75.752  77.356  0.00  0.00    +0.000 A 
ATOM     12  C   UNL     1      58.667  74.627  78.511  0.00  0.00    +0.000 A 
ATOM     13  C   UNL     1      60.165  74.838  76.637  0.00  0.00    +0.000 A 
ATOM     14  C   UNL     1      59.032  74.276  77.215  0.00  0.00    +0.000 A 
ENDBRANCH   5   9
TORSDOF 1
ENDMDL
MODEL 4
REMARK VINA RESULT:      -4.4     22.474     23.591
REMARK  Name = 26879_Levamisole.pdbqt.pdb
REMARK  1 active torsions:
REMARK  status: ('A' for Active; 'I' for Inactive)
REMARK    1  A    between atoms: C_5  and  C_9
REMARK                            x       y       z     vdW  Elec       q    Type
REMARK                         _______ _______ _______ _____ _____    ______ ____
ROOT
ATOM      1  S   UNL     1      42.687  41.821  68.575  0.00  0.00    +0.000 S 
ATOM      2  N   UNL     1      45.356  42.717  68.583  0.00  0.00    +0.000 NA
ATOM      3  N   UNL     1      44.026  42.974  70.610  0.00  0.00    +0.000 NA
ATOM      4  C   UNL     1      46.092  42.684  69.808  0.00  0.00    +0.000 C 
ATOM      5  C   UNL     1      45.337  42.949  70.962  0.00  0.00    +0.000 C 
ATOM      6  C   UNL     1      45.202  41.462  67.892  0.00  0.00    +0.000 C 
ATOM      7  C   UNL     1      44.014  42.793  69.255  0.00  0.00    +0.000 C 
ATOM      8  C   UNL     1      43.825  40.895  67.745  0.00  0.00    +0.000 C 
ENDROOT
BRANCH   5   9
ATOM      9  C   UNL     1      45.810  43.108  72.328  0.00  0.00    +0.000 A 
ATOM     10  C   UNL     1      45.473  42.193  73.330  0.00  0.00    +0.000 A 
ATOM     11  C   UNL     1      46.618  44.198  72.667  0.00  0.00    +0.000 A 
ATOM     12  C   UNL     1      45.931  42.359  74.636  0.00  0.00    +0.000 A 
ATOM     13  C   UNL     1      47.079  44.370  73.971  0.00  0.00    +0.000 A 
ATOM     14  C   UNL     1      46.735  43.449  74.955  0.00  0.00    +0.000 A 
ENDBRANCH   5   9
TORSDOF 1
ENDMDL
MODEL 5
REMARK VINA RESULT:      -4.2     22.686     24.144
REMARK  Name = 26879_Levamisole.pdbqt.pdb
REMARK  1 active torsions:
REMARK  status: ('A' for Active; 'I' for Inactive)
REMARK    1  A    between atoms: C_5  and  C_9
REMARK                            x       y       z     vdW  Elec       q    Type
REMARK                         _______ _______ _______ _____ _____    ______ ____
ROOT
ATOM      1  S   UNL     1      46.593  40.733  69.908  0.00  0.00    +0.000 S 
ATOM      2  N   UNL     1      46.520  43.547  69.913  0.00  0.00    +0.000 NA
ATOM      3  N   UNL     1      44.416  42.319  70.003  0.00  0.00    +0.000 NA
ATOM      4  C   UNL     1      45.451  44.209  70.594  0.00  0.00    +0.000 C 
ATOM      5  C   UNL     1      44.213  43.548  70.541  0.00  0.00    +0.000 C 
ATOM      6  C   UNL     1      47.581  43.026  70.736  0.00  0.00    +0.000 C 
ATOM      7  C   UNL     1      45.744  42.281  69.682  0.00  0.00    +0.000 C 
ATOM      8  C   UNL     1      47.788  41.543  70.776  0.00  0.00    +0.000 C 
ENDROOT
BRANCH   5   9
ATOM      9  C   UNL     1      42.923  44.018  71.023  0.00  0.00    +0.000 A 
ATOM     10  C   UNL     1      42.090  43.201  71.794  0.00  0.00    +0.000 A 
ATOM     11  C   UNL     1      42.488  45.309  70.713  0.00  0.00    +0.000 A 
ATOM     12  C   UNL     1      40.855  43.663  72.247  0.00  0.00    +0.000 A 
ATOM     13  C   UNL     1      41.254  45.776  71.163  0.00  0.00    +0.000 A 
ATOM     14  C   UNL     1      40.438  44.952  71.930  0.00  0.00    +0.000 A 
ENDBRANCH   5   9
TORSDOF 1
ENDMDL
MODEL 6
REMARK VINA RESULT:      -4.2     14.508     16.822
REMARK  Name = 26879_Levamisole.pdbqt.pdb
REMARK  1 active torsions:
REMARK  status: ('A' for Active; 'I' for Inactive)
REMARK    1  A    between atoms: C_5  and  C_9
REMARK                            x       y       z     vdW  Elec       q    Type
REMARK                         _______ _______ _______ _____ _____    ______ ____
ROOT
ATOM      1  S   UNL     1      72.092  36.583  61.601  0.00  0.00    +0.000 S 
ATOM      2  N   UNL     1      70.202  38.263  62.838  0.00  0.00    +0.000 NA
ATOM      3  N   UNL     1      72.097  39.276  61.687  0.00  0.00    +0.000 NA
ATOM      4  C   UNL     1      69.962  39.559  62.282  0.00  0.00    +0.000 C 
ATOM      5  C   UNL     1      71.089  40.184  61.724  0.00  0.00    +0.000 C 
ATOM      6  C   UNL     1      69.585  37.150  62.162  0.00  0.00    +0.000 C 
ATOM      7  C   UNL     1      71.592  38.151  62.277  0.00  0.00    +0.000 C 
ATOM      8  C   UNL     1      70.471  36.130  61.516  0.00  0.00    +0.000 C 
ENDROOT
BRANCH   5   9
ATOM      9  C   UNL     1      71.198  41.536  61.199  0.00  0.00    +0.000 A 
ATOM     10  C   UNL     1      70.365  42.565  61.652  0.00  0.00    +0.000 A 
ATOM     11  C   UNL     1      72.147  41.832  60.217  0.00  0.00    +0.000 A 
ATOM     12  C   UNL     1      70.478  43.856  61.138  0.00  0.00    +0.000 A 
ATOM     13  C   UNL     1      72.265  43.121  59.700  0.00  0.00    +0.000 A 
ATOM     14  C   UNL     1      71.430  44.133  60.162  0.00  0.00    +0.000 A 
ENDBRANCH   5   9
TORSDOF 1
ENDMDL
MODEL 7
REMARK VINA RESULT:      -4.2     28.743     30.423
REMARK  Name = 26879_Levamisole.pdbqt.pdb
REMARK  1 active torsions:
REMARK  status: ('A' for Active; 'I' for Inactive)
REMARK    1  A    between atoms: C_5  and  C_9
REMARK                            x       y       z     vdW  Elec       q    Type
REMARK                         _______ _______ _______ _____ _____    ______ ____
ROOT
ATOM      1  S   UNL     1      58.733  71.247  86.930  0.00  0.00    +0.000 S 
ATOM      2  N   UNL     1      57.933  69.698  84.720  0.00  0.00    +0.000 NA
ATOM      3  N   UNL     1      58.028  72.122  84.481  0.00  0.00    +0.000 NA
ATOM      4  C   UNL     1      58.221  70.174  83.402  0.00  0.00    +0.000 C 
ATOM      5  C   UNL     1      58.158  71.569  83.248  0.00  0.00    +0.000 C 
ATOM      6  C   UNL     1      59.029  69.100  85.439  0.00  0.00    +0.000 C 
ATOM      7  C   UNL     1      57.947  71.065  85.344  0.00  0.00    +0.000 C 
ATOM      8  C   UNL     1      59.518  69.776  86.682  0.00  0.00    +0.000 C 
ENDROOT
BRANCH   5   9
ATOM      9  C   UNL     1      58.275  72.343  82.022  0.00  0.00    +0.000 A 
ATOM     10  C   UNL     1      58.302  73.741  82.040  0.00  0.00    +0.000 A 
ATOM     11  C   UNL     1      58.358  71.692  80.788  0.00  0.00    +0.000 A 
ATOM     12  C   UNL     1      58.412  74.471  80.858  0.00  0.00    +0.000 A 
ATOM     13  C   UNL     1      58.467  72.416  79.602  0.00  0.00    +0.000 A 
ATOM     14  C   UNL     1      58.494  73.806  79.638  0.00  0.00    +0.000 A 
ENDBRANCH   5   9
TORSDOF 1
ENDMDL
MODEL 8
REMARK VINA RESULT:      -4.1     12.147     14.173
REMARK  Name = 26879_Levamisole.pdbqt.pdb
REMARK  1 active torsions:
REMARK  status: ('A' for Active; 'I' for Inactive)
REMARK    1  A    between atoms: C_5  and  C_9
REMARK                            x       y       z     vdW  Elec       q    Type
REMARK                         _______ _______ _______ _____ _____    ______ ____
ROOT
ATOM      1  S   UNL     1      62.213  44.300  53.886  0.00  0.00    +0.000 S 
ATOM      2  N   UNL     1      62.364  42.034  52.222  0.00  0.00    +0.000 NA
ATOM      3  N   UNL     1      62.603  41.740  54.630  0.00  0.00    +0.000 NA
ATOM      4  C   UNL     1      61.926  40.772  52.733  0.00  0.00    +0.000 C 
ATOM      5  C   UNL     1      62.174  40.566  54.100  0.00  0.00    +0.000 C 
ATOM      6  C   UNL     1      61.333  42.951  51.806  0.00  0.00    +0.000 C 
ATOM      7  C   UNL     1      62.670  42.608  53.577  0.00  0.00    +0.000 C 
ATOM      8  C   UNL     1      61.180  44.238  52.555  0.00  0.00    +0.000 C 
ENDROOT
BRANCH   5   9
ATOM      9  C   UNL     1      61.964  39.355  54.878  0.00  0.00    +0.000 A 
ATOM     10  C   UNL     1      60.949  39.269  55.836  0.00  0.00    +0.000 A 
ATOM     11  C   UNL     1      62.789  38.244  54.681  0.00  0.00    +0.000 A 
ATOM     12  C   UNL     1      60.760  38.104  56.577  0.00  0.00    +0.000 A 
ATOM     13  C   UNL     1      62.606  37.077  55.419  0.00  0.00    +0.000 A 
ATOM     14  C   UNL     1      61.590  37.007  56.367  0.00  0.00    +0.000 A 
ENDBRANCH   5   9
TORSDOF 1
ENDMDL
MODEL 9
REMARK VINA RESULT:      -4.1      9.103     10.927
REMARK  Name = 26879_Levamisole.pdbqt.pdb
REMARK  1 active torsions:
REMARK  status: ('A' for Active; 'I' for Inactive)
REMARK    1  A    between atoms: C_5  and  C_9
REMARK                            x       y       z     vdW  Elec       q    Type
REMARK                         _______ _______ _______ _____ _____    ______ ____
ROOT
ATOM      1  S   UNL     1      72.359  51.334  63.379  0.00  0.00    +0.000 S 
ATOM      2  N   UNL     1      70.047  52.686  62.515  0.00  0.00    +0.000 NA
ATOM      3  N   UNL     1      71.035  53.303  64.656  0.00  0.00    +0.000 NA
ATOM      4  C   UNL     1      69.854  54.047  62.911  0.00  0.00    +0.000 C 
ATOM      5  C   UNL     1      70.324  54.363  64.196  0.00  0.00    +0.000 C 
ATOM      6  C   UNL     1      70.980  52.457  61.441  0.00  0.00    +0.000 C 
ATOM      7  C   UNL     1      70.929  52.349  63.683  0.00  0.00    +0.000 C 
ATOM      8  C   UNL     1      72.228  51.684  61.736  0.00  0.00    +0.000 C 
ENDROOT
BRANCH   5   9
ATOM      9  C   UNL     1      70.167  55.612  64.927  0.00  0.00    +0.000 A 
ATOM     10  C   UNL     1      69.747  56.784  64.290  0.00  0.00    +0.000 A 
ATOM     11  C   UNL     1      70.443  55.661  66.296  0.00  0.00    +0.000 A 
ATOM     12  C   UNL     1      69.604  57.974  65.002  0.00  0.00    +0.000 A 
ATOM     13  C   UNL     1      70.302  56.847  67.013  0.00  0.00    +0.000 A 
ATOM     14  C   UNL     1      69.882  58.004  66.365  0.00  0.00    +0.000 A 
ENDBRANCH   5   9
TORSDOF 1
ENDMDL
