MODEL 1
REMARK VINA RESULT:      -4.8      0.000      0.000
REMARK  Name = 27924_Phorbol.pdbqt.pdb
REMARK  26 active torsions:
REMARK  status: ('A' for Active; 'I' for Inactive)
REMARK    1  A    between atoms: O_1  and  C_10
REMARK    2  A    between atoms: O_1  and  C_26
REMARK    3  A    between atoms: O_2  and  C_13
REMARK    4  A    between atoms: O_2  and  C_28
REMARK    5  A    between atoms: O_3  and  C_14
REMARK    6  A    between atoms: O_4  and  C_20
REMARK    7  A    between atoms: O_7  and  C_29
REMARK    8  A    between atoms: C_11  and  C_16
REMARK    9  A    between atoms: C_11  and  C_17
REMARK   10  A    between atoms: C_15  and  C_21
REMARK   11  A    between atoms: C_22  and  C_29
REMARK   12  A    between atoms: C_26  and  C_30
REMARK   13  A    between atoms: C_27  and  C_31
REMARK   14  A    between atoms: C_28  and  C_32
REMARK   15  A    between atoms: C_32  and  C_33
REMARK   16  A    between atoms: C_33  and  C_34
REMARK   17  A    between atoms: C_34  and  C_35
REMARK   18  A    between atoms: C_35  and  C_36
REMARK   19  A    between atoms: C_36  and  C_37
REMARK   20  A    between atoms: C_37  and  C_38
REMARK   21  A    between atoms: C_38  and  C_39
REMARK   22  A    between atoms: C_39  and  C_40
REMARK   23  A    between atoms: C_40  and  C_41
REMARK   24  A    between atoms: C_41  and  C_42
REMARK   25  A    between atoms: C_42  and  C_43
REMARK   26  A    between atoms: C_43  and  C_44
REMARK                            x       y       z     vdW  Elec       q    Type
REMARK                         _______ _______ _______ _____ _____    ______ ____
ROOT
ATOM      1  O   UNL     1      67.696  45.697  53.504  0.00  0.00    +0.000 OA
ATOM      2  C   UNL     1      64.034  39.911  51.641  0.00  0.00    +0.000 C 
ATOM      3  C   UNL     1      62.936  39.388  52.548  0.00  0.00    +0.000 C 
ATOM      4  C   UNL     1      64.290  38.633  52.415  0.00  0.00    +0.000 C 
ATOM      5  C   UNL     1      64.585  41.294  51.819  0.00  0.00    +0.000 C 
ATOM      6  C   UNL     1      62.550  40.260  53.757  0.00  0.00    +0.000 C 
ATOM      7  C   UNL     1      64.295  42.050  53.196  0.00  0.00    +0.000 C 
ATOM      8  C   UNL     1      62.758  41.786  53.456  0.00  0.00    +0.000 C 
ATOM      9  C   UNL     1      64.376  37.387  51.551  0.00  0.00    +0.000 C 
ATOM     10  C   UNL     1      65.297  38.592  53.538  0.00  0.00    +0.000 C 
ATOM     11  C   UNL     1      64.808  43.573  53.068  0.00  0.00    +0.000 C 
ATOM     12  C   UNL     1      66.019  41.439  51.347  0.00  0.00    +0.000 C 
ATOM     13  C   UNL     1      66.384  43.739  52.902  0.00  0.00    +0.000 C 
ATOM     14  C   UNL     1      62.110  42.636  54.549  0.00  0.00    +0.000 C 
ATOM     15  C   UNL     1      66.311  42.565  50.662  0.00  0.00    +0.000 C 
ATOM     16  C   UNL     1      66.933  43.698  51.459  0.00  0.00    +0.000 C 
ATOM     17  C   UNL     1      64.559  44.552  54.208  0.00  0.00    +0.000 C 
ATOM     18  C   UNL     1      66.649  45.071  53.571  0.00  0.00    +0.000 C 
ATOM     19  C   UNL     1      65.535  45.436  54.453  0.00  0.00    +0.000 C 
ATOM     20  C   UNL     1      65.598  46.564  55.406  0.00  0.00    +0.000 C 
ENDROOT
BRANCH   7  21
ATOM     21  O   UNL     1      64.992  41.453  54.297  0.00  0.00    +0.000 OA
ATOM     22  H   UNL     1      64.333  41.249  54.997  0.00  0.00    +0.000 HD
ENDBRANCH   7  21
BRANCH  13  23
ATOM     23  O   UNL     1      67.107  42.797  53.731  0.00  0.00    +0.000 OA
ATOM     24  H   UNL     1      66.941  43.068  54.658  0.00  0.00    +0.000 HD
ENDBRANCH  13  23
BRANCH   3  25
ATOM     25  O   UNL     1      61.810  38.946  51.745  0.00  0.00    +0.000 OA
BRANCH  25  27
ATOM     26  O   UNL     1      60.781  40.655  50.713  0.00  0.00    +0.000 OA
ATOM     27  C   UNL     1      61.358  39.572  50.629  0.00  0.00    +0.000 C 
ATOM     28  C   UNL     1      61.649  38.962  49.291  0.00  0.00    +0.000 C 
ENDBRANCH  25  27
ENDBRANCH   3  25
BRANCH  15  29
ATOM     29  C   UNL     1      65.587  42.987  49.410  0.00  0.00    +0.000 C 
BRANCH  29  30
ATOM     30  O   UNL     1      66.275  44.092  48.850  0.00  0.00    +0.000 OA
ATOM     31  H   UNL     1      65.836  44.297  48.006  0.00  0.00    +0.000 HD
ENDBRANCH  29  30
ENDBRANCH  15  29
BRANCH   6  32
ATOM     32  O   UNL     1      61.152  40.003  54.065  0.00  0.00    +0.000 OA
BRANCH  32  34
ATOM     33  O   UNL     1      59.505  38.955  55.157  0.00  0.00    +0.000 OA
ATOM     34  C   UNL     1      60.701  39.228  55.077  0.00  0.00    +0.000 C 
BRANCH  34  35
ATOM     35  C   UNL     1      61.677  38.706  56.102  0.00  0.00    +0.000 C 
BRANCH  35  36
ATOM     36  C   UNL     1      61.743  37.183  56.093  0.00  0.00    +0.000 C 
BRANCH  36  37
ATOM     37  C   UNL     1      62.919  36.611  55.294  0.00  0.00    +0.000 C 
BRANCH  37  38
ATOM     38  C   UNL     1      63.784  35.607  56.069  0.00  0.00    +0.000 C 
BRANCH  38  39
ATOM     39  C   UNL     1      65.278  35.939  55.992  0.00  0.00    +0.000 C 
BRANCH  39  40
ATOM     40  C   UNL     1      66.033  35.116  54.944  0.00  0.00    +0.000 C 
BRANCH  40  41
ATOM     41  C   UNL     1      67.520  35.474  54.858  0.00  0.00    +0.000 C 
BRANCH  41  42
ATOM     42  C   UNL     1      67.825  36.905  55.309  0.00  0.00    +0.000 C 
BRANCH  42  43
ATOM     43  C   UNL     1      69.108  37.522  54.744  0.00  0.00    +0.000 C 
BRANCH  43  44
ATOM     44  C   UNL     1      68.973  38.187  53.371  0.00  0.00    +0.000 C 
BRANCH  44  45
ATOM     45  C   UNL     1      68.700  39.694  53.389  0.00  0.00    +0.000 C 
BRANCH  45  46
ATOM     46  C   UNL     1      69.681  40.558  52.594  0.00  0.00    +0.000 C 
ATOM     47  C   UNL     1      71.107  40.032  52.618  0.00  0.00    +0.000 C 
ENDBRANCH  45  46
ENDBRANCH  44  45
ENDBRANCH  43  44
ENDBRANCH  42  43
ENDBRANCH  41  42
ENDBRANCH  40  41
ENDBRANCH  39  40
ENDBRANCH  38  39
ENDBRANCH  37  38
ENDBRANCH  36  37
ENDBRANCH  35  36
ENDBRANCH  34  35
ENDBRANCH  32  34
ENDBRANCH   6  32
TORSDOF 20
ENDMDL
MODEL 2
REMARK VINA RESULT:      -4.7      1.368      2.440
REMARK  Name = 27924_Phorbol.pdbqt.pdb
REMARK  26 active torsions:
REMARK  status: ('A' for Active; 'I' for Inactive)
REMARK    1  A    between atoms: O_1  and  C_10
REMARK    2  A    between atoms: O_1  and  C_26
REMARK    3  A    between atoms: O_2  and  C_13
REMARK    4  A    between atoms: O_2  and  C_28
REMARK    5  A    between atoms: O_3  and  C_14
REMARK    6  A    between atoms: O_4  and  C_20
REMARK    7  A    between atoms: O_7  and  C_29
REMARK    8  A    between atoms: C_11  and  C_16
REMARK    9  A    between atoms: C_11  and  C_17
REMARK   10  A    between atoms: C_15  and  C_21
REMARK   11  A    between atoms: C_22  and  C_29
REMARK   12  A    between atoms: C_26  and  C_30
REMARK   13  A    between atoms: C_27  and  C_31
REMARK   14  A    between atoms: C_28  and  C_32
REMARK   15  A    between atoms: C_32  and  C_33
REMARK   16  A    between atoms: C_33  and  C_34
REMARK   17  A    between atoms: C_34  and  C_35
REMARK   18  A    between atoms: C_35  and  C_36
REMARK   19  A    between atoms: C_36  and  C_37
REMARK   20  A    between atoms: C_37  and  C_38
REMARK   21  A    between atoms: C_38  and  C_39
REMARK   22  A    between atoms: C_39  and  C_40
REMARK   23  A    between atoms: C_40  and  C_41
REMARK   24  A    between atoms: C_41  and  C_42
REMARK   25  A    between atoms: C_42  and  C_43
REMARK   26  A    between atoms: C_43  and  C_44
REMARK                            x       y       z     vdW  Elec       q    Type
REMARK                         _______ _______ _______ _____ _____    ______ ____
ROOT
ATOM      1  O   UNL     1      67.836  45.535  53.530  0.00  0.00    +0.000 OA
ATOM      2  C   UNL     1      64.038  39.861  51.595  0.00  0.00    +0.000 C 
ATOM      3  C   UNL     1      62.923  39.357  52.492  0.00  0.00    +0.000 C 
ATOM      4  C   UNL     1      64.258  38.570  52.358  0.00  0.00    +0.000 C 
ATOM      5  C   UNL     1      64.623  41.228  51.789  0.00  0.00    +0.000 C 
ATOM      6  C   UNL     1      62.553  40.227  53.708  0.00  0.00    +0.000 C 
ATOM      7  C   UNL     1      64.345  41.978  53.172  0.00  0.00    +0.000 C 
ATOM      8  C   UNL     1      62.802  41.750  53.423  0.00  0.00    +0.000 C 
ATOM      9  C   UNL     1      64.318  37.330  51.482  0.00  0.00    +0.000 C 
ATOM     10  C   UNL     1      65.260  38.493  53.484  0.00  0.00    +0.000 C 
ATOM     11  C   UNL     1      64.898  43.488  53.061  0.00  0.00    +0.000 C 
ATOM     12  C   UNL     1      66.063  41.341  51.325  0.00  0.00    +0.000 C 
ATOM     13  C   UNL     1      66.477  43.617  52.904  0.00  0.00    +0.000 C 
ATOM     14  C   UNL     1      62.170  42.605  54.521  0.00  0.00    +0.000 C 
ATOM     15  C   UNL     1      66.386  42.467  50.652  0.00  0.00    +0.000 C 
ATOM     16  C   UNL     1      67.032  43.576  51.463  0.00  0.00    +0.000 C 
ATOM     17  C   UNL     1      64.668  44.463  54.210  0.00  0.00    +0.000 C 
ATOM     18  C   UNL     1      66.773  44.935  53.587  0.00  0.00    +0.000 C 
ATOM     19  C   UNL     1      65.665  45.319  54.468  0.00  0.00    +0.000 C 
ATOM     20  C   UNL     1      65.751  46.436  55.432  0.00  0.00    +0.000 C 
ENDROOT
BRANCH   7  21
ATOM     21  O   UNL     1      65.023  41.353  54.271  0.00  0.00    +0.000 OA
ATOM     22  H   UNL     1      64.341  40.993  54.881  0.00  0.00    +0.000 HD
ENDBRANCH   7  21
BRANCH  13  23
ATOM     23  O   UNL     1      67.173  42.649  53.726  0.00  0.00    +0.000 OA
ATOM     24  H   UNL     1      67.356  41.881  53.146  0.00  0.00    +0.000 HD
ENDBRANCH  13  23
BRANCH   3  25
ATOM     25  O   UNL     1      61.790  38.952  51.681  0.00  0.00    +0.000 OA
BRANCH  25  27
ATOM     26  O   UNL     1      60.696  40.620  50.650  0.00  0.00    +0.000 OA
ATOM     27  C   UNL     1      61.367  39.593  50.562  0.00  0.00    +0.000 C 
ATOM     28  C   UNL     1      61.800  39.074  49.224  0.00  0.00    +0.000 C 
ENDBRANCH  25  27
ENDBRANCH   3  25
BRANCH  15  29
ATOM     29  C   UNL     1      65.678  42.918  49.401  0.00  0.00    +0.000 C 
BRANCH  29  30
ATOM     30  O   UNL     1      65.092  44.184  49.656  0.00  0.00    +0.000 OA
ATOM     31  H   UNL     1      65.820  44.831  49.668  0.00  0.00    +0.000 HD
ENDBRANCH  29  30
ENDBRANCH  15  29
BRANCH   6  32
ATOM     32  O   UNL     1      61.149  40.002  54.008  0.00  0.00    +0.000 OA
BRANCH  32  34
ATOM     33  O   UNL     1      59.482  38.935  55.050  0.00  0.00    +0.000 OA
ATOM     34  C   UNL     1      60.674  39.234  55.015  0.00  0.00    +0.000 C 
BRANCH  34  35
ATOM     35  C   UNL     1      61.618  38.752  56.088  0.00  0.00    +0.000 C 
BRANCH  35  36
ATOM     36  C   UNL     1      62.048  37.309  55.853  0.00  0.00    +0.000 C 
BRANCH  36  37
ATOM     37  C   UNL     1      63.486  37.003  56.287  0.00  0.00    +0.000 C 
BRANCH  37  38
ATOM     38  C   UNL     1      63.874  35.521  56.196  0.00  0.00    +0.000 C 
BRANCH  38  39
ATOM     39  C   UNL     1      62.740  34.651  55.645  0.00  0.00    +0.000 C 
BRANCH  39  40
ATOM     40  C   UNL     1      63.164  33.210  55.347  0.00  0.00    +0.000 C 
BRANCH  40  41
ATOM     41  C   UNL     1      63.095  32.860  53.859  0.00  0.00    +0.000 C 
BRANCH  41  42
ATOM     42  C   UNL     1      63.649  33.961  52.951  0.00  0.00    +0.000 C 
BRANCH  42  43
ATOM     43  C   UNL     1      65.117  33.812  52.540  0.00  0.00    +0.000 C 
BRANCH  43  44
ATOM     44  C   UNL     1      66.123  34.598  53.385  0.00  0.00    +0.000 C 
BRANCH  44  45
ATOM     45  C   UNL     1      66.734  33.836  54.565  0.00  0.00    +0.000 C 
BRANCH  45  46
ATOM     46  C   UNL     1      67.515  34.684  55.572  0.00  0.00    +0.000 C 
ATOM     47  C   UNL     1      67.452  36.176  55.285  0.00  0.00    +0.000 C 
ENDBRANCH  45  46
ENDBRANCH  44  45
ENDBRANCH  43  44
ENDBRANCH  42  43
ENDBRANCH  41  42
ENDBRANCH  40  41
ENDBRANCH  39  40
ENDBRANCH  38  39
ENDBRANCH  37  38
ENDBRANCH  36  37
ENDBRANCH  35  36
ENDBRANCH  34  35
ENDBRANCH  32  34
ENDBRANCH   6  32
TORSDOF 20
ENDMDL
MODEL 3
REMARK VINA RESULT:      -4.7     16.753     19.760
REMARK  Name = 27924_Phorbol.pdbqt.pdb
REMARK  26 active torsions:
REMARK  status: ('A' for Active; 'I' for Inactive)
REMARK    1  A    between atoms: O_1  and  C_10
REMARK    2  A    between atoms: O_1  and  C_26
REMARK    3  A    between atoms: O_2  and  C_13
REMARK    4  A    between atoms: O_2  and  C_28
REMARK    5  A    between atoms: O_3  and  C_14
REMARK    6  A    between atoms: O_4  and  C_20
REMARK    7  A    between atoms: O_7  and  C_29
REMARK    8  A    between atoms: C_11  and  C_16
REMARK    9  A    between atoms: C_11  and  C_17
REMARK   10  A    between atoms: C_15  and  C_21
REMARK   11  A    between atoms: C_22  and  C_29
REMARK   12  A    between atoms: C_26  and  C_30
REMARK   13  A    between atoms: C_27  and  C_31
REMARK   14  A    between atoms: C_28  and  C_32
REMARK   15  A    between atoms: C_32  and  C_33
REMARK   16  A    between atoms: C_33  and  C_34
REMARK   17  A    between atoms: C_34  and  C_35
REMARK   18  A    between atoms: C_35  and  C_36
REMARK   19  A    between atoms: C_36  and  C_37
REMARK   20  A    between atoms: C_37  and  C_38
REMARK   21  A    between atoms: C_38  and  C_39
REMARK   22  A    between atoms: C_39  and  C_40
REMARK   23  A    between atoms: C_40  and  C_41
REMARK   24  A    between atoms: C_41  and  C_42
REMARK   25  A    between atoms: C_42  and  C_43
REMARK   26  A    between atoms: C_43  and  C_44
REMARK                            x       y       z     vdW  Elec       q    Type
REMARK                         _______ _______ _______ _____ _____    ______ ____
ROOT
ATOM      1  O   UNL     1      57.441  39.804  70.529  0.00  0.00    +0.000 OA
ATOM      2  C   UNL     1      64.375  39.030  69.233  0.00  0.00    +0.000 C 
ATOM      3  C   UNL     1      65.291  38.494  70.318  0.00  0.00    +0.000 C 
ATOM      4  C   UNL     1      65.332  39.994  69.908  0.00  0.00    +0.000 C 
ATOM      5  C   UNL     1      62.887  38.886  69.343  0.00  0.00    +0.000 C 
ATOM      6  C   UNL     1      64.624  37.969  71.603  0.00  0.00    +0.000 C 
ATOM      7  C   UNL     1      62.267  38.530  70.772  0.00  0.00    +0.000 C 
ATOM      8  C   UNL     1      63.201  37.376  71.312  0.00  0.00    +0.000 C 
ATOM      9  C   UNL     1      66.446  40.499  69.007  0.00  0.00    +0.000 C 
ATOM     10  C   UNL     1      64.824  41.087  70.815  0.00  0.00    +0.000 C 
ATOM     11  C   UNL     1      60.692  38.233  70.592  0.00  0.00    +0.000 C 
ATOM     12  C   UNL     1      62.119  39.971  68.610  0.00  0.00    +0.000 C 
ATOM     13  C   UNL     1      59.820  39.484  70.133  0.00  0.00    +0.000 C 
ATOM     14  C   UNL     1      62.684  36.615  72.533  0.00  0.00    +0.000 C 
ATOM     15  C   UNL     1      61.035  39.567  67.914  0.00  0.00    +0.000 C 
ATOM     16  C   UNL     1      59.693  39.715  68.610  0.00  0.00    +0.000 C 
ATOM     17  C   UNL     1      59.871  37.764  71.786  0.00  0.00    +0.000 C 
ATOM     18  C   UNL     1      58.479  39.207  70.777  0.00  0.00    +0.000 C 
ATOM     19  C   UNL     1      58.620  38.234  71.866  0.00  0.00    +0.000 C 
ATOM     20  C   UNL     1      57.534  37.930  72.822  0.00  0.00    +0.000 C 
ENDROOT
BRANCH   7  21
ATOM     21  O   UNL     1      62.395  39.614  71.701  0.00  0.00    +0.000 OA
ATOM     22  H   UNL     1      63.114  39.387  72.332  0.00  0.00    +0.000 HD
ENDBRANCH   7  21
BRANCH  13  23
ATOM     23  O   UNL     1      60.258  40.703  70.781  0.00  0.00    +0.000 OA
ATOM     24  H   UNL     1      60.063  40.588  71.734  0.00  0.00    +0.000 HD
ENDBRANCH  13  23
BRANCH   3  25
ATOM     25  O   UNL     1      66.259  37.584  69.733  0.00  0.00    +0.000 OA
BRANCH  25  27
ATOM     26  O   UNL     1      65.275  35.740  68.913  0.00  0.00    +0.000 OA
ATOM     27  C   UNL     1      65.998  36.716  68.723  0.00  0.00    +0.000 C 
ATOM     28  C   UNL     1      66.537  37.015  67.357  0.00  0.00    +0.000 C 
ENDBRANCH  25  27
ENDBRANCH   3  25
BRANCH  15  29
ATOM     29  C   UNL     1      61.083  38.516  66.837  0.00  0.00    +0.000 C 
BRANCH  29  30
ATOM     30  O   UNL     1      62.023  38.926  65.859  0.00  0.00    +0.000 OA
ATOM     31  H   UNL     1      62.580  39.608  66.275  0.00  0.00    +0.000 HD
ENDBRANCH  29  30
ENDBRANCH  15  29
BRANCH   6  32
ATOM     32  O   UNL     1      65.484  36.941  72.165  0.00  0.00    +0.000 OA
BRANCH  32  34
ATOM     33  O   UNL     1      65.813  36.725  74.366  0.00  0.00    +0.000 OA
ATOM     34  C   UNL     1      66.249  37.075  73.272  0.00  0.00    +0.000 C 
BRANCH  34  35
ATOM     35  C   UNL     1      67.636  37.655  73.148  0.00  0.00    +0.000 C 
BRANCH  35  36
ATOM     36  C   UNL     1      67.775  38.954  73.934  0.00  0.00    +0.000 C 
BRANCH  36  37
ATOM     37  C   UNL     1      67.695  40.220  73.074  0.00  0.00    +0.000 C 
BRANCH  37  38
ATOM     38  C   UNL     1      66.858  41.350  73.686  0.00  0.00    +0.000 C 
BRANCH  38  39
ATOM     39  C   UNL     1      65.566  40.839  74.333  0.00  0.00    +0.000 C 
BRANCH  39  40
ATOM     40  C   UNL     1      65.082  41.705  75.499  0.00  0.00    +0.000 C 
BRANCH  40  41
ATOM     41  C   UNL     1      64.976  40.934  76.817  0.00  0.00    +0.000 C 
BRANCH  41  42
ATOM     42  C   UNL     1      65.157  39.422  76.650  0.00  0.00    +0.000 C 
BRANCH  42  43
ATOM     43  C   UNL     1      65.901  38.711  77.784  0.00  0.00    +0.000 C 
BRANCH  43  44
ATOM     44  C   UNL     1      67.160  37.944  77.369  0.00  0.00    +0.000 C 
BRANCH  44  45
ATOM     45  C   UNL     1      68.483  38.692  77.558  0.00  0.00    +0.000 C 
BRANCH  45  46
ATOM     46  C   UNL     1      68.364  40.175  77.916  0.00  0.00    +0.000 C 
ATOM     47  C   UNL     1      68.799  40.491  79.338  0.00  0.00    +0.000 C 
ENDBRANCH  45  46
ENDBRANCH  44  45
ENDBRANCH  43  44
ENDBRANCH  42  43
ENDBRANCH  41  42
ENDBRANCH  40  41
ENDBRANCH  39  40
ENDBRANCH  38  39
ENDBRANCH  37  38
ENDBRANCH  36  37
ENDBRANCH  35  36
ENDBRANCH  34  35
ENDBRANCH  32  34
ENDBRANCH   6  32
TORSDOF 20
ENDMDL
MODEL 4
REMARK VINA RESULT:      -4.5      1.885      3.528
REMARK  Name = 27924_Phorbol.pdbqt.pdb
REMARK  26 active torsions:
REMARK  status: ('A' for Active; 'I' for Inactive)
REMARK    1  A    between atoms: O_1  and  C_10
REMARK    2  A    between atoms: O_1  and  C_26
REMARK    3  A    between atoms: O_2  and  C_13
REMARK    4  A    between atoms: O_2  and  C_28
REMARK    5  A    between atoms: O_3  and  C_14
REMARK    6  A    between atoms: O_4  and  C_20
REMARK    7  A    between atoms: O_7  and  C_29
REMARK    8  A    between atoms: C_11  and  C_16
REMARK    9  A    between atoms: C_11  and  C_17
REMARK   10  A    between atoms: C_15  and  C_21
REMARK   11  A    between atoms: C_22  and  C_29
REMARK   12  A    between atoms: C_26  and  C_30
REMARK   13  A    between atoms: C_27  and  C_31
REMARK   14  A    between atoms: C_28  and  C_32
REMARK   15  A    between atoms: C_32  and  C_33
REMARK   16  A    between atoms: C_33  and  C_34
REMARK   17  A    between atoms: C_34  and  C_35
REMARK   18  A    between atoms: C_35  and  C_36
REMARK   19  A    between atoms: C_36  and  C_37
REMARK   20  A    between atoms: C_37  and  C_38
REMARK   21  A    between atoms: C_38  and  C_39
REMARK   22  A    between atoms: C_39  and  C_40
REMARK   23  A    between atoms: C_40  and  C_41
REMARK   24  A    between atoms: C_41  and  C_42
REMARK   25  A    between atoms: C_42  and  C_43
REMARK   26  A    between atoms: C_43  and  C_44
REMARK                            x       y       z     vdW  Elec       q    Type
REMARK                         _______ _______ _______ _____ _____    ______ ____
ROOT
ATOM      1  O   UNL     1      66.492  45.929  52.833  0.00  0.00    +0.000 OA
ATOM      2  C   UNL     1      64.057  39.333  51.871  0.00  0.00    +0.000 C 
ATOM      3  C   UNL     1      63.309  38.634  52.990  0.00  0.00    +0.000 C 
ATOM      4  C   UNL     1      64.755  38.208  52.608  0.00  0.00    +0.000 C 
ATOM      5  C   UNL     1      64.280  40.816  51.904  0.00  0.00    +0.000 C 
ATOM      6  C   UNL     1      62.957  39.475  54.231  0.00  0.00    +0.000 C 
ATOM      7  C   UNL     1      64.079  41.578  53.294  0.00  0.00    +0.000 C 
ATOM      8  C   UNL     1      62.730  40.982  53.860  0.00  0.00    +0.000 C 
ATOM      9  C   UNL     1      64.978  36.958  51.772  0.00  0.00    +0.000 C 
ATOM     10  C   UNL     1      65.935  38.482  53.508  0.00  0.00    +0.000 C 
ATOM     11  C   UNL     1      64.176  43.166  53.031  0.00  0.00    +0.000 C 
ATOM     12  C   UNL     1      65.522  41.257  51.153  0.00  0.00    +0.000 C 
ATOM     13  C   UNL     1      65.604  43.682  52.550  0.00  0.00    +0.000 C 
ATOM     14  C   UNL     1      62.112  41.732  55.040  0.00  0.00    +0.000 C 
ATOM     15  C   UNL     1      65.398  42.369  50.397  0.00  0.00    +0.000 C 
ATOM     16  C   UNL     1      65.866  43.669  51.028  0.00  0.00    +0.000 C 
ATOM     17  C   UNL     1      63.915  44.137  54.175  0.00  0.00    +0.000 C 
ATOM     18  C   UNL     1      65.659  45.082  53.123  0.00  0.00    +0.000 C 
ATOM     19  C   UNL     1      64.676  45.239  54.200  0.00  0.00    +0.000 C 
ATOM     20  C   UNL     1      64.641  46.415  55.095  0.00  0.00    +0.000 C 
ENDROOT
BRANCH   7  21
ATOM     21  O   UNL     1      65.095  41.239  54.247  0.00  0.00    +0.000 OA
ATOM     22  H   UNL     1      65.874  40.902  53.751  0.00  0.00    +0.000 HD
ENDBRANCH   7  21
BRANCH  13  23
ATOM     23  O   UNL     1      66.676  42.995  53.240  0.00  0.00    +0.000 OA
ATOM     24  H   UNL     1      67.449  43.596  53.205  0.00  0.00    +0.000 HD
ENDBRANCH  13  23
BRANCH   3  25
ATOM     25  O   UNL     1      62.193  37.887  52.438  0.00  0.00    +0.000 OA
BRANCH  25  27
ATOM     26  O   UNL     1      60.834  39.363  51.431  0.00  0.00    +0.000 OA
ATOM     27  C   UNL     1      61.432  38.290  51.390  0.00  0.00    +0.000 C 
ATOM     28  C   UNL     1      61.400  37.443  50.153  0.00  0.00    +0.000 C 
ENDBRANCH  25  27
ENDBRANCH   3  25
BRANCH  15  29
ATOM     29  C   UNL     1      64.372  42.522  49.305  0.00  0.00    +0.000 C 
BRANCH  29  30
ATOM     30  O   UNL     1      64.910  41.978  48.112  0.00  0.00    +0.000 OA
ATOM     31  H   UNL     1      64.379  42.337  47.378  0.00  0.00    +0.000 HD
ENDBRANCH  29  30
ENDBRANCH  15  29
BRANCH   6  32
ATOM     32  O   UNL     1      61.747  38.921  54.817  0.00  0.00    +0.000 OA
BRANCH  32  34
ATOM     33  O   UNL     1      60.627  38.309  56.654  0.00  0.00    +0.000 OA
ATOM     34  C   UNL     1      61.671  38.283  56.007  0.00  0.00    +0.000 C 
BRANCH  34  35
ATOM     35  C   UNL     1      62.878  37.542  56.528  0.00  0.00    +0.000 C 
BRANCH  35  36
ATOM     36  C   UNL     1      62.852  36.072  56.130  0.00  0.00    +0.000 C 
BRANCH  36  37
ATOM     37  C   UNL     1      64.021  35.643  55.235  0.00  0.00    +0.000 C 
BRANCH  37  38
ATOM     38  C   UNL     1      65.320  35.338  55.993  0.00  0.00    +0.000 C 
BRANCH  38  39
ATOM     39  C   UNL     1      66.555  35.397  55.087  0.00  0.00    +0.000 C 
BRANCH  39  40
ATOM     40  C   UNL     1      66.719  34.162  54.197  0.00  0.00    +0.000 C 
BRANCH  40  41
ATOM     41  C   UNL     1      67.109  32.906  54.980  0.00  0.00    +0.000 C 
BRANCH  41  42
ATOM     42  C   UNL     1      66.191  31.712  54.706  0.00  0.00    +0.000 C 
BRANCH  42  43
ATOM     43  C   UNL     1      64.817  31.759  55.380  0.00  0.00    +0.000 C 
BRANCH  43  44
ATOM     44  C   UNL     1      63.781  30.767  54.843  0.00  0.00    +0.000 C 
BRANCH  44  45
ATOM     45  C   UNL     1      62.881  31.292  53.721  0.00  0.00    +0.000 C 
BRANCH  45  46
ATOM     46  C   UNL     1      62.798  32.814  53.591  0.00  0.00    +0.000 C 
ATOM     47  C   UNL     1      63.405  33.346  52.303  0.00  0.00    +0.000 C 
ENDBRANCH  45  46
ENDBRANCH  44  45
ENDBRANCH  43  44
ENDBRANCH  42  43
ENDBRANCH  41  42
ENDBRANCH  40  41
ENDBRANCH  39  40
ENDBRANCH  38  39
ENDBRANCH  37  38
ENDBRANCH  36  37
ENDBRANCH  35  36
ENDBRANCH  34  35
ENDBRANCH  32  34
ENDBRANCH   6  32
TORSDOF 20
ENDMDL
MODEL 5
REMARK VINA RESULT:      -4.4     15.486     19.123
REMARK  Name = 27924_Phorbol.pdbqt.pdb
REMARK  26 active torsions:
REMARK  status: ('A' for Active; 'I' for Inactive)
REMARK    1  A    between atoms: O_1  and  C_10
REMARK    2  A    between atoms: O_1  and  C_26
REMARK    3  A    between atoms: O_2  and  C_13
REMARK    4  A    between atoms: O_2  and  C_28
REMARK    5  A    between atoms: O_3  and  C_14
REMARK    6  A    between atoms: O_4  and  C_20
REMARK    7  A    between atoms: O_7  and  C_29
REMARK    8  A    between atoms: C_11  and  C_16
REMARK    9  A    between atoms: C_11  and  C_17
REMARK   10  A    between atoms: C_15  and  C_21
REMARK   11  A    between atoms: C_22  and  C_29
REMARK   12  A    between atoms: C_26  and  C_30
REMARK   13  A    between atoms: C_27  and  C_31
REMARK   14  A    between atoms: C_28  and  C_32
REMARK   15  A    between atoms: C_32  and  C_33
REMARK   16  A    between atoms: C_33  and  C_34
REMARK   17  A    between atoms: C_34  and  C_35
REMARK   18  A    between atoms: C_35  and  C_36
REMARK   19  A    between atoms: C_36  and  C_37
REMARK   20  A    between atoms: C_37  and  C_38
REMARK   21  A    between atoms: C_38  and  C_39
REMARK   22  A    between atoms: C_39  and  C_40
REMARK   23  A    between atoms: C_40  and  C_41
REMARK   24  A    between atoms: C_41  and  C_42
REMARK   25  A    between atoms: C_42  and  C_43
REMARK   26  A    between atoms: C_43  and  C_44
REMARK                            x       y       z     vdW  Elec       q    Type
REMARK                         _______ _______ _______ _____ _____    ______ ____
ROOT
ATOM      1  O   UNL     1      58.115  38.169  75.613  0.00  0.00    +0.000 OA
ATOM      2  C   UNL     1      60.026  38.359  68.782  0.00  0.00    +0.000 C 
ATOM      3  C   UNL     1      61.326  37.710  68.343  0.00  0.00    +0.000 C 
ATOM      4  C   UNL     1      61.184  39.259  68.396  0.00  0.00    +0.000 C 
ATOM      5  C   UNL     1      59.426  38.049  70.120  0.00  0.00    +0.000 C 
ATOM      6  C   UNL     1      62.084  36.877  69.393  0.00  0.00    +0.000 C 
ATOM      7  C   UNL     1      60.354  37.356  71.221  0.00  0.00    +0.000 C 
ATOM      8  C   UNL     1      61.100  36.216  70.422  0.00  0.00    +0.000 C 
ATOM      9  C   UNL     1      60.965  40.041  67.112  0.00  0.00    +0.000 C 
ATOM     10  C   UNL     1      61.898  40.093  69.431  0.00  0.00    +0.000 C 
ATOM     11  C   UNL     1      59.440  36.947  72.484  0.00  0.00    +0.000 C 
ATOM     12  C   UNL     1      58.577  39.177  70.677  0.00  0.00    +0.000 C 
ATOM     13  C   UNL     1      58.805  38.171  73.281  0.00  0.00    +0.000 C 
ATOM     14  C   UNL     1      61.838  35.179  71.269  0.00  0.00    +0.000 C 
ATOM     15  C   UNL     1      57.417  38.815  71.266  0.00  0.00    +0.000 C 
ATOM     16  C   UNL     1      57.439  38.688  72.779  0.00  0.00    +0.000 C 
ATOM     17  C   UNL     1      60.055  36.170  73.641  0.00  0.00    +0.000 C 
ATOM     18  C   UNL     1      58.726  37.641  74.696  0.00  0.00    +0.000 C 
ATOM     19  C   UNL     1      59.619  36.489  74.867  0.00  0.00    +0.000 C 
ATOM     20  C   UNL     1      59.925  35.895  76.185  0.00  0.00    +0.000 C 
ENDROOT
BRANCH   7  21
ATOM     21  O   UNL     1      61.376  38.241  71.700  0.00  0.00    +0.000 OA
ATOM     22  H   UNL     1      62.190  37.709  71.847  0.00  0.00    +0.000 HD
ENDBRANCH   7  21
BRANCH  13  23
ATOM     23  O   UNL     1      59.738  39.274  73.388  0.00  0.00    +0.000 OA
ATOM     24  H   UNL     1      60.124  39.391  72.495  0.00  0.00    +0.000 HD
ENDBRANCH  13  23
BRANCH   3  25
ATOM     25  O   UNL     1      61.130  37.036  67.073  0.00  0.00    +0.000 OA
BRANCH  25  27
ATOM     26  O   UNL     1      59.270  37.016  65.814  0.00  0.00    +0.000 OA
ATOM     27  C   UNL     1      59.966  36.467  66.667  0.00  0.00    +0.000 C 
ATOM     28  C   UNL     1      59.590  35.123  67.214  0.00  0.00    +0.000 C 
ENDBRANCH  25  27
ENDBRANCH   3  25
BRANCH  15  29
ATOM     29  C   UNL     1      56.350  38.009  70.572  0.00  0.00    +0.000 C 
BRANCH  29  30
ATOM     30  O   UNL     1      56.012  38.668  69.363  0.00  0.00    +0.000 OA
ATOM     31  H   UNL     1      55.058  38.859  69.406  0.00  0.00    +0.000 HD
ENDBRANCH  29  30
ENDBRANCH  15  29
BRANCH   6  32
ATOM     32  O   UNL     1      62.832  35.847  68.691  0.00  0.00    +0.000 OA
BRANCH  32  34
ATOM     33  O   UNL     1      64.607  35.142  67.526  0.00  0.00    +0.000 OA
ATOM     34  C   UNL     1      64.142  35.915  68.361  0.00  0.00    +0.000 C 
BRANCH  34  35
ATOM     35  C   UNL     1      65.021  36.946  69.026  0.00  0.00    +0.000 C 
BRANCH  35  36
ATOM     36  C   UNL     1      65.342  38.102  68.087  0.00  0.00    +0.000 C 
BRANCH  36  37
ATOM     37  C   UNL     1      66.732  38.714  68.297  0.00  0.00    +0.000 C 
BRANCH  37  38
ATOM     38  C   UNL     1      66.725  40.069  69.018  0.00  0.00    +0.000 C 
BRANCH  38  39
ATOM     39  C   UNL     1      65.331  40.702  69.063  0.00  0.00    +0.000 C 
BRANCH  39  40
ATOM     40  C   UNL     1      64.991  41.337  70.415  0.00  0.00    +0.000 C 
BRANCH  40  41
ATOM     41  C   UNL     1      65.391  40.463  71.606  0.00  0.00    +0.000 C 
BRANCH  41  42
ATOM     42  C   UNL     1      66.234  41.205  72.647  0.00  0.00    +0.000 C 
BRANCH  42  43
ATOM     43  C   UNL     1      65.464  41.789  73.835  0.00  0.00    +0.000 C 
BRANCH  43  44
ATOM     44  C   UNL     1      64.714  40.771  74.700  0.00  0.00    +0.000 C 
BRANCH  44  45
ATOM     45  C   UNL     1      65.583  39.701  75.367  0.00  0.00    +0.000 C 
BRANCH  45  46
ATOM     46  C   UNL     1      65.681  38.366  74.624  0.00  0.00    +0.000 C 
ATOM     47  C   UNL     1      64.337  37.834  74.155  0.00  0.00    +0.000 C 
ENDBRANCH  45  46
ENDBRANCH  44  45
ENDBRANCH  43  44
ENDBRANCH  42  43
ENDBRANCH  41  42
ENDBRANCH  40  41
ENDBRANCH  39  40
ENDBRANCH  38  39
ENDBRANCH  37  38
ENDBRANCH  36  37
ENDBRANCH  35  36
ENDBRANCH  34  35
ENDBRANCH  32  34
ENDBRANCH   6  32
TORSDOF 20
ENDMDL
MODEL 6
REMARK VINA RESULT:      -4.2      2.167      4.215
REMARK  Name = 27924_Phorbol.pdbqt.pdb
REMARK  26 active torsions:
REMARK  status: ('A' for Active; 'I' for Inactive)
REMARK    1  A    between atoms: O_1  and  C_10
REMARK    2  A    between atoms: O_1  and  C_26
REMARK    3  A    between atoms: O_2  and  C_13
REMARK    4  A    between atoms: O_2  and  C_28
REMARK    5  A    between atoms: O_3  and  C_14
REMARK    6  A    between atoms: O_4  and  C_20
REMARK    7  A    between atoms: O_7  and  C_29
REMARK    8  A    between atoms: C_11  and  C_16
REMARK    9  A    between atoms: C_11  and  C_17
REMARK   10  A    between atoms: C_15  and  C_21
REMARK   11  A    between atoms: C_22  and  C_29
REMARK   12  A    between atoms: C_26  and  C_30
REMARK   13  A    between atoms: C_27  and  C_31
REMARK   14  A    between atoms: C_28  and  C_32
REMARK   15  A    between atoms: C_32  and  C_33
REMARK   16  A    between atoms: C_33  and  C_34
REMARK   17  A    between atoms: C_34  and  C_35
REMARK   18  A    between atoms: C_35  and  C_36
REMARK   19  A    between atoms: C_36  and  C_37
REMARK   20  A    between atoms: C_37  and  C_38
REMARK   21  A    between atoms: C_38  and  C_39
REMARK   22  A    between atoms: C_39  and  C_40
REMARK   23  A    between atoms: C_40  and  C_41
REMARK   24  A    between atoms: C_41  and  C_42
REMARK   25  A    between atoms: C_42  and  C_43
REMARK   26  A    between atoms: C_43  and  C_44
REMARK                            x       y       z     vdW  Elec       q    Type
REMARK                         _______ _______ _______ _____ _____    ______ ____
ROOT
ATOM      1  O   UNL     1      67.769  45.633  53.540  0.00  0.00    +0.000 OA
ATOM      2  C   UNL     1      64.125  39.857  51.613  0.00  0.00    +0.000 C 
ATOM      3  C   UNL     1      63.004  39.342  52.496  0.00  0.00    +0.000 C 
ATOM      4  C   UNL     1      64.357  38.581  52.398  0.00  0.00    +0.000 C 
ATOM      5  C   UNL     1      64.678  41.238  51.799  0.00  0.00    +0.000 C 
ATOM      6  C   UNL     1      62.593  40.221  53.692  0.00  0.00    +0.000 C 
ATOM      7  C   UNL     1      64.359  42.000  53.166  0.00  0.00    +0.000 C 
ATOM      8  C   UNL     1      62.816  41.744  53.391  0.00  0.00    +0.000 C 
ATOM      9  C   UNL     1      64.458  37.331  51.541  0.00  0.00    +0.000 C 
ATOM     10  C   UNL     1      65.338  38.540  53.544  0.00  0.00    +0.000 C 
ATOM     11  C   UNL     1      64.883  43.520  53.044  0.00  0.00    +0.000 C 
ATOM     12  C   UNL     1      66.124  41.374  51.361  0.00  0.00    +0.000 C 
ATOM     13  C   UNL     1      66.462  43.679  52.915  0.00  0.00    +0.000 C 
ATOM     14  C   UNL     1      62.146  42.601  54.465  0.00  0.00    +0.000 C 
ATOM     15  C   UNL     1      66.437  42.497  50.678  0.00  0.00    +0.000 C 
ATOM     16  C   UNL     1      67.045  43.630  51.485  0.00  0.00    +0.000 C 
ATOM     17  C   UNL     1      64.611  44.505  54.174  0.00  0.00    +0.000 C 
ATOM     18  C   UNL     1      66.718  45.012  53.585  0.00  0.00    +0.000 C 
ATOM     19  C   UNL     1      65.585  45.386  54.439  0.00  0.00    +0.000 C 
ATOM     20  C   UNL     1      65.630  46.517  55.389  0.00  0.00    +0.000 C 
ENDROOT
BRANCH   7  21
ATOM     21  O   UNL     1      65.028  41.405  54.286  0.00  0.00    +0.000 OA
ATOM     22  H   UNL     1      64.342  41.040  54.888  0.00  0.00    +0.000 HD
ENDBRANCH   7  21
BRANCH  13  23
ATOM     23  O   UNL     1      67.162  42.737  53.764  0.00  0.00    +0.000 OA
ATOM     24  H   UNL     1      67.951  42.451  53.259  0.00  0.00    +0.000 HD
ENDBRANCH  13  23
BRANCH   3  25
ATOM     25  O   UNL     1      61.895  38.902  51.669  0.00  0.00    +0.000 OA
BRANCH  25  27
ATOM     26  O   UNL     1      61.766  38.658  49.441  0.00  0.00    +0.000 OA
ATOM     27  C   UNL     1      61.616  39.375  50.428  0.00  0.00    +0.000 C 
ATOM     28  C   UNL     1      61.046  40.755  50.292  0.00  0.00    +0.000 C 
ENDBRANCH  25  27
ENDBRANCH   3  25
BRANCH  15  29
ATOM     29  C   UNL     1      65.744  42.916  49.408  0.00  0.00    +0.000 C 
BRANCH  29  30
ATOM     30  O   UNL     1      66.538  42.498  48.311  0.00  0.00    +0.000 OA
ATOM     31  H   UNL     1      66.609  43.261  47.710  0.00  0.00    +0.000 HD
ENDBRANCH  29  30
ENDBRANCH  15  29
BRANCH   6  32
ATOM     32  O   UNL     1      61.188  39.971  53.969  0.00  0.00    +0.000 OA
BRANCH  32  34
ATOM     33  O   UNL     1      59.520  38.926  55.031  0.00  0.00    +0.000 OA
ATOM     34  C   UNL     1      60.708  39.237  54.999  0.00  0.00    +0.000 C 
BRANCH  34  35
ATOM     35  C   UNL     1      61.644  38.808  56.101  0.00  0.00    +0.000 C 
BRANCH  35  36
ATOM     36  C   UNL     1      62.041  37.343  55.965  0.00  0.00    +0.000 C 
BRANCH  36  37
ATOM     37  C   UNL     1      63.464  37.031  56.443  0.00  0.00    +0.000 C 
BRANCH  37  38
ATOM     38  C   UNL     1      64.059  35.742  55.862  0.00  0.00    +0.000 C 
BRANCH  38  39
ATOM     39  C   UNL     1      63.304  35.255  54.621  0.00  0.00    +0.000 C 
BRANCH  39  40
ATOM     40  C   UNL     1      63.942  34.031  53.958  0.00  0.00    +0.000 C 
BRANCH  40  41
ATOM     41  C   UNL     1      63.730  33.990  52.442  0.00  0.00    +0.000 C 
BRANCH  41  42
ATOM     42  C   UNL     1      63.310  32.611  51.927  0.00  0.00    +0.000 C 
BRANCH  42  43
ATOM     43  C   UNL     1      61.896  32.518  51.346  0.00  0.00    +0.000 C 
BRANCH  43  44
ATOM     44  C   UNL     1      60.823  31.985  52.301  0.00  0.00    +0.000 C 
BRANCH  44  45
ATOM     45  C   UNL     1      61.345  31.285  53.559  0.00  0.00    +0.000 C 
BRANCH  45  46
ATOM     46  C   UNL     1      61.071  32.003  54.882  0.00  0.00    +0.000 C 
ATOM     47  C   UNL     1      59.694  31.708  55.457  0.00  0.00    +0.000 C 
ENDBRANCH  45  46
ENDBRANCH  44  45
ENDBRANCH  43  44
ENDBRANCH  42  43
ENDBRANCH  41  42
ENDBRANCH  40  41
ENDBRANCH  39  40
ENDBRANCH  38  39
ENDBRANCH  37  38
ENDBRANCH  36  37
ENDBRANCH  35  36
ENDBRANCH  34  35
ENDBRANCH  32  34
ENDBRANCH   6  32
TORSDOF 20
ENDMDL
MODEL 7
REMARK VINA RESULT:      -4.2     13.824     18.576
REMARK  Name = 27924_Phorbol.pdbqt.pdb
REMARK  26 active torsions:
REMARK  status: ('A' for Active; 'I' for Inactive)
REMARK    1  A    between atoms: O_1  and  C_10
REMARK    2  A    between atoms: O_1  and  C_26
REMARK    3  A    between atoms: O_2  and  C_13
REMARK    4  A    between atoms: O_2  and  C_28
REMARK    5  A    between atoms: O_3  and  C_14
REMARK    6  A    between atoms: O_4  and  C_20
REMARK    7  A    between atoms: O_7  and  C_29
REMARK    8  A    between atoms: C_11  and  C_16
REMARK    9  A    between atoms: C_11  and  C_17
REMARK   10  A    between atoms: C_15  and  C_21
REMARK   11  A    between atoms: C_22  and  C_29
REMARK   12  A    between atoms: C_26  and  C_30
REMARK   13  A    between atoms: C_27  and  C_31
REMARK   14  A    between atoms: C_28  and  C_32
REMARK   15  A    between atoms: C_32  and  C_33
REMARK   16  A    between atoms: C_33  and  C_34
REMARK   17  A    between atoms: C_34  and  C_35
REMARK   18  A    between atoms: C_35  and  C_36
REMARK   19  A    between atoms: C_36  and  C_37
REMARK   20  A    between atoms: C_37  and  C_38
REMARK   21  A    between atoms: C_38  and  C_39
REMARK   22  A    between atoms: C_39  and  C_40
REMARK   23  A    between atoms: C_40  and  C_41
REMARK   24  A    between atoms: C_41  and  C_42
REMARK   25  A    between atoms: C_42  and  C_43
REMARK   26  A    between atoms: C_43  and  C_44
REMARK                            x       y       z     vdW  Elec       q    Type
REMARK                         _______ _______ _______ _____ _____    ______ ____
ROOT
ATOM      1  O   UNL     1      57.644  31.798  64.103  0.00  0.00    +0.000 OA
ATOM      2  C   UNL     1      59.091  37.853  67.510  0.00  0.00    +0.000 C 
ATOM      3  C   UNL     1      60.136  37.869  68.610  0.00  0.00    +0.000 C 
ATOM      4  C   UNL     1      58.621  37.986  68.945  0.00  0.00    +0.000 C 
ATOM      5  C   UNL     1      59.003  36.704  66.550  0.00  0.00    +0.000 C 
ATOM      6  C   UNL     1      60.967  36.588  68.807  0.00  0.00    +0.000 C 
ATOM      7  C   UNL     1      59.740  35.341  66.936  0.00  0.00    +0.000 C 
ATOM      8  C   UNL     1      61.155  35.811  67.457  0.00  0.00    +0.000 C 
ATOM      9  C   UNL     1      58.026  39.342  69.284  0.00  0.00    +0.000 C 
ATOM     10  C   UNL     1      57.862  36.871  69.622  0.00  0.00    +0.000 C 
ATOM     11  C   UNL     1      59.672  34.341  65.673  0.00  0.00    +0.000 C 
ATOM     12  C   UNL     1      57.610  36.494  65.986  0.00  0.00    +0.000 C 
ATOM     13  C   UNL     1      58.208  33.850  65.282  0.00  0.00    +0.000 C 
ATOM     14  C   UNL     1      62.206  34.712  67.621  0.00  0.00    +0.000 C 
ATOM     15  C   UNL     1      57.537  36.211  64.668  0.00  0.00    +0.000 C 
ATOM     16  C   UNL     1      57.421  34.743  64.298  0.00  0.00    +0.000 C 
ATOM     17  C   UNL     1      60.392  33.000  65.731  0.00  0.00    +0.000 C 
ATOM     18  C   UNL     1      58.461  32.470  64.716  0.00  0.00    +0.000 C 
ATOM     19  C   UNL     1      59.772  31.969  65.143  0.00  0.00    +0.000 C 
ATOM     20  C   UNL     1      60.209  30.572  64.936  0.00  0.00    +0.000 C 
ENDROOT
BRANCH   7  21
ATOM     21  O   UNL     1      59.109  34.679  68.040  0.00  0.00    +0.000 OA
ATOM     22  H   UNL     1      58.665  35.364  68.589  0.00  0.00    +0.000 HD
ENDBRANCH   7  21
BRANCH  13  23
ATOM     23  O   UNL     1      57.404  33.588  66.458  0.00  0.00    +0.000 OA
ATOM     24  H   UNL     1      57.898  33.969  67.214  0.00  0.00    +0.000 HD
ENDBRANCH  13  23
BRANCH   3  25
ATOM     25  O   UNL     1      60.924  39.084  68.515  0.00  0.00    +0.000 OA
BRANCH  25  27
ATOM     26  O   UNL     1      61.746  39.118  66.426  0.00  0.00    +0.000 OA
ATOM     27  C   UNL     1      61.225  39.727  67.359  0.00  0.00    +0.000 C 
ATOM     28  C   UNL     1      60.836  41.167  67.211  0.00  0.00    +0.000 C 
ENDBRANCH  25  27
ENDBRANCH   3  25
BRANCH  15  29
ATOM     29  C   UNL     1      58.116  37.097  63.595  0.00  0.00    +0.000 C 
BRANCH  29  30
ATOM     30  O   UNL     1      57.063  37.868  63.042  0.00  0.00    +0.000 OA
ATOM     31  H   UNL     1      56.979  38.665  63.596  0.00  0.00    +0.000 HD
ENDBRANCH  29  30
ENDBRANCH  15  29
BRANCH   6  32
ATOM     32  O   UNL     1      62.263  36.974  69.342  0.00  0.00    +0.000 OA
BRANCH  32  34
ATOM     33  O   UNL     1      63.876  36.720  70.870  0.00  0.00    +0.000 OA
ATOM     34  C   UNL     1      62.676  36.782  70.616  0.00  0.00    +0.000 C 
BRANCH  34  35
ATOM     35  C   UNL     1      61.650  36.644  71.714  0.00  0.00    +0.000 C 
BRANCH  35  36
ATOM     36  C   UNL     1      61.462  37.951  72.476  0.00  0.00    +0.000 C 
BRANCH  36  37
ATOM     37  C   UNL     1      60.067  38.569  72.328  0.00  0.00    +0.000 C 
BRANCH  37  38
ATOM     38  C   UNL     1      59.094  38.215  73.461  0.00  0.00    +0.000 C 
BRANCH  38  39
ATOM     39  C   UNL     1      58.198  37.022  73.112  0.00  0.00    +0.000 C 
BRANCH  39  40
ATOM     40  C   UNL     1      56.719  37.253  73.437  0.00  0.00    +0.000 C 
BRANCH  40  41
ATOM     41  C   UNL     1      56.244  38.668  73.094  0.00  0.00    +0.000 C 
BRANCH  41  42
ATOM     42  C   UNL     1      55.351  38.722  71.851  0.00  0.00    +0.000 C 
BRANCH  42  43
ATOM     43  C   UNL     1      53.854  38.905  72.113  0.00  0.00    +0.000 C 
BRANCH  43  44
ATOM     44  C   UNL     1      53.301  40.307  71.840  0.00  0.00    +0.000 C 
BRANCH  44  45
ATOM     45  C   UNL     1      53.676  41.378  72.869  0.00  0.00    +0.000 C 
BRANCH  45  46
ATOM     46  C   UNL     1      53.012  42.744  72.680  0.00  0.00    +0.000 C 
ATOM     47  C   UNL     1      51.849  42.721  71.701  0.00  0.00    +0.000 C 
ENDBRANCH  45  46
ENDBRANCH  44  45
ENDBRANCH  43  44
ENDBRANCH  42  43
ENDBRANCH  41  42
ENDBRANCH  40  41
ENDBRANCH  39  40
ENDBRANCH  38  39
ENDBRANCH  37  38
ENDBRANCH  36  37
ENDBRANCH  35  36
ENDBRANCH  34  35
ENDBRANCH  32  34
ENDBRANCH   6  32
TORSDOF 20
ENDMDL
MODEL 8
REMARK VINA RESULT:      -3.9      9.326     14.825
REMARK  Name = 27924_Phorbol.pdbqt.pdb
REMARK  26 active torsions:
REMARK  status: ('A' for Active; 'I' for Inactive)
REMARK    1  A    between atoms: O_1  and  C_10
REMARK    2  A    between atoms: O_1  and  C_26
REMARK    3  A    between atoms: O_2  and  C_13
REMARK    4  A    between atoms: O_2  and  C_28
REMARK    5  A    between atoms: O_3  and  C_14
REMARK    6  A    between atoms: O_4  and  C_20
REMARK    7  A    between atoms: O_7  and  C_29
REMARK    8  A    between atoms: C_11  and  C_16
REMARK    9  A    between atoms: C_11  and  C_17
REMARK   10  A    between atoms: C_15  and  C_21
REMARK   11  A    between atoms: C_22  and  C_29
REMARK   12  A    between atoms: C_26  and  C_30
REMARK   13  A    between atoms: C_27  and  C_31
REMARK   14  A    between atoms: C_28  and  C_32
REMARK   15  A    between atoms: C_32  and  C_33
REMARK   16  A    between atoms: C_33  and  C_34
REMARK   17  A    between atoms: C_34  and  C_35
REMARK   18  A    between atoms: C_35  and  C_36
REMARK   19  A    between atoms: C_36  and  C_37
REMARK   20  A    between atoms: C_37  and  C_38
REMARK   21  A    between atoms: C_38  and  C_39
REMARK   22  A    between atoms: C_39  and  C_40
REMARK   23  A    between atoms: C_40  and  C_41
REMARK   24  A    between atoms: C_41  and  C_42
REMARK   25  A    between atoms: C_42  and  C_43
REMARK   26  A    between atoms: C_43  and  C_44
REMARK                            x       y       z     vdW  Elec       q    Type
REMARK                         _______ _______ _______ _____ _____    ______ ____
ROOT
ATOM      1  O   UNL     1      72.100  40.487  64.265  0.00  0.00    +0.000 OA
ATOM      2  C   UNL     1      73.221  47.196  62.243  0.00  0.00    +0.000 C 
ATOM      3  C   UNL     1      72.795  47.649  60.859  0.00  0.00    +0.000 C 
ATOM      4  C   UNL     1      74.298  47.452  61.208  0.00  0.00    +0.000 C 
ATOM      5  C   UNL     1      72.703  45.916  62.826  0.00  0.00    +0.000 C 
ATOM      6  C   UNL     1      71.967  46.658  60.020  0.00  0.00    +0.000 C 
ATOM      7  C   UNL     1      72.030  44.855  61.839  0.00  0.00    +0.000 C 
ATOM      8  C   UNL     1      71.083  45.733  60.929  0.00  0.00    +0.000 C 
ATOM      9  C   UNL     1      75.169  48.662  61.500  0.00  0.00    +0.000 C 
ATOM     10  C   UNL     1      75.111  46.317  60.635  0.00  0.00    +0.000 C 
ATOM     11  C   UNL     1      71.380  43.670  62.718  0.00  0.00    +0.000 C 
ATOM     12  C   UNL     1      73.648  45.284  63.831  0.00  0.00    +0.000 C 
ATOM     13  C   UNL     1      72.425  42.782  63.528  0.00  0.00    +0.000 C 
ATOM     14  C   UNL     1      70.073  44.963  60.078  0.00  0.00    +0.000 C 
ATOM     15  C   UNL     1      73.080  44.774  64.945  0.00  0.00    +0.000 C 
ATOM     16  C   UNL     1      72.806  43.280  64.940  0.00  0.00    +0.000 C 
ATOM     17  C   UNL     1      70.579  42.572  62.031  0.00  0.00    +0.000 C 
ATOM     18  C   UNL     1      71.750  41.428  63.568  0.00  0.00    +0.000 C 
ATOM     19  C   UNL     1      70.714  41.338  62.533  0.00  0.00    +0.000 C 
ATOM     20  C   UNL     1      70.036  40.073  62.180  0.00  0.00    +0.000 C 
ENDROOT
BRANCH   7  21
ATOM     21  O   UNL     1      72.988  44.256  60.956  0.00  0.00    +0.000 OA
ATOM     22  H   UNL     1      73.801  44.809  60.973  0.00  0.00    +0.000 HD
ENDBRANCH   7  21
BRANCH  13  23
ATOM     23  O   UNL     1      73.625  42.536  62.754  0.00  0.00    +0.000 OA
ATOM     24  H   UNL     1      73.541  43.080  61.944  0.00  0.00    +0.000 HD
ENDBRANCH  13  23
BRANCH   3  25
ATOM     25  O   UNL     1      72.231  48.984  60.934  0.00  0.00    +0.000 OA
BRANCH  25  27
ATOM     26  O   UNL     1      70.336  49.026  62.138  0.00  0.00    +0.000 OA
ATOM     27  C   UNL     1      71.476  49.451  61.960  0.00  0.00    +0.000 C 
ATOM     28  C   UNL     1      72.085  50.431  62.918  0.00  0.00    +0.000 C 
ENDBRANCH  25  27
ENDBRANCH   3  25
BRANCH  15  29
ATOM     29  C   UNL     1      72.215  45.579  65.879  0.00  0.00    +0.000 C 
BRANCH  29  30
ATOM     30  O   UNL     1      72.792  45.528  67.173  0.00  0.00    +0.000 OA
ATOM     31  H   UNL     1      73.056  46.438  67.398  0.00  0.00    +0.000 HD
ENDBRANCH  29  30
ENDBRANCH  15  29
BRANCH   6  32
ATOM     32  O   UNL     1      71.120  47.429  59.125  0.00  0.00    +0.000 OA
BRANCH  32  34
ATOM     33  O   UNL     1      71.567  46.282  57.258  0.00  0.00    +0.000 OA
ATOM     34  C   UNL     1      70.928  47.174  57.811  0.00  0.00    +0.000 C 
BRANCH  34  35
ATOM     35  C   UNL     1      69.926  47.993  57.036  0.00  0.00    +0.000 C 
BRANCH  35  36
ATOM     36  C   UNL     1      68.576  47.292  56.943  0.00  0.00    +0.000 C 
BRANCH  36  37
ATOM     37  C   UNL     1      67.471  48.139  56.302  0.00  0.00    +0.000 C 
BRANCH  37  38
ATOM     38  C   UNL     1      66.247  48.368  57.198  0.00  0.00    +0.000 C 
BRANCH  38  39
ATOM     39  C   UNL     1      66.090  49.835  57.612  0.00  0.00    +0.000 C 
BRANCH  39  40
ATOM     40  C   UNL     1      65.586  50.015  59.046  0.00  0.00    +0.000 C 
BRANCH  40  41
ATOM     41  C   UNL     1      64.071  49.838  59.177  0.00  0.00    +0.000 C 
BRANCH  41  42
ATOM     42  C   UNL     1      63.301  51.161  59.144  0.00  0.00    +0.000 C 
BRANCH  42  43
ATOM     43  C   UNL     1      64.097  52.406  59.546  0.00  0.00    +0.000 C 
BRANCH  43  44
ATOM     44  C   UNL     1      63.261  53.632  59.927  0.00  0.00    +0.000 C 
BRANCH  44  45
ATOM     45  C   UNL     1      64.007  54.729  60.692  0.00  0.00    +0.000 C 
BRANCH  45  46
ATOM     46  C   UNL     1      63.214  55.422  61.803  0.00  0.00    +0.000 C 
ATOM     47  C   UNL     1      61.710  55.228  61.685  0.00  0.00    +0.000 C 
ENDBRANCH  45  46
ENDBRANCH  44  45
ENDBRANCH  43  44
ENDBRANCH  42  43
ENDBRANCH  41  42
ENDBRANCH  40  41
ENDBRANCH  39  40
ENDBRANCH  38  39
ENDBRANCH  37  38
ENDBRANCH  36  37
ENDBRANCH  35  36
ENDBRANCH  34  35
ENDBRANCH  32  34
ENDBRANCH   6  32
TORSDOF 20
ENDMDL
MODEL 9
REMARK VINA RESULT:      -3.9     11.630     17.944
REMARK  Name = 27924_Phorbol.pdbqt.pdb
REMARK  26 active torsions:
REMARK  status: ('A' for Active; 'I' for Inactive)
REMARK    1  A    between atoms: O_1  and  C_10
REMARK    2  A    between atoms: O_1  and  C_26
REMARK    3  A    between atoms: O_2  and  C_13
REMARK    4  A    between atoms: O_2  and  C_28
REMARK    5  A    between atoms: O_3  and  C_14
REMARK    6  A    between atoms: O_4  and  C_20
REMARK    7  A    between atoms: O_7  and  C_29
REMARK    8  A    between atoms: C_11  and  C_16
REMARK    9  A    between atoms: C_11  and  C_17
REMARK   10  A    between atoms: C_15  and  C_21
REMARK   11  A    between atoms: C_22  and  C_29
REMARK   12  A    between atoms: C_26  and  C_30
REMARK   13  A    between atoms: C_27  and  C_31
REMARK   14  A    between atoms: C_28  and  C_32
REMARK   15  A    between atoms: C_32  and  C_33
REMARK   16  A    between atoms: C_33  and  C_34
REMARK   17  A    between atoms: C_34  and  C_35
REMARK   18  A    between atoms: C_35  and  C_36
REMARK   19  A    between atoms: C_36  and  C_37
REMARK   20  A    between atoms: C_37  and  C_38
REMARK   21  A    between atoms: C_38  and  C_39
REMARK   22  A    between atoms: C_39  and  C_40
REMARK   23  A    between atoms: C_40  and  C_41
REMARK   24  A    between atoms: C_41  and  C_42
REMARK   25  A    between atoms: C_42  and  C_43
REMARK   26  A    between atoms: C_43  and  C_44
REMARK                            x       y       z     vdW  Elec       q    Type
REMARK                         _______ _______ _______ _____ _____    ______ ____
ROOT
ATOM      1  O   UNL     1      61.839  50.001  54.216  0.00  0.00    +0.000 OA
ATOM      2  C   UNL     1      63.988  53.809  59.805  0.00  0.00    +0.000 C 
ATOM      3  C   UNL     1      64.056  55.322  59.707  0.00  0.00    +0.000 C 
ATOM      4  C   UNL     1      65.353  54.464  59.731  0.00  0.00    +0.000 C 
ATOM      5  C   UNL     1      63.228  53.007  58.792  0.00  0.00    +0.000 C 
ATOM      6  C   UNL     1      63.474  55.970  58.437  0.00  0.00    +0.000 C 
ATOM      7  C   UNL     1      62.836  53.710  57.412  0.00  0.00    +0.000 C 
ATOM      8  C   UNL     1      62.288  55.125  57.852  0.00  0.00    +0.000 C 
ATOM      9  C   UNL     1      66.165  54.360  61.012  0.00  0.00    +0.000 C 
ATOM     10  C   UNL     1      66.229  54.301  58.513  0.00  0.00    +0.000 C 
ATOM     11  C   UNL     1      61.862  52.724  56.588  0.00  0.00    +0.000 C 
ATOM     12  C   UNL     1      63.760  51.597  58.616  0.00  0.00    +0.000 C 
ATOM     13  C   UNL     1      62.534  51.362  56.109  0.00  0.00    +0.000 C 
ATOM     14  C   UNL     1      61.551  55.921  56.774  0.00  0.00    +0.000 C 
ATOM     15  C   UNL     1      62.834  50.619  58.509  0.00  0.00    +0.000 C 
ATOM     16  C   UNL     1      62.478  50.179  57.100  0.00  0.00    +0.000 C 
ATOM     17  C   UNL     1      61.250  53.192  55.274  0.00  0.00    +0.000 C 
ATOM     18  C   UNL     1      61.793  51.060  54.824  0.00  0.00    +0.000 C 
ATOM     19  C   UNL     1      61.136  52.268  54.311  0.00  0.00    +0.000 C 
ATOM     20  C   UNL     1      60.523  52.345  52.969  0.00  0.00    +0.000 C 
ENDROOT
BRANCH   7  21
ATOM     21  O   UNL     1      63.983  53.965  56.591  0.00  0.00    +0.000 OA
ATOM     22  H   UNL     1      64.292  53.105  56.229  0.00  0.00    +0.000 HD
ENDBRANCH   7  21
BRANCH  13  23
ATOM     23  O   UNL     1      63.898  51.569  55.668  0.00  0.00    +0.000 OA
ATOM     24  H   UNL     1      63.843  52.156  54.885  0.00  0.00    +0.000 HD
ENDBRANCH  13  23
BRANCH   3  25
ATOM     25  O   UNL     1      63.587  55.912  60.947  0.00  0.00    +0.000 OA
BRANCH  25  27
ATOM     26  O   UNL     1      62.970  54.957  62.883  0.00  0.00    +0.000 OA
ATOM     27  C   UNL     1      62.655  55.362  61.766  0.00  0.00    +0.000 C 
ATOM     28  C   UNL     1      61.225  55.335  61.316  0.00  0.00    +0.000 C 
ENDBRANCH  25  27
ENDBRANCH   3  25
BRANCH  15  29
ATOM     29  C   UNL     1      61.773  50.364  59.546  0.00  0.00    +0.000 C 
BRANCH  29  30
ATOM     30  O   UNL     1      60.506  50.574  58.946  0.00  0.00    +0.000 OA
ATOM     31  H   UNL     1      60.132  49.693  58.766  0.00  0.00    +0.000 HD
ENDBRANCH  29  30
ENDBRANCH  15  29
BRANCH   6  32
ATOM     32  O   UNL     1      63.009  57.302  58.788  0.00  0.00    +0.000 OA
BRANCH  32  34
ATOM     33  O   UNL     1      63.505  58.932  57.340  0.00  0.00    +0.000 OA
ATOM     34  C   UNL     1      63.628  58.460  58.467  0.00  0.00    +0.000 C 
BRANCH  34  35
ATOM     35  C   UNL     1      64.468  59.162  59.505  0.00  0.00    +0.000 C 
BRANCH  35  36
ATOM     36  C   UNL     1      65.859  58.548  59.615  0.00  0.00    +0.000 C 
BRANCH  36  37
ATOM     37  C   UNL     1      66.244  58.115  61.034  0.00  0.00    +0.000 C 
BRANCH  37  38
ATOM     38  C   UNL     1      67.743  57.851  61.231  0.00  0.00    +0.000 C 
BRANCH  38  39
ATOM     39  C   UNL     1      68.277  58.450  62.536  0.00  0.00    +0.000 C 
BRANCH  39  40
ATOM     40  C   UNL     1      68.212  59.980  62.578  0.00  0.00    +0.000 C 
BRANCH  40  41
ATOM     41  C   UNL     1      67.127  60.508  63.520  0.00  0.00    +0.000 C 
BRANCH  41  42
ATOM     42  C   UNL     1      67.682  61.056  64.837  0.00  0.00    +0.000 C 
BRANCH  42  43
ATOM     43  C   UNL     1      69.132  60.680  65.157  0.00  0.00    +0.000 C 
BRANCH  43  44
ATOM     44  C   UNL     1      69.376  60.116  66.560  0.00  0.00    +0.000 C 
BRANCH  44  45
ATOM     45  C   UNL     1      70.819  59.709  66.868  0.00  0.00    +0.000 C 
BRANCH  45  46
ATOM     46  C   UNL     1      71.071  58.206  67.008  0.00  0.00    +0.000 C 
ATOM     47  C   UNL     1      70.063  57.351  66.256  0.00  0.00    +0.000 C 
ENDBRANCH  45  46
ENDBRANCH  44  45
ENDBRANCH  43  44
ENDBRANCH  42  43
ENDBRANCH  41  42
ENDBRANCH  40  41
ENDBRANCH  39  40
ENDBRANCH  38  39
ENDBRANCH  37  38
ENDBRANCH  36  37
ENDBRANCH  35  36
ENDBRANCH  34  35
ENDBRANCH  32  34
ENDBRANCH   6  32
TORSDOF 20
ENDMDL
