MODEL 1
REMARK VINA RESULT:      -3.6      0.000      0.000
REMARK  Name = 2Methylcholine.pdbqt.pdb
REMARK  3 active torsions:
REMARK  status: ('A' for Active; 'I' for Inactive)
REMARK    1  A    between atoms: C_1  and  N_2
REMARK    2  A    between atoms: C_1  and  C_6
REMARK    3  A    between atoms: C_6  and  O_8
REMARK                            x       y       z     vdW  Elec       q    Type
REMARK                         _______ _______ _______ _____ _____    ______ ____
ROOT
ATOM      1  C   UNL     1      62.186  38.136  56.131  0.00  0.00    +0.000 C 
ENDROOT
BRANCH   1   2
ATOM      2  N   UNL     1      61.264  39.119  55.597  0.00  0.00    +0.000 N 
ATOM      3  C   UNL     1      61.771  40.470  55.850  0.00  0.00    +0.000 C 
ATOM      4  C   UNL     1      61.110  38.926  54.152  0.00  0.00    +0.000 C 
ATOM      5  C   UNL     1      59.956  38.971  56.240  0.00  0.00    +0.000 C 
ENDBRANCH   1   2
BRANCH   1   6
ATOM      6  C   UNL     1      63.095  37.207  56.657  0.00  0.00    +0.000 C 
ATOM      7  C   UNL     1      63.263  35.863  56.056  0.00  0.00    +0.000 C 
BRANCH   6   8
ATOM      8  O   UNL     1      63.867  37.486  57.742  0.00  0.00    +0.000 OA
ATOM      9  H   UNL     1      63.867  36.706  58.330  0.00  0.00    +0.000 HD
ENDBRANCH   6   8
ENDBRANCH   1   6
TORSDOF 3
ENDMDL
MODEL 2
REMARK VINA RESULT:      -3.3      2.090      3.827
REMARK  Name = 2Methylcholine.pdbqt.pdb
REMARK  3 active torsions:
REMARK  status: ('A' for Active; 'I' for Inactive)
REMARK    1  A    between atoms: C_1  and  N_2
REMARK    2  A    between atoms: C_1  and  C_6
REMARK    3  A    between atoms: C_6  and  O_8
REMARK                            x       y       z     vdW  Elec       q    Type
REMARK                         _______ _______ _______ _____ _____    ______ ____
ROOT
ATOM      1  C   UNL     1      62.241  37.014  55.913  0.00  0.00    +0.000 C 
ENDROOT
BRANCH   1   2
ATOM      2  N   UNL     1      63.317  36.180  55.417  0.00  0.00    +0.000 N 
ATOM      3  C   UNL     1      63.525  36.430  53.987  0.00  0.00    +0.000 C 
ATOM      4  C   UNL     1      64.555  36.478  56.141  0.00  0.00    +0.000 C 
ATOM      5  C   UNL     1      62.979  34.767  55.610  0.00  0.00    +0.000 C 
ENDBRANCH   1   2
BRANCH   1   6
ATOM      6  C   UNL     1      61.183  37.798  56.394  0.00  0.00    +0.000 C 
ATOM      7  C   UNL     1      60.606  38.899  55.587  0.00  0.00    +0.000 C 
BRANCH   6   8
ATOM      8  O   UNL     1      60.631  37.594  57.621  0.00  0.00    +0.000 OA
ATOM      9  H   UNL     1      60.522  38.461  58.058  0.00  0.00    +0.000 HD
ENDBRANCH   6   8
ENDBRANCH   1   6
TORSDOF 3
ENDMDL
MODEL 3
REMARK VINA RESULT:      -3.2      1.348      1.659
REMARK  Name = 2Methylcholine.pdbqt.pdb
REMARK  3 active torsions:
REMARK  status: ('A' for Active; 'I' for Inactive)
REMARK    1  A    between atoms: C_1  and  N_2
REMARK    2  A    between atoms: C_1  and  C_6
REMARK    3  A    between atoms: C_6  and  O_8
REMARK                            x       y       z     vdW  Elec       q    Type
REMARK                         _______ _______ _______ _____ _____    ______ ____
ROOT
ATOM      1  C   UNL     1      62.614  38.589  55.571  0.00  0.00    +0.000 C 
ENDROOT
BRANCH   1   2
ATOM      2  N   UNL     1      62.501  39.638  54.577  0.00  0.00    +0.000 N 
ATOM      3  C   UNL     1      62.381  40.941  55.237  0.00  0.00    +0.000 C 
ATOM      4  C   UNL     1      63.687  39.642  53.717  0.00  0.00    +0.000 C 
ATOM      5  C   UNL     1      61.313  39.410  53.750  0.00  0.00    +0.000 C 
ENDBRANCH   1   2
BRANCH   1   6
ATOM      6  C   UNL     1      62.742  37.561  56.516  0.00  0.00    +0.000 C 
ATOM      7  C   UNL     1      62.170  36.214  56.278  0.00  0.00    +0.000 C 
BRANCH   6   8
ATOM      8  O   UNL     1      63.394  37.742  57.697  0.00  0.00    +0.000 OA
ATOM      9  H   UNL     1      64.219  38.234  57.521  0.00  0.00    +0.000 HD
ENDBRANCH   6   8
ENDBRANCH   1   6
TORSDOF 3
ENDMDL
MODEL 4
REMARK VINA RESULT:      -3.2      2.565      4.495
REMARK  Name = 2Methylcholine.pdbqt.pdb
REMARK  3 active torsions:
REMARK  status: ('A' for Active; 'I' for Inactive)
REMARK    1  A    between atoms: C_1  and  N_2
REMARK    2  A    between atoms: C_1  and  C_6
REMARK    3  A    between atoms: C_6  and  O_8
REMARK                            x       y       z     vdW  Elec       q    Type
REMARK                         _______ _______ _______ _____ _____    ______ ____
ROOT
ATOM      1  C   UNL     1      63.376  35.804  56.068  0.00  0.00    +0.000 C 
ENDROOT
BRANCH   1   2
ATOM      2  N   UNL     1      63.984  34.682  55.380  0.00  0.00    +0.000 N 
ATOM      3  C   UNL     1      63.700  34.764  53.944  0.00  0.00    +0.000 C 
ATOM      4  C   UNL     1      65.435  34.698  55.584  0.00  0.00    +0.000 C 
ATOM      5  C   UNL     1      63.441  33.427  55.904  0.00  0.00    +0.000 C 
ENDBRANCH   1   2
BRANCH   1   6
ATOM      6  C   UNL     1      62.813  36.900  56.736  0.00  0.00    +0.000 C 
ATOM      7  C   UNL     1      61.408  37.311  56.505  0.00  0.00    +0.000 C 
BRANCH   6   8
ATOM      8  O   UNL     1      63.522  37.644  57.630  0.00  0.00    +0.000 OA
ATOM      9  H   UNL     1      64.388  37.859  57.234  0.00  0.00    +0.000 HD
ENDBRANCH   6   8
ENDBRANCH   1   6
TORSDOF 3
ENDMDL
MODEL 5
REMARK VINA RESULT:      -3.1     49.064     50.221
REMARK  Name = 2Methylcholine.pdbqt.pdb
REMARK  3 active torsions:
REMARK  status: ('A' for Active; 'I' for Inactive)
REMARK    1  A    between atoms: C_1  and  N_2
REMARK    2  A    between atoms: C_1  and  C_6
REMARK    3  A    between atoms: C_6  and  O_8
REMARK                            x       y       z     vdW  Elec       q    Type
REMARK                         _______ _______ _______ _____ _____    ______ ____
ROOT
ATOM      1  C   UNL     1      77.709  78.355  81.924  0.00  0.00    +0.000 C 
ENDROOT
BRANCH   1   2
ATOM      2  N   UNL     1      77.517  79.043  80.663  0.00  0.00    +0.000 N 
ATOM      3  C   UNL     1      76.724  80.258  80.872  0.00  0.00    +0.000 C 
ATOM      4  C   UNL     1      78.816  79.410  80.091  0.00  0.00    +0.000 C 
ATOM      5  C   UNL     1      76.811  78.168  79.724  0.00  0.00    +0.000 C 
ENDBRANCH   1   2
BRANCH   1   6
ATOM      6  C   UNL     1      77.918  77.679  83.134  0.00  0.00    +0.000 C 
ATOM      7  C   UNL     1      76.958  77.788  84.258  0.00  0.00    +0.000 C 
BRANCH   6   8
ATOM      8  O   UNL     1      79.008  76.891  83.344  0.00  0.00    +0.000 OA
ATOM      9  H   UNL     1      79.674  77.410  83.835  0.00  0.00    +0.000 HD
ENDBRANCH   6   8
ENDBRANCH   1   6
TORSDOF 3
ENDMDL
MODEL 6
REMARK VINA RESULT:      -2.8     12.289     12.875
REMARK  Name = 2Methylcholine.pdbqt.pdb
REMARK  3 active torsions:
REMARK  status: ('A' for Active; 'I' for Inactive)
REMARK    1  A    between atoms: C_1  and  N_2
REMARK    2  A    between atoms: C_1  and  C_6
REMARK    3  A    between atoms: C_6  and  O_8
REMARK                            x       y       z     vdW  Elec       q    Type
REMARK                         _______ _______ _______ _____ _____    ______ ____
ROOT
ATOM      1  C   UNL     1      62.833  39.824  68.654  0.00  0.00    +0.000 C 
ENDROOT
BRANCH   1   2
ATOM      2  N   UNL     1      62.053  38.804  67.982  0.00  0.00    +0.000 N 
ATOM      3  C   UNL     1      61.100  39.430  67.060  0.00  0.00    +0.000 C 
ATOM      4  C   UNL     1      62.939  37.914  67.228  0.00  0.00    +0.000 C 
ATOM      5  C   UNL     1      61.313  38.015  68.971  0.00  0.00    +0.000 C 
ENDBRANCH   1   2
BRANCH   1   6
ATOM      6  C   UNL     1      63.610  40.800  69.294  0.00  0.00    +0.000 C 
ATOM      7  C   UNL     1      65.067  40.620  69.496  0.00  0.00    +0.000 C 
BRANCH   6   8
ATOM      8  O   UNL     1      63.074  41.961  69.761  0.00  0.00    +0.000 OA
ATOM      9  H   UNL     1      62.568  41.761  70.573  0.00  0.00    +0.000 HD
ENDBRANCH   6   8
ENDBRANCH   1   6
TORSDOF 3
ENDMDL
MODEL 7
REMARK VINA RESULT:      -2.7     16.299     17.839
REMARK  Name = 2Methylcholine.pdbqt.pdb
REMARK  3 active torsions:
REMARK  status: ('A' for Active; 'I' for Inactive)
REMARK    1  A    between atoms: C_1  and  N_2
REMARK    2  A    between atoms: C_1  and  C_6
REMARK    3  A    between atoms: C_6  and  O_8
REMARK                            x       y       z     vdW  Elec       q    Type
REMARK                         _______ _______ _______ _____ _____    ______ ____
ROOT
ATOM      1  C   UNL     1      62.063  55.125  61.279  0.00  0.00    +0.000 C 
ENDROOT
BRANCH   1   2
ATOM      2  N   UNL     1      63.006  54.773  60.236  0.00  0.00    +0.000 N 
ATOM      3  C   UNL     1      64.375  54.847  60.754  0.00  0.00    +0.000 C 
ATOM      4  C   UNL     1      62.743  53.411  59.764  0.00  0.00    +0.000 C 
ATOM      5  C   UNL     1      62.870  55.702  59.112  0.00  0.00    +0.000 C 
ENDBRANCH   1   2
BRANCH   1   6
ATOM      6  C   UNL     1      61.143  55.488  62.273  0.00  0.00    +0.000 C 
ATOM      7  C   UNL     1      59.831  56.088  61.933  0.00  0.00    +0.000 C 
BRANCH   6   8
ATOM      8  O   UNL     1      61.402  55.311  63.598  0.00  0.00    +0.000 OA
ATOM      9  H   UNL     1      61.426  56.187  64.027  0.00  0.00    +0.000 HD
ENDBRANCH   6   8
ENDBRANCH   1   6
TORSDOF 3
ENDMDL
MODEL 8
REMARK VINA RESULT:      -2.7     22.459     23.429
REMARK  Name = 2Methylcholine.pdbqt.pdb
REMARK  3 active torsions:
REMARK  status: ('A' for Active; 'I' for Inactive)
REMARK    1  A    between atoms: C_1  and  N_2
REMARK    2  A    between atoms: C_1  and  C_6
REMARK    3  A    between atoms: C_6  and  O_8
REMARK                            x       y       z     vdW  Elec       q    Type
REMARK                         _______ _______ _______ _____ _____    ______ ____
ROOT
ATOM      1  C   UNL     1      39.020  40.542  57.110  0.00  0.00    +0.000 C 
ENDROOT
BRANCH   1   2
ATOM      2  N   UNL     1      38.175  41.084  58.156  0.00  0.00    +0.000 N 
ATOM      3  C   UNL     1      38.697  42.382  58.597  0.00  0.00    +0.000 C 
ATOM      4  C   UNL     1      36.810  41.260  57.654  0.00  0.00    +0.000 C 
ATOM      5  C   UNL     1      38.150  40.167  59.298  0.00  0.00    +0.000 C 
ENDBRANCH   1   2
BRANCH   1   6
ATOM      6  C   UNL     1      39.818  40.023  56.080  0.00  0.00    +0.000 C 
ATOM      7  C   UNL     1      39.226  39.547  54.808  0.00  0.00    +0.000 C 
BRANCH   6   8
ATOM      8  O   UNL     1      41.171  39.927  56.192  0.00  0.00    +0.000 OA
ATOM      9  H   UNL     1      41.448  39.056  55.848  0.00  0.00    +0.000 HD
ENDBRANCH   6   8
ENDBRANCH   1   6
TORSDOF 3
ENDMDL
MODEL 9
REMARK VINA RESULT:      -2.6     18.088     19.149
REMARK  Name = 2Methylcholine.pdbqt.pdb
REMARK  3 active torsions:
REMARK  status: ('A' for Active; 'I' for Inactive)
REMARK    1  A    between atoms: C_1  and  N_2
REMARK    2  A    between atoms: C_1  and  C_6
REMARK    3  A    between atoms: C_6  and  O_8
REMARK                            x       y       z     vdW  Elec       q    Type
REMARK                         _______ _______ _______ _____ _____    ______ ____
ROOT
ATOM      1  C   UNL     1      53.889  40.866  72.864  0.00  0.00    +0.000 C 
ENDROOT
BRANCH   1   2
ATOM      2  N   UNL     1      54.412  39.514  72.858  0.00  0.00    +0.000 N 
ATOM      3  C   UNL     1      53.430  38.602  72.265  0.00  0.00    +0.000 C 
ATOM      4  C   UNL     1      55.651  39.461  72.078  0.00  0.00    +0.000 C 
ATOM      5  C   UNL     1      54.694  39.087  74.231  0.00  0.00    +0.000 C 
ENDBRANCH   1   2
BRANCH   1   6
ATOM      6  C   UNL     1      53.409  42.184  72.875  0.00  0.00    +0.000 C 
ATOM      7  C   UNL     1      52.213  42.579  72.094  0.00  0.00    +0.000 C 
BRANCH   6   8
ATOM      8  O   UNL     1      54.011  43.167  73.598  0.00  0.00    +0.000 OA
ATOM      9  H   UNL     1      53.331  43.614  74.136  0.00  0.00    +0.000 HD
ENDBRANCH   6   8
ENDBRANCH   1   6
TORSDOF 3
ENDMDL
