MODEL 1
REMARK VINA RESULT:      -7.6      0.000      0.000
REMARK  Name = 3035817_K252a.pdbqt.pdb
REMARK  3 active torsions:
REMARK  status: ('A' for Active; 'I' for Inactive)
REMARK    1  A    between atoms: C_3  and  O_7
REMARK    2  A    between atoms: C_3  and  C_9
REMARK    3  A    between atoms: C_9  and  O_11
REMARK                            x       y       z     vdW  Elec       q    Type
REMARK                         _______ _______ _______ _____ _____    ______ ____
ROOT
ATOM      1  O   UNL     1      48.685  35.052  62.816  0.00  0.00    +0.000 OA
ATOM      2  C   UNL     1      47.240  34.980  62.547  0.00  0.00    +0.000 C 
ATOM      3  C   UNL     1      46.898  36.388  61.893  0.00  0.00    +0.000 C 
ATOM      4  C   UNL     1      49.206  35.758  61.717  0.00  0.00    +0.000 C 
ATOM      5  C   UNL     1      48.218  36.705  61.354  0.00  0.00    +0.000 C 
ATOM      6  C   UNL     1      46.575  34.732  63.941  0.00  0.00    +0.000 C 
ATOM      7  N   UNL     1      47.038  33.844  61.625  0.00  0.00    +0.000 N 
ATOM      8  C   UNL     1      47.864  33.301  60.673  0.00  0.00    +0.000 A 
ATOM      9  C   UNL     1      49.101  33.792  60.252  0.00  0.00    +0.000 A 
ATOM     10  C   UNL     1      47.434  32.181  59.956  0.00  0.00    +0.000 A 
ATOM     11  N   UNL     1      49.679  34.936  60.709  0.00  0.00    +0.000 N 
ATOM     12  C   UNL     1      49.695  33.096  59.194  0.00  0.00    +0.000 A 
ATOM     13  C   UNL     1      50.764  35.042  59.820  0.00  0.00    +0.000 A 
ATOM     14  C   UNL     1      50.807  33.919  58.909  0.00  0.00    +0.000 A 
ATOM     15  C   UNL     1      51.735  36.055  59.761  0.00  0.00    +0.000 A 
ATOM     16  C   UNL     1      51.845  33.883  57.957  0.00  0.00    +0.000 A 
ATOM     17  C   UNL     1      52.802  34.897  57.915  0.00  0.00    +0.000 A 
ATOM     18  C   UNL     1      52.743  35.963  58.802  0.00  0.00    +0.000 A 
ATOM     19  C   UNL     1      49.283  31.955  58.475  0.00  0.00    +0.000 A 
ATOM     20  C   UNL     1      48.022  31.455  58.911  0.00  0.00    +0.000 A 
ATOM     21  C   UNL     1      49.784  31.174  57.369  0.00  0.00    +0.000 C 
ATOM     22  C   UNL     1      47.700  30.295  58.035  0.00  0.00    +0.000 C 
ATOM     23  N   UNL     1      48.764  30.227  57.206  0.00  0.00    +0.000 N 
ATOM     24  H   UNL     1      48.839  29.525  56.482  0.00  0.00    +0.000 HD
ATOM     25  O   UNL     1      50.795  31.222  56.685  0.00  0.00    +0.000 OA
ATOM     26  C   UNL     1      46.137  31.989  60.463  0.00  0.00    +0.000 A 
ATOM     27  C   UNL     1      45.898  33.019  61.449  0.00  0.00    +0.000 A 
ATOM     28  C   UNL     1      45.099  31.078  60.180  0.00  0.00    +0.000 A 
ATOM     29  C   UNL     1      44.647  33.104  62.083  0.00  0.00    +0.000 A 
ATOM     30  C   UNL     1      43.653  32.177  61.769  0.00  0.00    +0.000 A 
ATOM     31  C   UNL     1      43.874  31.176  60.838  0.00  0.00    +0.000 A 
ENDROOT
BRANCH   3  32
ATOM     32  O   UNL     1      45.954  36.338  60.813  0.00  0.00    +0.000 OA
ATOM     33  H   UNL     1      45.477  37.197  60.801  0.00  0.00    +0.000 HD
ENDBRANCH   3  32
BRANCH   3  34
ATOM     34  C   UNL     1      46.457  37.407  62.940  0.00  0.00    +0.000 C 
ATOM     35  O   UNL     1      45.279  37.463  63.302  0.00  0.00    +0.000 OA
BRANCH  34  36
ATOM     36  O   UNL     1      47.491  38.213  63.329  0.00  0.00    +0.000 OA
ATOM     37  C   UNL     1      47.761  38.310  64.701  0.00  0.00    +0.000 C 
ENDBRANCH  34  36
ENDBRANCH   3  34
TORSDOF 3
ENDMDL
MODEL 2
REMARK VINA RESULT:      -7.5     22.894     26.694
REMARK  Name = 3035817_K252a.pdbqt.pdb
REMARK  3 active torsions:
REMARK  status: ('A' for Active; 'I' for Inactive)
REMARK    1  A    between atoms: C_3  and  O_7
REMARK    2  A    between atoms: C_3  and  C_9
REMARK    3  A    between atoms: C_9  and  O_11
REMARK                            x       y       z     vdW  Elec       q    Type
REMARK                         _______ _______ _______ _____ _____    ______ ____
ROOT
ATOM      1  O   UNL     1      65.731  55.857  60.649  0.00  0.00    +0.000 OA
ATOM      2  C   UNL     1      65.123  56.959  59.886  0.00  0.00    +0.000 C 
ATOM      3  C   UNL     1      65.865  56.910  58.481  0.00  0.00    +0.000 C 
ATOM      4  C   UNL     1      65.928  54.843  59.696  0.00  0.00    +0.000 C 
ATOM      5  C   UNL     1      66.246  55.500  58.482  0.00  0.00    +0.000 C 
ATOM      6  C   UNL     1      65.406  58.247  60.726  0.00  0.00    +0.000 C 
ATOM      7  N   UNL     1      63.679  56.660  59.793  0.00  0.00    +0.000 N 
ATOM      8  C   UNL     1      63.007  55.465  59.781  0.00  0.00    +0.000 A 
ATOM      9  C   UNL     1      63.564  54.186  59.732  0.00  0.00    +0.000 A 
ATOM     10  C   UNL     1      61.610  55.468  59.727  0.00  0.00    +0.000 A 
ATOM     11  N   UNL     1      64.896  53.921  59.652  0.00  0.00    +0.000 N 
ATOM     12  C   UNL     1      62.647  53.134  59.633  0.00  0.00    +0.000 A 
ATOM     13  C   UNL     1      64.864  52.533  59.426  0.00  0.00    +0.000 A 
ATOM     14  C   UNL     1      63.507  52.031  59.439  0.00  0.00    +0.000 A 
ATOM     15  C   UNL     1      65.950  51.667  59.224  0.00  0.00    +0.000 A 
ATOM     16  C   UNL     1      63.314  50.651  59.229  0.00  0.00    +0.000 A 
ATOM     17  C   UNL     1      64.405  49.806  59.032  0.00  0.00    +0.000 A 
ATOM     18  C   UNL     1      65.699  50.309  59.028  0.00  0.00    +0.000 A 
ATOM     19  C   UNL     1      61.237  53.121  59.597  0.00  0.00    +0.000 A 
ATOM     20  C   UNL     1      60.672  54.429  59.652  0.00  0.00    +0.000 A 
ATOM     21  C   UNL     1      60.199  52.126  59.474  0.00  0.00    +0.000 C 
ATOM     22  C   UNL     1      59.196  54.259  59.555  0.00  0.00    +0.000 C 
ATOM     23  N   UNL     1      59.044  52.920  59.461  0.00  0.00    +0.000 N 
ATOM     24  H   UNL     1      58.135  52.485  59.381  0.00  0.00    +0.000 HD
ATOM     25  O   UNL     1      60.198  50.907  59.394  0.00  0.00    +0.000 OA
ATOM     26  C   UNL     1      61.324  56.843  59.642  0.00  0.00    +0.000 A 
ATOM     27  C   UNL     1      62.585  57.551  59.652  0.00  0.00    +0.000 A 
ATOM     28  C   UNL     1      60.135  57.590  59.518  0.00  0.00    +0.000 A 
ATOM     29  C   UNL     1      62.602  58.950  59.519  0.00  0.00    +0.000 A 
ATOM     30  C   UNL     1      61.398  59.644  59.400  0.00  0.00    +0.000 A 
ATOM     31  C   UNL     1      60.183  58.978  59.405  0.00  0.00    +0.000 A 
ENDROOT
BRANCH   3  32
ATOM     32  O   UNL     1      65.024  57.165  57.346  0.00  0.00    +0.000 OA
ATOM     33  H   UNL     1      64.686  56.297  57.032  0.00  0.00    +0.000 HD
ENDBRANCH   3  32
BRANCH   3  34
ATOM     34  C   UNL     1      67.088  57.824  58.454  0.00  0.00    +0.000 C 
ATOM     35  O   UNL     1      66.992  58.986  58.050  0.00  0.00    +0.000 OA
BRANCH  34  36
ATOM     36  O   UNL     1      68.217  57.171  58.865  0.00  0.00    +0.000 OA
ATOM     37  C   UNL     1      68.944  57.729  59.925  0.00  0.00    +0.000 C 
ENDBRANCH  34  36
ENDBRANCH   3  34
TORSDOF 3
ENDMDL
MODEL 3
REMARK VINA RESULT:      -7.4     21.042     24.803
REMARK  Name = 3035817_K252a.pdbqt.pdb
REMARK  3 active torsions:
REMARK  status: ('A' for Active; 'I' for Inactive)
REMARK    1  A    between atoms: C_3  and  O_7
REMARK    2  A    between atoms: C_3  and  C_9
REMARK    3  A    between atoms: C_9  and  O_11
REMARK                            x       y       z     vdW  Elec       q    Type
REMARK                         _______ _______ _______ _____ _____    ______ ____
ROOT
ATOM      1  O   UNL     1      63.075  49.907  59.002  0.00  0.00    +0.000 OA
ATOM      2  C   UNL     1      64.311  50.572  58.562  0.00  0.00    +0.000 C 
ATOM      3  C   UNL     1      64.190  50.603  56.977  0.00  0.00    +0.000 C 
ATOM      4  C   UNL     1      62.091  50.385  58.118  0.00  0.00    +0.000 C 
ATOM      5  C   UNL     1      62.735  50.552  56.867  0.00  0.00    +0.000 C 
ATOM      6  C   UNL     1      65.474  49.680  59.108  0.00  0.00    +0.000 C 
ATOM      7  N   UNL     1      64.307  51.917  59.173  0.00  0.00    +0.000 N 
ATOM      8  C   UNL     1      63.268  52.736  59.535  0.00  0.00    +0.000 A 
ATOM      9  C   UNL     1      61.909  52.532  59.292  0.00  0.00    +0.000 A 
ATOM     10  C   UNL     1      63.548  53.964  60.144  0.00  0.00    +0.000 A 
ATOM     11  N   UNL     1      61.393  51.475  58.608  0.00  0.00    +0.000 N 
ATOM     12  C   UNL     1      61.064  53.575  59.686  0.00  0.00    +0.000 A 
ATOM     13  C   UNL     1      60.052  51.882  58.491  0.00  0.00    +0.000 A 
ATOM     14  C   UNL     1      59.826  53.143  59.163  0.00  0.00    +0.000 A 
ATOM     15  C   UNL     1      59.001  51.212  57.843  0.00  0.00    +0.000 A 
ATOM     16  C   UNL     1      58.523  53.679  59.135  0.00  0.00    +0.000 A 
ATOM     17  C   UNL     1      57.491  52.998  58.489  0.00  0.00    +0.000 A 
ATOM     18  C   UNL     1      57.731  51.788  57.854  0.00  0.00    +0.000 A 
ATOM     19  C   UNL     1      61.329  54.807  60.317  0.00  0.00    +0.000 A 
ATOM     20  C   UNL     1      62.718  55.011  60.568  0.00  0.00    +0.000 A 
ATOM     21  C   UNL     1      60.565  55.955  60.744  0.00  0.00    +0.000 C 
ATOM     22  C   UNL     1      62.845  56.360  61.184  0.00  0.00    +0.000 C 
ATOM     23  N   UNL     1      61.569  56.799  61.237  0.00  0.00    +0.000 N 
ATOM     24  H   UNL     1      61.326  57.704  61.614  0.00  0.00    +0.000 HD
ATOM     25  O   UNL     1      59.375  56.233  60.732  0.00  0.00    +0.000 OA
ATOM     26  C   UNL     1      64.954  53.979  60.138  0.00  0.00    +0.000 A 
ATOM     27  C   UNL     1      65.400  52.750  59.520  0.00  0.00    +0.000 A 
ATOM     28  C   UNL     1      65.925  54.914  60.551  0.00  0.00    +0.000 A 
ATOM     29  C   UNL     1      66.774  52.523  59.328  0.00  0.00    +0.000 A 
ATOM     30  C   UNL     1      67.695  53.479  59.756  0.00  0.00    +0.000 A 
ATOM     31  C   UNL     1      67.281  54.653  60.363  0.00  0.00    +0.000 A 
ENDROOT
BRANCH   3  32
ATOM     32  O   UNL     1      64.663  51.809  56.360  0.00  0.00    +0.000 OA
ATOM     33  H   UNL     1      65.452  51.574  55.824  0.00  0.00    +0.000 HD
ENDBRANCH   3  32
BRANCH   3  34
ATOM     34  C   UNL     1      64.847  49.383  56.336  0.00  0.00    +0.000 C 
ATOM     35  O   UNL     1      66.041  49.406  56.023  0.00  0.00    +0.000 OA
BRANCH  34  36
ATOM     36  O   UNL     1      63.948  48.373  56.132  0.00  0.00    +0.000 OA
ATOM     37  C   UNL     1      64.349  47.295  55.331  0.00  0.00    +0.000 C 
ENDBRANCH  34  36
ENDBRANCH   3  34
TORSDOF 3
ENDMDL
MODEL 4
REMARK VINA RESULT:      -7.3     43.779     48.382
REMARK  Name = 3035817_K252a.pdbqt.pdb
REMARK  3 active torsions:
REMARK  status: ('A' for Active; 'I' for Inactive)
REMARK    1  A    between atoms: C_3  and  O_7
REMARK    2  A    between atoms: C_3  and  C_9
REMARK    3  A    between atoms: C_9  and  O_11
REMARK                            x       y       z     vdW  Elec       q    Type
REMARK                         _______ _______ _______ _____ _____    ______ ____
ROOT
ATOM      1  O   UNL     1      58.805  78.298  82.111  0.00  0.00    +0.000 OA
ATOM      2  C   UNL     1      59.756  78.326  80.988  0.00  0.00    +0.000 C 
ATOM      3  C   UNL     1      61.181  78.369  81.690  0.00  0.00    +0.000 C 
ATOM      4  C   UNL     1      59.431  77.489  83.075  0.00  0.00    +0.000 C 
ATOM      5  C   UNL     1      60.819  77.742  82.959  0.00  0.00    +0.000 C 
ATOM      6  C   UNL     1      59.393  79.610  80.174  0.00  0.00    +0.000 C 
ATOM      7  N   UNL     1      59.525  77.091  80.211  0.00  0.00    +0.000 N 
ATOM      8  C   UNL     1      59.074  75.855  80.600  0.00  0.00    +0.000 A 
ATOM      9  C   UNL     1      58.828  75.419  81.902  0.00  0.00    +0.000 A 
ATOM     10  C   UNL     1      58.905  74.856  79.635  0.00  0.00    +0.000 A 
ATOM     11  N   UNL     1      59.034  76.164  83.022  0.00  0.00    +0.000 N 
ATOM     12  C   UNL     1      58.462  74.075  82.028  0.00  0.00    +0.000 A 
ATOM     13  C   UNL     1      58.828  75.188  84.014  0.00  0.00    +0.000 A 
ATOM     14  C   UNL     1      58.453  73.919  83.432  0.00  0.00    +0.000 A 
ATOM     15  C   UNL     1      58.933  75.339  85.407  0.00  0.00    +0.000 A 
ATOM     16  C   UNL     1      58.208  72.840  84.305  0.00  0.00    +0.000 A 
ATOM     17  C   UNL     1      58.314  73.010  85.685  0.00  0.00    +0.000 A 
ATOM     18  C   UNL     1      58.672  74.238  86.223  0.00  0.00    +0.000 A 
ATOM     19  C   UNL     1      58.269  73.063  81.065  0.00  0.00    +0.000 A 
ATOM     20  C   UNL     1      58.518  73.513  79.736  0.00  0.00    +0.000 A 
ATOM     21  C   UNL     1      57.925  71.661  81.069  0.00  0.00    +0.000 C 
ATOM     22  C   UNL     1      58.326  72.335  78.846  0.00  0.00    +0.000 C 
ATOM     23  N   UNL     1      57.991  71.348  79.705  0.00  0.00    +0.000 N 
ATOM     24  H   UNL     1      57.793  70.407  79.394  0.00  0.00    +0.000 HD
ATOM     25  O   UNL     1      57.637  70.862  81.947  0.00  0.00    +0.000 OA
ATOM     26  C   UNL     1      59.350  75.500  78.467  0.00  0.00    +0.000 A 
ATOM     27  C   UNL     1      59.751  76.840  78.834  0.00  0.00    +0.000 A 
ATOM     28  C   UNL     1      59.502  75.097  77.124  0.00  0.00    +0.000 A 
ATOM     29  C   UNL     1      60.296  77.697  77.862  0.00  0.00    +0.000 A 
ATOM     30  C   UNL     1      60.424  77.252  76.547  0.00  0.00    +0.000 A 
ATOM     31  C   UNL     1      60.029  75.976  76.179  0.00  0.00    +0.000 A 
ENDROOT
BRANCH   3  32
ATOM     32  O   UNL     1      62.193  77.576  81.051  0.00  0.00    +0.000 OA
ATOM     33  H   UNL     1      61.800  77.210  80.228  0.00  0.00    +0.000 HD
ENDBRANCH   3  32
BRANCH   3  34
ATOM     34  C   UNL     1      61.672  79.801  81.888  0.00  0.00    +0.000 C 
ATOM     35  O   UNL     1      61.291  80.465  82.855  0.00  0.00    +0.000 OA
BRANCH  34  36
ATOM     36  O   UNL     1      62.489  80.201  80.867  0.00  0.00    +0.000 OA
ATOM     37  C   UNL     1      62.610  81.578  80.631  0.00  0.00    +0.000 C 
ENDBRANCH  34  36
ENDBRANCH   3  34
TORSDOF 3
ENDMDL
MODEL 5
REMARK VINA RESULT:      -7.3     21.035     23.725
REMARK  Name = 3035817_K252a.pdbqt.pdb
REMARK  3 active torsions:
REMARK  status: ('A' for Active; 'I' for Inactive)
REMARK    1  A    between atoms: C_3  and  O_7
REMARK    2  A    between atoms: C_3  and  C_9
REMARK    3  A    between atoms: C_9  and  O_11
REMARK                            x       y       z     vdW  Elec       q    Type
REMARK                         _______ _______ _______ _____ _____    ______ ____
ROOT
ATOM      1  O   UNL     1      60.705  52.788  56.621  0.00  0.00    +0.000 OA
ATOM      2  C   UNL     1      60.359  53.233  57.981  0.00  0.00    +0.000 C 
ATOM      3  C   UNL     1      59.474  52.047  58.562  0.00  0.00    +0.000 C 
ATOM      4  C   UNL     1      60.913  51.403  56.753  0.00  0.00    +0.000 C 
ATOM      5  C   UNL     1      59.996  50.960  57.737  0.00  0.00    +0.000 C 
ATOM      6  C   UNL     1      59.591  54.582  57.788  0.00  0.00    +0.000 C 
ATOM      7  N   UNL     1      61.635  53.416  58.702  0.00  0.00    +0.000 N 
ATOM      8  C   UNL     1      62.849  52.795  58.554  0.00  0.00    +0.000 A 
ATOM      9  C   UNL     1      63.145  51.711  57.727  0.00  0.00    +0.000 A 
ATOM     10  C   UNL     1      63.923  53.197  59.354  0.00  0.00    +0.000 A 
ATOM     11  N   UNL     1      62.242  51.062  56.943  0.00  0.00    +0.000 N 
ATOM     12  C   UNL     1      64.446  51.208  57.837  0.00  0.00    +0.000 A 
ATOM     13  C   UNL     1      63.017  49.970  56.516  0.00  0.00    +0.000 A 
ATOM     14  C   UNL     1      64.369  50.055  57.026  0.00  0.00    +0.000 A 
ATOM     15  C   UNL     1      62.625  48.903  55.691  0.00  0.00    +0.000 A 
ATOM     16  C   UNL     1      65.269  49.029  56.678  0.00  0.00    +0.000 A 
ATOM     17  C   UNL     1      64.862  47.979  55.855  0.00  0.00    +0.000 A 
ATOM     18  C   UNL     1      63.562  47.920  55.374  0.00  0.00    +0.000 A 
ATOM     19  C   UNL     1      65.543  51.614  58.624  0.00  0.00    +0.000 A 
ATOM     20  C   UNL     1      65.238  52.725  59.464  0.00  0.00    +0.000 A 
ATOM     21  C   UNL     1      66.899  51.172  58.843  0.00  0.00    +0.000 C 
ATOM     22  C   UNL     1      66.463  53.003  60.263  0.00  0.00    +0.000 C 
ATOM     23  N   UNL     1      67.336  52.068  59.827  0.00  0.00    +0.000 N 
ATOM     24  H   UNL     1      68.277  52.000  60.190  0.00  0.00    +0.000 HD
ATOM     25  O   UNL     1      67.588  50.282  58.367  0.00  0.00    +0.000 OA
ATOM     26  C   UNL     1      63.328  54.175  60.172  0.00  0.00    +0.000 A 
ATOM     27  C   UNL     1      61.938  54.276  59.788  0.00  0.00    +0.000 A 
ATOM     28  C   UNL     1      63.792  54.977  61.235  0.00  0.00    +0.000 A 
ATOM     29  C   UNL     1      61.081  55.145  60.486  0.00  0.00    +0.000 A 
ATOM     30  C   UNL     1      61.589  55.919  61.530  0.00  0.00    +0.000 A 
ATOM     31  C   UNL     1      62.923  55.843  61.896  0.00  0.00    +0.000 A 
ENDROOT
BRANCH   3  32
ATOM     32  O   UNL     1      59.711  51.738  59.943  0.00  0.00    +0.000 OA
ATOM     33  H   UNL     1      59.467  52.533  60.466  0.00  0.00    +0.000 HD
ENDBRANCH   3  32
BRANCH   3  34
ATOM     34  C   UNL     1      57.985  52.277  58.315  0.00  0.00    +0.000 C 
ATOM     35  O   UNL     1      57.484  52.015  57.219  0.00  0.00    +0.000 OA
BRANCH  34  36
ATOM     36  O   UNL     1      57.372  52.830  59.405  0.00  0.00    +0.000 OA
ATOM     37  C   UNL     1      56.059  53.295  59.248  0.00  0.00    +0.000 C 
ENDBRANCH  34  36
ENDBRANCH   3  34
TORSDOF 3
ENDMDL
MODEL 6
REMARK VINA RESULT:      -7.2     20.382     23.449
REMARK  Name = 3035817_K252a.pdbqt.pdb
REMARK  3 active torsions:
REMARK  status: ('A' for Active; 'I' for Inactive)
REMARK    1  A    between atoms: C_3  and  O_7
REMARK    2  A    between atoms: C_3  and  C_9
REMARK    3  A    between atoms: C_9  and  O_11
REMARK                            x       y       z     vdW  Elec       q    Type
REMARK                         _______ _______ _______ _____ _____    ______ ____
ROOT
ATOM      1  O   UNL     1      63.359  51.068  55.899  0.00  0.00    +0.000 OA
ATOM      2  C   UNL     1      63.762  51.411  57.272  0.00  0.00    +0.000 C 
ATOM      3  C   UNL     1      62.592  50.828  58.176  0.00  0.00    +0.000 C 
ATOM      4  C   UNL     1      62.774  49.795  56.019  0.00  0.00    +0.000 C 
ATOM      5  C   UNL     1      62.122  49.778  57.276  0.00  0.00    +0.000 C 
ATOM      6  C   UNL     1      63.881  52.970  57.288  0.00  0.00    +0.000 C 
ATOM      7  N   UNL     1      65.063  50.751  57.506  0.00  0.00    +0.000 N 
ATOM      8  C   UNL     1      65.595  49.600  56.983  0.00  0.00    +0.000 A 
ATOM      9  C   UNL     1      64.953  48.675  56.158  0.00  0.00    +0.000 A 
ATOM     10  C   UNL     1      66.889  49.218  57.349  0.00  0.00    +0.000 A 
ATOM     11  N   UNL     1      63.654  48.758  55.761  0.00  0.00    +0.000 N 
ATOM     12  C   UNL     1      65.697  47.533  55.842  0.00  0.00    +0.000 A 
ATOM     13  C   UNL     1      63.498  47.502  55.148  0.00  0.00    +0.000 A 
ATOM     14  C   UNL     1      64.735  46.754  55.162  0.00  0.00    +0.000 A 
ATOM     15  C   UNL     1      62.340  46.968  54.558  0.00  0.00    +0.000 A 
ATOM     16  C   UNL     1      64.736  45.472  54.577  0.00  0.00    +0.000 A 
ATOM     17  C   UNL     1      63.577  44.959  53.994  0.00  0.00    +0.000 A 
ATOM     18  C   UNL     1      62.402  45.697  53.988  0.00  0.00    +0.000 A 
ATOM     19  C   UNL     1      67.007  47.144  56.187  0.00  0.00    +0.000 A 
ATOM     20  C   UNL     1      67.661  48.093  57.026  0.00  0.00    +0.000 A 
ATOM     21  C   UNL     1      67.861  46.004  55.951  0.00  0.00    +0.000 C 
ATOM     22  C   UNL     1      69.001  47.527  57.345  0.00  0.00    +0.000 C 
ATOM     23  N   UNL     1      69.005  46.349  56.683  0.00  0.00    +0.000 N 
ATOM     24  H   UNL     1      69.797  45.722  56.706  0.00  0.00    +0.000 HD
ATOM     25  O   UNL     1      67.737  44.970  55.313  0.00  0.00    +0.000 OA
ATOM     26  C   UNL     1      67.239  50.219  58.272  0.00  0.00    +0.000 A 
ATOM     27  C   UNL     1      66.116  51.123  58.381  0.00  0.00    +0.000 A 
ATOM     28  C   UNL     1      68.374  50.459  59.074  0.00  0.00    +0.000 A 
ATOM     29  C   UNL     1      66.167  52.197  59.286  0.00  0.00    +0.000 A 
ATOM     30  C   UNL     1      67.314  52.392  60.056  0.00  0.00    +0.000 A 
ATOM     31  C   UNL     1      68.403  51.543  59.949  0.00  0.00    +0.000 A 
ENDROOT
BRANCH   3  32
ATOM     32  O   UNL     1      63.022  50.228  59.407  0.00  0.00    +0.000 OA
ATOM     33  H   UNL     1      62.675  50.783  60.140  0.00  0.00    +0.000 HD
ENDBRANCH   3  32
BRANCH   3  34
ATOM     34  C   UNL     1      61.509  51.870  58.441  0.00  0.00    +0.000 C 
ATOM     35  O   UNL     1      60.637  52.095  57.598  0.00  0.00    +0.000 OA
BRANCH  34  36
ATOM     36  O   UNL     1      61.691  52.495  59.643  0.00  0.00    +0.000 OA
ATOM     37  C   UNL     1      61.035  53.717  59.849  0.00  0.00    +0.000 C 
ENDBRANCH  34  36
ENDBRANCH   3  34
TORSDOF 3
ENDMDL
MODEL 7
REMARK VINA RESULT:      -7.1     41.838     46.777
REMARK  Name = 3035817_K252a.pdbqt.pdb
REMARK  3 active torsions:
REMARK  status: ('A' for Active; 'I' for Inactive)
REMARK    1  A    between atoms: C_3  and  O_7
REMARK    2  A    between atoms: C_3  and  C_9
REMARK    3  A    between atoms: C_9  and  O_11
REMARK                            x       y       z     vdW  Elec       q    Type
REMARK                         _______ _______ _______ _____ _____    ______ ____
ROOT
ATOM      1  O   UNL     1      56.241  73.558  80.137  0.00  0.00    +0.000 OA
ATOM      2  C   UNL     1      56.549  72.806  81.363  0.00  0.00    +0.000 C 
ATOM      3  C   UNL     1      57.350  71.534  80.846  0.00  0.00    +0.000 C 
ATOM      4  C   UNL     1      57.386  73.399  79.337  0.00  0.00    +0.000 C 
ATOM      5  C   UNL     1      57.874  72.096  79.604  0.00  0.00    +0.000 C 
ATOM      6  C   UNL     1      55.160  72.482  82.006  0.00  0.00    +0.000 C 
ATOM      7  N   UNL     1      57.360  73.700  82.214  0.00  0.00    +0.000 N 
ATOM      8  C   UNL     1      58.225  74.713  81.885  0.00  0.00    +0.000 A 
ATOM      9  C   UNL     1      58.652  75.074  80.607  0.00  0.00    +0.000 A 
ATOM     10  C   UNL     1      58.842  75.442  82.907  0.00  0.00    +0.000 A 
ATOM     11  N   UNL     1      58.292  74.439  79.459  0.00  0.00    +0.000 N 
ATOM     12  C   UNL     1      59.616  76.087  80.559  0.00  0.00    +0.000 A 
ATOM     13  C   UNL     1      59.151  75.070  78.542  0.00  0.00    +0.000 A 
ATOM     14  C   UNL     1      59.944  76.094  79.185  0.00  0.00    +0.000 A 
ATOM     15  C   UNL     1      59.278  74.819  77.166  0.00  0.00    +0.000 A 
ATOM     16  C   UNL     1      60.853  76.819  78.389  0.00  0.00    +0.000 A 
ATOM     17  C   UNL     1      60.964  76.558  77.024  0.00  0.00    +0.000 A 
ATOM     18  C   UNL     1      60.189  75.573  76.427  0.00  0.00    +0.000 A 
ATOM     19  C   UNL     1      60.231  76.843  81.577  0.00  0.00    +0.000 A 
ATOM     20  C   UNL     1      59.790  76.474  82.881  0.00  0.00    +0.000 A 
ATOM     21  C   UNL     1      61.237  77.876  81.657  0.00  0.00    +0.000 C 
ATOM     22  C   UNL     1      60.556  77.313  83.843  0.00  0.00    +0.000 C 
ATOM     23  N   UNL     1      61.339  78.068  83.041  0.00  0.00    +0.000 N 
ATOM     24  H   UNL     1      61.986  78.751  83.409  0.00  0.00    +0.000 HD
ATOM     25  O   UNL     1      61.888  78.491  80.826  0.00  0.00    +0.000 OA
ATOM     26  C   UNL     1      58.361  74.795  84.059  0.00  0.00    +0.000 A 
ATOM     27  C   UNL     1      57.490  73.725  83.626  0.00  0.00    +0.000 A 
ATOM     28  C   UNL     1      58.586  74.959  85.441  0.00  0.00    +0.000 A 
ATOM     29  C   UNL     1      56.909  72.868  84.577  0.00  0.00    +0.000 A 
ATOM     30  C   UNL     1      57.162  73.073  85.933  0.00  0.00    +0.000 A 
ATOM     31  C   UNL     1      57.981  74.105  86.361  0.00  0.00    +0.000 A 
ENDROOT
BRANCH   3  32
ATOM     32  O   UNL     1      58.450  71.135  81.678  0.00  0.00    +0.000 OA
ATOM     33  H   UNL     1      58.163  70.343  82.182  0.00  0.00    +0.000 HD
ENDBRANCH   3  32
BRANCH   3  34
ATOM     34  C   UNL     1      56.424  70.350  80.583  0.00  0.00    +0.000 C 
ATOM     35  O   UNL     1      55.720  70.318  79.570  0.00  0.00    +0.000 OA
BRANCH  34  36
ATOM     36  O   UNL     1      56.464  69.440  81.603  0.00  0.00    +0.000 OA
ATOM     37  C   UNL     1      55.375  68.568  81.742  0.00  0.00    +0.000 C 
ENDBRANCH  34  36
ENDBRANCH   3  34
TORSDOF 3
ENDMDL
MODEL 8
REMARK VINA RESULT:      -6.9     26.819     29.822
REMARK  Name = 3035817_K252a.pdbqt.pdb
REMARK  3 active torsions:
REMARK  status: ('A' for Active; 'I' for Inactive)
REMARK    1  A    between atoms: C_3  and  O_7
REMARK    2  A    between atoms: C_3  and  C_9
REMARK    3  A    between atoms: C_9  and  O_11
REMARK                            x       y       z     vdW  Elec       q    Type
REMARK                         _______ _______ _______ _____ _____    ______ ____
ROOT
ATOM      1  O   UNL     1      48.880  58.513  80.031  0.00  0.00    +0.000 OA
ATOM      2  C   UNL     1      48.467  57.689  78.884  0.00  0.00    +0.000 C 
ATOM      3  C   UNL     1      49.634  57.890  77.823  0.00  0.00    +0.000 C 
ATOM      4  C   UNL     1      50.276  58.350  80.089  0.00  0.00    +0.000 C 
ATOM      5  C   UNL     1      50.713  58.229  78.747  0.00  0.00    +0.000 C 
ATOM      6  C   UNL     1      47.081  58.265  78.443  0.00  0.00    +0.000 C 
ATOM      7  N   UNL     1      48.361  56.301  79.379  0.00  0.00    +0.000 N 
ATOM      8  C   UNL     1      49.026  55.653  80.388  0.00  0.00    +0.000 A 
ATOM      9  C   UNL     1      50.094  56.141  81.142  0.00  0.00    +0.000 A 
ATOM     10  C   UNL     1      48.697  54.326  80.680  0.00  0.00    +0.000 A 
ATOM     11  N   UNL     1      50.678  57.357  80.965  0.00  0.00    +0.000 N 
ATOM     12  C   UNL     1      50.654  55.235  82.049  0.00  0.00    +0.000 A 
ATOM     13  C   UNL     1      51.787  57.231  81.821  0.00  0.00    +0.000 A 
ATOM     14  C   UNL     1      51.775  55.959  82.510  0.00  0.00    +0.000 A 
ATOM     15  C   UNL     1      52.808  58.167  82.054  0.00  0.00    +0.000 A 
ATOM     16  C   UNL     1      52.826  55.688  83.409  0.00  0.00    +0.000 A 
ATOM     17  C   UNL     1      53.830  56.630  83.629  0.00  0.00    +0.000 A 
ATOM     18  C   UNL     1      53.818  57.846  82.960  0.00  0.00    +0.000 A 
ATOM     19  C   UNL     1      50.320  53.903  82.368  0.00  0.00    +0.000 A 
ATOM     20  C   UNL     1      49.227  53.409  81.598  0.00  0.00    +0.000 A 
ATOM     21  C   UNL     1      50.826  52.875  83.246  0.00  0.00    +0.000 C 
ATOM     22  C   UNL     1      49.027  51.991  82.005  0.00  0.00    +0.000 C 
ATOM     23  N   UNL     1      49.982  51.799  82.941  0.00  0.00    +0.000 N 
ATOM     24  H   UNL     1      50.101  50.914  83.415  0.00  0.00    +0.000 HD
ATOM     25  O   UNL     1      51.728  52.831  84.070  0.00  0.00    +0.000 OA
ATOM     26  C   UNL     1      47.723  54.045  79.705  0.00  0.00    +0.000 A 
ATOM     27  C   UNL     1      47.551  55.237  78.906  0.00  0.00    +0.000 A 
ATOM     28  C   UNL     1      46.977  52.897  79.368  0.00  0.00    +0.000 A 
ATOM     29  C   UNL     1      46.671  55.223  77.810  0.00  0.00    +0.000 A 
ATOM     30  C   UNL     1      45.954  54.063  77.518  0.00  0.00    +0.000 A 
ATOM     31  C   UNL     1      46.098  52.919  78.287  0.00  0.00    +0.000 A 
ENDROOT
BRANCH   3  32
ATOM     32  O   UNL     1      49.998  56.707  77.096  0.00  0.00    +0.000 OA
ATOM     33  H   UNL     1      49.915  55.947  77.713  0.00  0.00    +0.000 HD
ENDBRANCH   3  32
BRANCH   3  34
ATOM     34  C   UNL     1      49.333  59.036  76.861  0.00  0.00    +0.000 C 
ATOM     35  O   UNL     1      49.406  60.207  77.241  0.00  0.00    +0.000 OA
BRANCH  34  36
ATOM     36  O   UNL     1      48.947  58.577  75.632  0.00  0.00    +0.000 OA
ATOM     37  C   UNL     1      48.007  59.333  74.919  0.00  0.00    +0.000 C 
ENDBRANCH  34  36
ENDBRANCH   3  34
TORSDOF 3
ENDMDL
MODEL 9
REMARK VINA RESULT:      -6.9      9.225     12.397
REMARK  Name = 3035817_K252a.pdbqt.pdb
REMARK  3 active torsions:
REMARK  status: ('A' for Active; 'I' for Inactive)
REMARK    1  A    between atoms: C_3  and  O_7
REMARK    2  A    between atoms: C_3  and  C_9
REMARK    3  A    between atoms: C_9  and  O_11
REMARK                            x       y       z     vdW  Elec       q    Type
REMARK                         _______ _______ _______ _____ _____    ______ ____
ROOT
ATOM      1  O   UNL     1      57.134  36.848  69.629  0.00  0.00    +0.000 OA
ATOM      2  C   UNL     1      56.934  38.219  70.125  0.00  0.00    +0.000 C 
ATOM      3  C   UNL     1      58.028  39.073  69.351  0.00  0.00    +0.000 C 
ATOM      4  C   UNL     1      57.443  37.014  68.268  0.00  0.00    +0.000 C 
ATOM      5  C   UNL     1      58.183  38.218  68.177  0.00  0.00    +0.000 C 
ATOM      6  C   UNL     1      57.152  38.131  71.672  0.00  0.00    +0.000 C 
ATOM      7  N   UNL     1      55.548  38.594  69.779  0.00  0.00    +0.000 N 
ATOM      8  C   UNL     1      54.741  38.195  68.745  0.00  0.00    +0.000 A 
ATOM      9  C   UNL     1      55.096  37.393  67.659  0.00  0.00    +0.000 A 
ATOM     10  C   UNL     1      53.431  38.682  68.674  0.00  0.00    +0.000 A 
ATOM     11  N   UNL     1      56.343  36.897  67.435  0.00  0.00    +0.000 N 
ATOM     12  C   UNL     1      54.102  37.215  66.691  0.00  0.00    +0.000 A 
ATOM     13  C   UNL     1      56.174  36.365  66.144  0.00  0.00    +0.000 A 
ATOM     14  C   UNL     1      54.812  36.524  65.686  0.00  0.00    +0.000 A 
ATOM     15  C   UNL     1      57.136  35.731  65.340  0.00  0.00    +0.000 A 
ATOM     16  C   UNL     1      54.487  36.034  64.405  0.00  0.00    +0.000 A 
ATOM     17  C   UNL     1      55.455  35.405  63.622  0.00  0.00    +0.000 A 
ATOM     18  C   UNL     1      56.755  35.260  64.084  0.00  0.00    +0.000 A 
ATOM     19  C   UNL     1      52.774  37.683  66.617  0.00  0.00    +0.000 A 
ATOM     20  C   UNL     1      52.413  38.498  67.729  0.00  0.00    +0.000 A 
ATOM     21  C   UNL     1      51.679  37.593  65.679  0.00  0.00    +0.000 C 
ATOM     22  C   UNL     1      51.016  38.955  67.486  0.00  0.00    +0.000 C 
ATOM     23  N   UNL     1      50.704  38.381  66.304  0.00  0.00    +0.000 N 
ATOM     24  H   UNL     1      49.802  38.507  65.866  0.00  0.00    +0.000 HD
ATOM     25  O   UNL     1      51.524  37.023  64.610  0.00  0.00    +0.000 OA
ATOM     26  C   UNL     1      53.385  39.555  69.776  0.00  0.00    +0.000 A 
ATOM     27  C   UNL     1      54.680  39.515  70.417  0.00  0.00    +0.000 A 
ATOM     28  C   UNL     1      52.401  40.418  70.300  0.00  0.00    +0.000 A 
ATOM     29  C   UNL     1      54.937  40.343  71.524  0.00  0.00    +0.000 A 
ATOM     30  C   UNL     1      53.930  41.179  72.006  0.00  0.00    +0.000 A 
ATOM     31  C   UNL     1      52.680  41.214  71.410  0.00  0.00    +0.000 A 
ENDROOT
BRANCH   3  32
ATOM     32  O   UNL     1      57.589  40.373  68.927  0.00  0.00    +0.000 OA
ATOM     33  H   UNL     1      58.393  40.913  68.763  0.00  0.00    +0.000 HD
ENDBRANCH   3  32
BRANCH   3  34
ATOM     34  C   UNL     1      59.327  39.182  70.145  0.00  0.00    +0.000 C 
ATOM     35  O   UNL     1      59.576  40.196  70.802  0.00  0.00    +0.000 OA
BRANCH  34  36
ATOM     36  O   UNL     1      60.122  38.083  69.969  0.00  0.00    +0.000 OA
ATOM     37  C   UNL     1      60.771  37.560  71.095  0.00  0.00    +0.000 C 
ENDBRANCH  34  36
ENDBRANCH   3  34
TORSDOF 3
ENDMDL
