MODEL 1
REMARK VINA RESULT:      -5.0      0.000      0.000
REMARK  Name = 3136_Dimethoxy.pdbqt.pdb
REMARK  2 active torsions:
REMARK  status: ('A' for Active; 'I' for Inactive)
REMARK    1  A    between atoms: C_7  and  O_13
REMARK    2  A    between atoms: C_8  and  O_15
REMARK                            x       y       z     vdW  Elec       q    Type
REMARK                         _______ _______ _______ _____ _____    ______ ____
ROOT
ATOM      1  O   UNL     1      63.958  54.720  59.403  0.00  0.00    +0.000 OA
ATOM      2  O   UNL     1      59.821  51.361  59.416  0.00  0.00    +0.000 OA
ATOM      3  C   UNL     1      63.220  52.502  59.323  0.00  0.00    +0.000 A 
ATOM      4  C   UNL     1      62.144  51.627  59.352  0.00  0.00    +0.000 A 
ATOM      5  C   UNL     1      63.005  53.952  59.377  0.00  0.00    +0.000 C 
ATOM      6  C   UNL     1      60.770  52.132  59.443  0.00  0.00    +0.000 C 
ATOM      7  C   UNL     1      61.609  54.451  59.419  0.00  0.00    +0.000 C 
ATOM      8  C   UNL     1      60.571  53.599  59.548  0.00  0.00    +0.000 C 
ATOM      9  C   UNL     1      64.521  52.008  59.242  0.00  0.00    +0.000 A 
ATOM     10  C   UNL     1      62.361  50.249  59.294  0.00  0.00    +0.000 A 
ATOM     11  C   UNL     1      64.740  50.633  59.186  0.00  0.00    +0.000 A 
ATOM     12  C   UNL     1      63.660  49.754  59.211  0.00  0.00    +0.000 A 
ENDROOT
BRANCH   7  13
ATOM     13  O   UNL     1      61.473  55.827  59.420  0.00  0.00    +0.000 OA
ATOM     14  C   UNL     1      61.380  56.292  60.745  0.00  0.00    +0.000 C 
ENDBRANCH   7  13
BRANCH   8  15
ATOM     15  O   UNL     1      59.257  54.009  59.682  0.00  0.00    +0.000 OA
ATOM     16  C   UNL     1      58.730  54.330  58.417  0.00  0.00    +0.000 C 
ENDBRANCH   8  15
TORSDOF 2
ENDMDL
MODEL 2
REMARK VINA RESULT:      -4.8     15.920     16.773
REMARK  Name = 3136_Dimethoxy.pdbqt.pdb
REMARK  2 active torsions:
REMARK  status: ('A' for Active; 'I' for Inactive)
REMARK    1  A    between atoms: C_7  and  O_13
REMARK    2  A    between atoms: C_8  and  O_15
REMARK                            x       y       z     vdW  Elec       q    Type
REMARK                         _______ _______ _______ _____ _____    ______ ____
ROOT
ATOM      1  O   UNL     1      63.610  37.040  67.061  0.00  0.00    +0.000 OA
ATOM      2  O   UNL     1      62.730  41.535  69.784  0.00  0.00    +0.000 OA
ATOM      3  C   UNL     1      64.518  38.805  68.297  0.00  0.00    +0.000 A 
ATOM      4  C   UNL     1      64.291  39.989  68.984  0.00  0.00    +0.000 A 
ATOM      5  C   UNL     1      63.401  38.056  67.710  0.00  0.00    +0.000 C 
ATOM      6  C   UNL     1      62.932  40.520  69.133  0.00  0.00    +0.000 C 
ATOM      7  C   UNL     1      62.027  38.578  67.911  0.00  0.00    +0.000 C 
ATOM      8  C   UNL     1      61.819  39.778  68.492  0.00  0.00    +0.000 C 
ATOM      9  C   UNL     1      65.816  38.315  68.157  0.00  0.00    +0.000 A 
ATOM     10  C   UNL     1      65.361  40.689  69.543  0.00  0.00    +0.000 A 
ATOM     11  C   UNL     1      66.886  39.013  68.713  0.00  0.00    +0.000 A 
ATOM     12  C   UNL     1      66.659  40.200  69.406  0.00  0.00    +0.000 A 
ENDROOT
BRANCH   7  13
ATOM     13  O   UNL     1      61.016  37.802  67.375  0.00  0.00    +0.000 OA
ATOM     14  C   UNL     1      60.759  38.207  66.053  0.00  0.00    +0.000 C 
ENDBRANCH   7  13
BRANCH   8  15
ATOM     15  O   UNL     1      60.569  40.356  68.626  0.00  0.00    +0.000 OA
ATOM     16  C   UNL     1      59.864  39.721  69.666  0.00  0.00    +0.000 C 
ENDBRANCH   8  15
TORSDOF 2
ENDMDL
MODEL 3
REMARK VINA RESULT:      -4.7     36.283     38.297
REMARK  Name = 3136_Dimethoxy.pdbqt.pdb
REMARK  2 active torsions:
REMARK  status: ('A' for Active; 'I' for Inactive)
REMARK    1  A    between atoms: C_7  and  O_13
REMARK    2  A    between atoms: C_8  and  O_15
REMARK                            x       y       z     vdW  Elec       q    Type
REMARK                         _______ _______ _______ _____ _____    ______ ____
ROOT
ATOM      1  O   UNL     1      75.160  82.791  80.172  0.00  0.00    +0.000 OA
ATOM      2  O   UNL     1      77.265  78.703  82.867  0.00  0.00    +0.000 OA
ATOM      3  C   UNL     1      76.213  80.704  80.083  0.00  0.00    +0.000 A 
ATOM      4  C   UNL     1      76.783  79.651  80.784  0.00  0.00    +0.000 A 
ATOM      5  C   UNL     1      75.617  81.840  80.794  0.00  0.00    +0.000 C 
ATOM      6  C   UNL     1      76.809  79.656  82.251  0.00  0.00    +0.000 C 
ATOM      7  C   UNL     1      75.606  81.808  82.277  0.00  0.00    +0.000 C 
ATOM      8  C   UNL     1      76.248  80.835  82.955  0.00  0.00    +0.000 C 
ATOM      9  C   UNL     1      76.201  80.690  78.689  0.00  0.00    +0.000 A 
ATOM     10  C   UNL     1      77.341  78.573  80.096  0.00  0.00    +0.000 A 
ATOM     11  C   UNL     1      76.759  79.615  78.000  0.00  0.00    +0.000 A 
ATOM     12  C   UNL     1      77.329  78.556  78.703  0.00  0.00    +0.000 A 
ENDROOT
BRANCH   7  13
ATOM     13  O   UNL     1      74.988  82.885  82.887  0.00  0.00    +0.000 OA
ATOM     14  C   UNL     1      75.947  83.865  83.201  0.00  0.00    +0.000 C 
ENDBRANCH   7  13
BRANCH   8  15
ATOM     15  O   UNL     1      76.347  80.802  84.335  0.00  0.00    +0.000 OA
ATOM     16  C   UNL     1      75.181  80.232  84.879  0.00  0.00    +0.000 C 
ENDBRANCH   8  15
TORSDOF 2
ENDMDL
MODEL 4
REMARK VINA RESULT:      -4.6     36.523     38.790
REMARK  Name = 3136_Dimethoxy.pdbqt.pdb
REMARK  2 active torsions:
REMARK  status: ('A' for Active; 'I' for Inactive)
REMARK    1  A    between atoms: C_7  and  O_13
REMARK    2  A    between atoms: C_8  and  O_15
REMARK                            x       y       z     vdW  Elec       q    Type
REMARK                         _______ _______ _______ _____ _____    ______ ____
ROOT
ATOM      1  O   UNL     1      77.705  78.638  83.368  0.00  0.00    +0.000 OA
ATOM      2  O   UNL     1      75.060  82.453  80.751  0.00  0.00    +0.000 OA
ATOM      3  C   UNL     1      76.150  80.381  83.468  0.00  0.00    +0.000 A 
ATOM      4  C   UNL     1      75.480  81.391  82.792  0.00  0.00    +0.000 A 
ATOM      5  C   UNL     1      77.078  79.494  82.759  0.00  0.00    +0.000 C 
ATOM      6  C   UNL     1      75.691  81.596  81.355  0.00  0.00    +0.000 C 
ATOM      7  C   UNL     1      77.243  79.681  81.296  0.00  0.00    +0.000 C 
ATOM      8  C   UNL     1      76.670  80.724  80.661  0.00  0.00    +0.000 C 
ATOM      9  C   UNL     1      75.945  80.201  84.836  0.00  0.00    +0.000 A 
ATOM     10  C   UNL     1      74.595  82.225  83.477  0.00  0.00    +0.000 A 
ATOM     11  C   UNL     1      75.063  81.033  85.522  0.00  0.00    +0.000 A 
ATOM     12  C   UNL     1      74.388  82.045  84.843  0.00  0.00    +0.000 A 
ENDROOT
BRANCH   7  13
ATOM     13  O   UNL     1      78.094  78.783  80.678  0.00  0.00    +0.000 OA
ATOM     14  C   UNL     1      79.363  79.370  80.516  0.00  0.00    +0.000 C 
ENDBRANCH   7  13
BRANCH   8  15
ATOM     15  O   UNL     1      76.860  81.000  79.319  0.00  0.00    +0.000 OA
ATOM     16  C   UNL     1      75.944  80.260  78.549  0.00  0.00    +0.000 C 
ENDBRANCH   8  15
TORSDOF 2
ENDMDL
MODEL 5
REMARK VINA RESULT:      -4.6     19.808     22.051
REMARK  Name = 3136_Dimethoxy.pdbqt.pdb
REMARK  2 active torsions:
REMARK  status: ('A' for Active; 'I' for Inactive)
REMARK    1  A    between atoms: C_7  and  O_13
REMARK    2  A    between atoms: C_8  and  O_15
REMARK                            x       y       z     vdW  Elec       q    Type
REMARK                         _______ _______ _______ _____ _____    ______ ____
ROOT
ATOM      1  O   UNL     1      52.027  32.691  59.609  0.00  0.00    +0.000 OA
ATOM      2  O   UNL     1      52.846  34.802  54.785  0.00  0.00    +0.000 OA
ATOM      3  C   UNL     1      51.849  34.566  58.222  0.00  0.00    +0.000 A 
ATOM      4  C   UNL     1      52.085  35.122  56.973  0.00  0.00    +0.000 A 
ATOM      5  C   UNL     1      52.190  33.165  58.492  0.00  0.00    +0.000 C 
ATOM      6  C   UNL     1      52.687  34.324  55.899  0.00  0.00    +0.000 C 
ATOM      7  C   UNL     1      52.751  32.355  57.383  0.00  0.00    +0.000 C 
ATOM      8  C   UNL     1      53.072  32.924  56.203  0.00  0.00    +0.000 C 
ATOM      9  C   UNL     1      51.282  35.338  59.235  0.00  0.00    +0.000 A 
ATOM     10  C   UNL     1      51.751  36.454  56.726  0.00  0.00    +0.000 A 
ATOM     11  C   UNL     1      50.949  36.668  58.992  0.00  0.00    +0.000 A 
ATOM     12  C   UNL     1      51.183  37.227  57.737  0.00  0.00    +0.000 A 
ENDROOT
BRANCH   7  13
ATOM     13  O   UNL     1      53.006  31.031  57.688  0.00  0.00    +0.000 OA
ATOM     14  C   UNL     1      51.934  30.230  57.253  0.00  0.00    +0.000 C 
ENDBRANCH   7  13
BRANCH   8  15
ATOM     15  O   UNL     1      53.680  32.241  55.164  0.00  0.00    +0.000 OA
ATOM     16  C   UNL     1      55.078  32.310  55.306  0.00  0.00    +0.000 C 
ENDBRANCH   8  15
TORSDOF 2
ENDMDL
MODEL 6
REMARK VINA RESULT:      -4.3     29.091     31.687
REMARK  Name = 3136_Dimethoxy.pdbqt.pdb
REMARK  2 active torsions:
REMARK  status: ('A' for Active; 'I' for Inactive)
REMARK    1  A    between atoms: C_7  and  O_13
REMARK    2  A    between atoms: C_8  and  O_15
REMARK                            x       y       z     vdW  Elec       q    Type
REMARK                         _______ _______ _______ _____ _____    ______ ____
ROOT
ATOM      1  O   UNL     1      58.175  75.994  81.039  0.00  0.00    +0.000 OA
ATOM      2  O   UNL     1      62.849  77.616  79.059  0.00  0.00    +0.000 OA
ATOM      3  C   UNL     1      59.712  75.891  79.280  0.00  0.00    +0.000 A 
ATOM      4  C   UNL     1      60.918  76.333  78.753  0.00  0.00    +0.000 A 
ATOM      5  C   UNL     1      59.262  76.346  80.599  0.00  0.00    +0.000 C 
ATOM      6  C   UNL     1      61.763  77.269  79.502  0.00  0.00    +0.000 C 
ATOM      7  C   UNL     1      60.149  77.253  81.367  0.00  0.00    +0.000 C 
ATOM      8  C   UNL     1      61.270  77.759  80.812  0.00  0.00    +0.000 C 
ATOM      9  C   UNL     1      58.916  75.005  78.555  0.00  0.00    +0.000 A 
ATOM     10  C   UNL     1      61.339  75.888  77.499  0.00  0.00    +0.000 A 
ATOM     11  C   UNL     1      59.333  74.561  77.302  0.00  0.00    +0.000 A 
ATOM     12  C   UNL     1      60.545  75.002  76.774  0.00  0.00    +0.000 A 
ENDROOT
BRANCH   7  13
ATOM     13  O   UNL     1      59.690  77.607  82.622  0.00  0.00    +0.000 OA
ATOM     14  C   UNL     1      60.246  76.749  83.589  0.00  0.00    +0.000 C 
ENDBRANCH   7  13
BRANCH   8  15
ATOM     15  O   UNL     1      62.089  78.678  81.445  0.00  0.00    +0.000 OA
ATOM     16  C   UNL     1      61.665  79.984  81.133  0.00  0.00    +0.000 C 
ENDBRANCH   8  15
TORSDOF 2
ENDMDL
MODEL 7
REMARK VINA RESULT:      -4.3     26.040     27.929
REMARK  Name = 3136_Dimethoxy.pdbqt.pdb
REMARK  2 active torsions:
REMARK  status: ('A' for Active; 'I' for Inactive)
REMARK    1  A    between atoms: C_7  and  O_13
REMARK    2  A    between atoms: C_8  and  O_15
REMARK                            x       y       z     vdW  Elec       q    Type
REMARK                         _______ _______ _______ _____ _____    ______ ____
ROOT
ATOM      1  O   UNL     1      78.438  64.533  81.582  0.00  0.00    +0.000 OA
ATOM      2  O   UNL     1      77.632  64.318  76.319  0.00  0.00    +0.000 OA
ATOM      3  C   UNL     1      77.302  63.528  79.802  0.00  0.00    +0.000 A 
ATOM      4  C   UNL     1      77.074  63.489  78.434  0.00  0.00    +0.000 A 
ATOM      5  C   UNL     1      78.276  64.466  80.371  0.00  0.00    +0.000 C 
ATOM      6  C   UNL     1      77.796  64.390  77.528  0.00  0.00    +0.000 C 
ATOM      7  C   UNL     1      79.035  65.336  79.439  0.00  0.00    +0.000 C 
ATOM      8  C   UNL     1      78.740  65.367  78.123  0.00  0.00    +0.000 C 
ATOM      9  C   UNL     1      76.604  62.671  80.651  0.00  0.00    +0.000 A 
ATOM     10  C   UNL     1      76.149  62.589  77.904  0.00  0.00    +0.000 A 
ATOM     11  C   UNL     1      75.679  61.772  80.125  0.00  0.00    +0.000 A 
ATOM     12  C   UNL     1      75.452  61.730  78.751  0.00  0.00    +0.000 A 
ENDROOT
BRANCH   7  13
ATOM     13  O   UNL     1      79.971  66.162  80.033  0.00  0.00    +0.000 OA
ATOM     14  C   UNL     1      81.244  65.569  79.954  0.00  0.00    +0.000 C 
ENDBRANCH   7  13
BRANCH   8  15
ATOM     15  O   UNL     1      79.352  66.221  77.223  0.00  0.00    +0.000 OA
ATOM     16  C   UNL     1      78.640  67.433  77.161  0.00  0.00    +0.000 C 
ENDBRANCH   8  15
TORSDOF 2
ENDMDL
MODEL 8
REMARK VINA RESULT:      -4.3     26.801     28.530
REMARK  Name = 3136_Dimethoxy.pdbqt.pdb
REMARK  2 active torsions:
REMARK  status: ('A' for Active; 'I' for Inactive)
REMARK    1  A    between atoms: C_7  and  O_13
REMARK    2  A    between atoms: C_8  and  O_15
REMARK                            x       y       z     vdW  Elec       q    Type
REMARK                         _______ _______ _______ _____ _____    ______ ____
ROOT
ATOM      1  O   UNL     1      78.612  65.032  80.502  0.00  0.00    +0.000 OA
ATOM      2  O   UNL     1      75.463  61.055  82.136  0.00  0.00    +0.000 OA
ATOM      3  C   UNL     1      77.098  63.349  79.915  0.00  0.00    +0.000 A 
ATOM      4  C   UNL     1      76.297  62.298  80.338  0.00  0.00    +0.000 A 
ATOM      5  C   UNL     1      77.867  64.139  80.883  0.00  0.00    +0.000 C 
ATOM      6  C   UNL     1      76.209  61.949  81.760  0.00  0.00    +0.000 C 
ATOM      7  C   UNL     1      77.730  63.807  82.322  0.00  0.00    +0.000 C 
ATOM      8  C   UNL     1      77.032  62.724  82.721  0.00  0.00    +0.000 C 
ATOM      9  C   UNL     1      77.177  63.666  78.560  0.00  0.00    +0.000 A 
ATOM     10  C   UNL     1      75.565  61.558  79.409  0.00  0.00    +0.000 A 
ATOM     11  C   UNL     1      76.448  62.928  77.630  0.00  0.00    +0.000 A 
ATOM     12  C   UNL     1      75.642  61.874  78.054  0.00  0.00    +0.000 A 
ENDROOT
BRANCH   7  13
ATOM     13  O   UNL     1      78.444  64.617  83.186  0.00  0.00    +0.000 OA
ATOM     14  C   UNL     1      79.690  64.028  83.468  0.00  0.00    +0.000 C 
ENDBRANCH   7  13
BRANCH   8  15
ATOM     15  O   UNL     1      76.943  62.314  84.040  0.00  0.00    +0.000 OA
ATOM     16  C   UNL     1      75.954  63.065  84.703  0.00  0.00    +0.000 C 
ENDBRANCH   8  15
TORSDOF 2
ENDMDL
MODEL 9
REMARK VINA RESULT:      -4.3     13.261     15.230
REMARK  Name = 3136_Dimethoxy.pdbqt.pdb
REMARK  2 active torsions:
REMARK  status: ('A' for Active; 'I' for Inactive)
REMARK    1  A    between atoms: C_7  and  O_13
REMARK    2  A    between atoms: C_8  and  O_15
REMARK                            x       y       z     vdW  Elec       q    Type
REMARK                         _______ _______ _______ _____ _____    ______ ____
ROOT
ATOM      1  O   UNL     1      71.017  45.409  64.784  0.00  0.00    +0.000 OA
ATOM      2  O   UNL     1      71.024  40.137  65.560  0.00  0.00    +0.000 OA
ATOM      3  C   UNL     1      70.843  43.277  63.837  0.00  0.00    +0.000 A 
ATOM      4  C   UNL     1      70.870  41.904  64.037  0.00  0.00    +0.000 A 
ATOM      5  C   UNL     1      70.990  44.199  64.969  0.00  0.00    +0.000 C 
ATOM      6  C   UNL     1      71.053  41.346  65.381  0.00  0.00    +0.000 C 
ATOM      7  C   UNL     1      71.124  43.621  66.329  0.00  0.00    +0.000 C 
ATOM      8  C   UNL     1      71.251  42.290  66.507  0.00  0.00    +0.000 C 
ATOM      9  C   UNL     1      70.675  43.794  62.553  0.00  0.00    +0.000 A 
ATOM     10  C   UNL     1      70.723  41.037  62.953  0.00  0.00    +0.000 A 
ATOM     11  C   UNL     1      70.530  42.931  61.470  0.00  0.00    +0.000 A 
ATOM     12  C   UNL     1      70.554  41.552  61.669  0.00  0.00    +0.000 A 
ENDROOT
BRANCH   7  13
ATOM     13  O   UNL     1      71.211  44.543  67.356  0.00  0.00    +0.000 OA
ATOM     14  C   UNL     1      72.543  44.976  67.493  0.00  0.00    +0.000 C 
ENDBRANCH   7  13
BRANCH   8  15
ATOM     15  O   UNL     1      71.467  41.702  67.741  0.00  0.00    +0.000 OA
ATOM     16  C   UNL     1      72.846  41.491  67.929  0.00  0.00    +0.000 C 
ENDBRANCH   8  15
TORSDOF 2
ENDMDL
