MODEL 1
REMARK VINA RESULT:      -4.8      0.000      0.000
REMARK  Name = 326_Cuminaldehyde.pdb
REMARK  1 active torsions:
REMARK  status: ('A' for Active; 'I' for Inactive)
REMARK    1  A    between atoms: C_1  and  C_7
REMARK                            x       y       z     vdW  Elec       q    Type
REMARK                         _______ _______ _______ _____ _____    ______ ____
ROOT
ATOM      1  C   UNL     1      68.694  48.018  77.588  0.00  0.00    +0.000 C 
ATOM      2  C   UNL     1      69.306  46.768  77.707  0.00  0.00    +0.000 C 
ATOM      3  C   UNL     1      69.254  48.980  76.744  0.00  0.00    +0.000 C 
ATOM      4  C   UNL     1      70.466  46.482  76.989  0.00  0.00    +0.000 C 
ATOM      5  C   UNL     1      70.415  48.695  76.026  0.00  0.00    +0.000 C 
ATOM      6  C   UNL     1      71.019  47.446  76.149  0.00  0.00    +0.000 C 
ATOM      7  O   UNL     1      73.185  46.914  74.809  0.00  0.00    +0.000 OA
ATOM      8  C   UNL     1      72.206  47.155  75.415  0.00  0.00    +0.000 C 
ENDROOT
BRANCH   1   9
ATOM      9  C   UNL     1      67.479  48.317  78.340  0.00  0.00    +0.000 C 
ATOM     10  C   UNL     1      66.241  48.846  77.659  0.00  0.00    +0.000 C 
ATOM     11  C   UNL     1      67.405  48.110  79.832  0.00  0.00    +0.000 C 
ENDBRANCH   1   9
TORSDOF 1
ENDMDL
MODEL 2
REMARK VINA RESULT:      -4.7     18.751     19.803
REMARK  Name = 326_Cuminaldehyde.pdb
REMARK  1 active torsions:
REMARK  status: ('A' for Active; 'I' for Inactive)
REMARK    1  A    between atoms: C_1  and  C_7
REMARK                            x       y       z     vdW  Elec       q    Type
REMARK                         _______ _______ _______ _____ _____    ______ ____
ROOT
ATOM      1  C   UNL     1      64.332  51.082  59.235  0.00  0.00    +0.000 C 
ATOM      2  C   UNL     1      63.724  52.340  59.256  0.00  0.00    +0.000 C 
ATOM      3  C   UNL     1      63.536  49.935  59.220  0.00  0.00    +0.000 C 
ATOM      4  C   UNL     1      62.335  52.449  59.261  0.00  0.00    +0.000 C 
ATOM      5  C   UNL     1      62.146  50.043  59.226  0.00  0.00    +0.000 C 
ATOM      6  C   UNL     1      61.548  51.301  59.246  0.00  0.00    +0.000 C 
ATOM      7  O   UNL     1      58.953  51.503  59.256  0.00  0.00    +0.000 OA
ATOM      8  C   UNL     1      60.126  51.412  59.252  0.00  0.00    +0.000 C 
ENDROOT
BRANCH   1   9
ATOM      9  C   UNL     1      65.788  50.969  59.229  0.00  0.00    +0.000 C 
ATOM     10  C   UNL     1      66.670  52.125  59.629  0.00  0.00    +0.000 C 
ATOM     11  C   UNL     1      66.476  49.690  58.824  0.00  0.00    +0.000 C 
ENDBRANCH   1   9
TORSDOF 1
ENDMDL
MODEL 3
REMARK VINA RESULT:      -4.7     23.745     24.581
REMARK  Name = 326_Cuminaldehyde.pdb
REMARK  1 active torsions:
REMARK  status: ('A' for Active; 'I' for Inactive)
REMARK    1  A    between atoms: C_1  and  C_7
REMARK                            x       y       z     vdW  Elec       q    Type
REMARK                         _______ _______ _______ _____ _____    ______ ____
ROOT
ATOM      1  C   UNL     1      62.714  41.318  54.725  0.00  0.00    +0.000 C 
ATOM      2  C   UNL     1      61.917  41.159  55.862  0.00  0.00    +0.000 C 
ATOM      3  C   UNL     1      63.161  40.188  54.036  0.00  0.00    +0.000 C 
ATOM      4  C   UNL     1      61.569  39.883  56.303  0.00  0.00    +0.000 C 
ATOM      5  C   UNL     1      62.814  38.912  54.477  0.00  0.00    +0.000 C 
ATOM      6  C   UNL     1      62.018  38.762  55.610  0.00  0.00    +0.000 C 
ATOM      7  O   UNL     1      61.371  36.380  56.434  0.00  0.00    +0.000 OA
ATOM      8  C   UNL     1      61.664  37.456  56.062  0.00  0.00    +0.000 C 
ENDROOT
BRANCH   1   9
ATOM      9  C   UNL     1      63.077  42.654  54.263  0.00  0.00    +0.000 C 
ATOM     10  C   UNL     1      62.040  43.735  54.085  0.00  0.00    +0.000 C 
ATOM     11  C   UNL     1      64.506  43.015  53.942  0.00  0.00    +0.000 C 
ENDBRANCH   1   9
TORSDOF 1
ENDMDL
MODEL 4
REMARK VINA RESULT:      -4.6     33.644     34.662
REMARK  Name = 326_Cuminaldehyde.pdb
REMARK  1 active torsions:
REMARK  status: ('A' for Active; 'I' for Inactive)
REMARK    1  A    between atoms: C_1  and  C_7
REMARK                            x       y       z     vdW  Elec       q    Type
REMARK                         _______ _______ _______ _____ _____    ______ ____
ROOT
ATOM      1  C   UNL     1      75.585  80.175  84.693  0.00  0.00    +0.000 C 
ATOM      2  C   UNL     1      75.432  81.349  83.952  0.00  0.00    +0.000 C 
ATOM      3  C   UNL     1      74.610  79.820  85.628  0.00  0.00    +0.000 C 
ATOM      4  C   UNL     1      74.314  82.159  84.142  0.00  0.00    +0.000 C 
ATOM      5  C   UNL     1      73.492  80.630  85.820  0.00  0.00    +0.000 C 
ATOM      6  C   UNL     1      73.346  81.799  85.076  0.00  0.00    +0.000 C 
ATOM      7  O   UNL     1      71.259  83.312  85.433  0.00  0.00    +0.000 OA
ATOM      8  C   UNL     1      72.202  82.628  85.272  0.00  0.00    +0.000 C 
ENDROOT
BRANCH   1   9
ATOM      9  C   UNL     1      76.756  79.326  84.493  0.00  0.00    +0.000 C 
ATOM     10  C   UNL     1      76.658  77.822  84.547  0.00  0.00    +0.000 C 
ATOM     11  C   UNL     1      78.118  79.914  84.222  0.00  0.00    +0.000 C 
ENDBRANCH   1   9
TORSDOF 1
ENDMDL
MODEL 5
REMARK VINA RESULT:      -4.4     24.620     26.892
REMARK  Name = 326_Cuminaldehyde.pdb
REMARK  1 active torsions:
REMARK  status: ('A' for Active; 'I' for Inactive)
REMARK    1  A    between atoms: C_1  and  C_7
REMARK                            x       y       z     vdW  Elec       q    Type
REMARK                         _______ _______ _______ _____ _____    ______ ____
ROOT
ATOM      1  C   UNL     1      47.241  53.778  65.489  0.00  0.00    +0.000 C 
ATOM      2  C   UNL     1      46.239  52.805  65.527  0.00  0.00    +0.000 C 
ATOM      3  C   UNL     1      47.565  54.384  64.273  0.00  0.00    +0.000 C 
ATOM      4  C   UNL     1      45.567  52.443  64.361  0.00  0.00    +0.000 C 
ATOM      5  C   UNL     1      46.894  54.021  63.106  0.00  0.00    +0.000 C 
ATOM      6  C   UNL     1      45.896  53.051  63.152  0.00  0.00    +0.000 C 
ATOM      7  O   UNL     1      44.643  52.374  60.974  0.00  0.00    +0.000 OA
ATOM      8  C   UNL     1      45.209  52.680  61.958  0.00  0.00    +0.000 C 
ENDROOT
BRANCH   1   9
ATOM      9  C   UNL     1      47.943  54.158  66.711  0.00  0.00    +0.000 C 
ATOM     10  C   UNL     1      49.366  53.729  66.967  0.00  0.00    +0.000 C 
ATOM     11  C   UNL     1      47.278  54.997  67.773  0.00  0.00    +0.000 C 
ENDBRANCH   1   9
TORSDOF 1
ENDMDL
MODEL 6
REMARK VINA RESULT:      -4.4     18.643     19.434
REMARK  Name = 326_Cuminaldehyde.pdb
REMARK  1 active torsions:
REMARK  status: ('A' for Active; 'I' for Inactive)
REMARK    1  A    between atoms: C_1  and  C_7
REMARK                            x       y       z     vdW  Elec       q    Type
REMARK                         _______ _______ _______ _____ _____    ______ ____
ROOT
ATOM      1  C   UNL     1      61.791  51.803  59.329  0.00  0.00    +0.000 C 
ATOM      2  C   UNL     1      62.901  52.651  59.293  0.00  0.00    +0.000 C 
ATOM      3  C   UNL     1      61.982  50.420  59.315  0.00  0.00    +0.000 C 
ATOM      4  C   UNL     1      64.189  52.119  59.245  0.00  0.00    +0.000 C 
ATOM      5  C   UNL     1      63.269  49.888  59.266  0.00  0.00    +0.000 C 
ATOM      6  C   UNL     1      64.371  50.739  59.231  0.00  0.00    +0.000 C 
ATOM      7  O   UNL     1      66.775  49.747  59.140  0.00  0.00    +0.000 OA
ATOM      8  C   UNL     1      65.689  50.195  59.181  0.00  0.00    +0.000 C 
ENDROOT
BRANCH   1   9
ATOM      9  C   UNL     1      60.442  52.360  59.380  0.00  0.00    +0.000 C 
ATOM     10  C   UNL     1      59.230  51.519  59.067  0.00  0.00    +0.000 C 
ATOM     11  C   UNL     1      60.199  53.802  59.748  0.00  0.00    +0.000 C 
ENDBRANCH   1   9
TORSDOF 1
ENDMDL
MODEL 7
REMARK VINA RESULT:      -4.4     14.178     15.537
REMARK  Name = 326_Cuminaldehyde.pdb
REMARK  1 active torsions:
REMARK  status: ('A' for Active; 'I' for Inactive)
REMARK    1  A    between atoms: C_1  and  C_7
REMARK                            x       y       z     vdW  Elec       q    Type
REMARK                         _______ _______ _______ _____ _____    ______ ____
ROOT
ATOM      1  C   UNL     1      69.361  58.933  65.475  0.00  0.00    +0.000 C 
ATOM      2  C   UNL     1      69.367  58.085  64.365  0.00  0.00    +0.000 C 
ATOM      3  C   UNL     1      69.743  58.436  66.722  0.00  0.00    +0.000 C 
ATOM      4  C   UNL     1      69.754  56.753  64.501  0.00  0.00    +0.000 C 
ATOM      5  C   UNL     1      70.129  57.103  66.860  0.00  0.00    +0.000 C 
ATOM      6  C   UNL     1      70.134  56.264  65.748  0.00  0.00    +0.000 C 
ATOM      7  O   UNL     1      70.855  53.776  66.003  0.00  0.00    +0.000 OA
ATOM      8  C   UNL     1      70.529  54.900  65.888  0.00  0.00    +0.000 C 
ENDROOT
BRANCH   1   9
ATOM      9  C   UNL     1      68.956  60.329  65.331  0.00  0.00    +0.000 C 
ATOM     10  C   UNL     1      68.095  60.785  64.181  0.00  0.00    +0.000 C 
ATOM     11  C   UNL     1      69.382  61.378  66.328  0.00  0.00    +0.000 C 
ENDBRANCH   1   9
TORSDOF 1
ENDMDL
MODEL 8
REMARK VINA RESULT:      -4.3      2.936      4.444
REMARK  Name = 326_Cuminaldehyde.pdb
REMARK  1 active torsions:
REMARK  status: ('A' for Active; 'I' for Inactive)
REMARK    1  A    between atoms: C_1  and  C_7
REMARK                            x       y       z     vdW  Elec       q    Type
REMARK                         _______ _______ _______ _____ _____    ______ ____
ROOT
ATOM      1  C   UNL     1      69.452  47.395  77.162  0.00  0.00    +0.000 C 
ATOM      2  C   UNL     1      68.277  47.437  77.916  0.00  0.00    +0.000 C 
ATOM      3  C   UNL     1      70.233  46.236  77.169  0.00  0.00    +0.000 C 
ATOM      4  C   UNL     1      67.886  46.331  78.669  0.00  0.00    +0.000 C 
ATOM      5  C   UNL     1      69.843  45.130  77.923  0.00  0.00    +0.000 C 
ATOM      6  C   UNL     1      68.669  45.180  78.672  0.00  0.00    +0.000 C 
ATOM      7  O   UNL     1      67.940  43.115  80.078  0.00  0.00    +0.000 OA
ATOM      8  C   UNL     1      68.270  44.048  79.443  0.00  0.00    +0.000 C 
ENDROOT
BRANCH   1   9
ATOM      9  C   UNL     1      69.861  48.553  76.373  0.00  0.00    +0.000 C 
ATOM     10  C   UNL     1      68.952  49.742  76.189  0.00  0.00    +0.000 C 
ATOM     11  C   UNL     1      71.212  48.613  75.705  0.00  0.00    +0.000 C 
ENDBRANCH   1   9
TORSDOF 1
ENDMDL
MODEL 9
REMARK VINA RESULT:      -4.2     19.331     20.499
REMARK  Name = 326_Cuminaldehyde.pdb
REMARK  1 active torsions:
REMARK  status: ('A' for Active; 'I' for Inactive)
REMARK    1  A    between atoms: C_1  and  C_7
REMARK                            x       y       z     vdW  Elec       q    Type
REMARK                         _______ _______ _______ _____ _____    ______ ____
ROOT
ATOM      1  C   UNL     1      65.108  49.328  57.579  0.00  0.00    +0.000 C 
ATOM      2  C   UNL     1      63.935  49.285  56.821  0.00  0.00    +0.000 C 
ATOM      3  C   UNL     1      65.070  49.849  58.874  0.00  0.00    +0.000 C 
ATOM      4  C   UNL     1      62.736  49.756  57.354  0.00  0.00    +0.000 C 
ATOM      5  C   UNL     1      63.872  50.320  59.408  0.00  0.00    +0.000 C 
ATOM      6  C   UNL     1      62.706  50.273  58.646  0.00  0.00    +0.000 C 
ATOM      7  O   UNL     1      60.469  51.154  59.642  0.00  0.00    +0.000 OA
ATOM      8  C   UNL     1      61.480  50.756  59.192  0.00  0.00    +0.000 C 
ENDROOT
BRANCH   1   9
ATOM      9  C   UNL     1      66.363  48.834  57.020  0.00  0.00    +0.000 C 
ATOM     10  C   UNL     1      67.694  49.397  57.453  0.00  0.00    +0.000 C 
ATOM     11  C   UNL     1      66.386  47.738  55.984  0.00  0.00    +0.000 C 
ENDBRANCH   1   9
TORSDOF 1
ENDMDL
