REMARK  Name = 326_Cuminaldehyde.pdb
REMARK  1 active torsions:
REMARK  status: ('A' for Active; 'I' for Inactive)
REMARK    1  A    between atoms: C_1  and  C_7
REMARK                            x       y       z     vdW  Elec       q    Type
REMARK                         _______ _______ _______ _____ _____    ______ ____
ROOT
ATOM      1  C   UNL     1       1.096   0.007   0.000  0.00  0.00    +0.000 C 
ATOM      2  C   UNL     1       0.384   1.209   0.014  0.00  0.00    +0.000 C 
ATOM      3  C   UNL     1       0.400  -1.204  -0.013  0.00  0.00    +0.000 C 
ATOM      4  C   UNL     1      -1.010   1.200   0.013  0.00  0.00    +0.000 C 
ATOM      5  C   UNL     1      -0.994  -1.214  -0.013  0.00  0.00    +0.000 C 
ATOM      6  C   UNL     1      -1.697  -0.011   0.000  0.00  0.00    +0.000 C 
ATOM      7  O   UNL     1      -4.299  -0.029   0.000  0.00  0.00    +0.000 OA
ATOM      8  C   UNL     1      -3.123  -0.021   0.000  0.00  0.00    +0.000 C 
ENDROOT
BRANCH   1   9
ATOM      9  C   UNL     1       2.556   0.017   0.000  0.00  0.00    +0.000 C 
ATOM     10  C   UNL     1       3.344  -0.005  -1.286  0.00  0.00    +0.000 C 
ATOM     11  C   UNL     1       3.343   0.050   1.286  0.00  0.00    +0.000 C 
ENDBRANCH   1   9
TORSDOF 1
