MODEL 1
REMARK VINA RESULT:      -5.0      0.000      0.000
REMARK  Name = 3363_5FluorouracilDeoxyriboside.pdbqt.pdb
REMARK  4 active torsions:
REMARK  status: ('A' for Active; 'I' for Inactive)
REMARK    1  A    between atoms: N_4  and  C1*_13
REMARK    2  A    between atoms: C3*_12  and  O3*_16
REMARK    3  A    between atoms: C4*_15  and  C5*_18
REMARK    4  A    between atoms: C5*_18  and  O5*_19
REMARK                            x       y       z     vdW  Elec       q    Type
REMARK                         _______ _______ _______ _____ _____    ______ ____
ROOT
ATOM      1  F   UNL     1      53.657  33.053  56.864  0.00  0.00    +0.000 F 
ATOM      2  O   UNL     1      50.587  37.502  57.406  0.00  0.00    +0.000 OA
ATOM      3  O   UNL     1      53.005  34.718  54.673  0.00  0.00    +0.000 OA
ATOM      4  N   UNL     1      51.425  35.488  58.335  0.00  0.00    +0.000 N 
ATOM      5  N   UNL     1      51.731  36.034  56.069  0.00  0.00    +0.000 N 
ATOM      6  C   UNL     1      51.183  36.435  57.312  0.00  0.00    +0.000 C 
ATOM      7  C   UNL     1      52.114  34.380  57.997  0.00  0.00    +0.000 C 
ATOM      8  C   UNL     1      52.644  33.934  56.909  0.00  0.00    +0.000 C 
ATOM      9  C   UNL     1      52.493  34.896  55.771  0.00  0.00    +0.000 C 
ATOM     10  H   UNL     1      51.618  36.698  55.317  0.00  0.00    +0.000 HD
ENDROOT
BRANCH   4  13
ATOM     11  O4* UNL     1      49.676  35.906  59.954  0.00  0.00    +0.000 OA
ATOM     12  C3* UNL     1      50.921  35.769  61.904  0.00  0.00    +0.000 A 
ATOM     13  C1* UNL     1      51.012  35.639  59.629  0.00  0.00    +0.000 A 
ATOM     14  C2* UNL     1      51.774  35.545  60.809  0.00  0.00    +0.000 A 
ATOM     15  C4* UNL     1      49.607  35.989  61.350  0.00  0.00    +0.000 A 
BRANCH  12  16
ATOM     16  O3* UNL     1      51.103  35.198  63.132  0.00  0.00    +0.000 OA
ATOM     17  H3* UNL     1      51.546  35.801  63.755  0.00  0.00    +0.000 HD
ENDBRANCH  12  16
BRANCH  15  18
ATOM     18  C5* UNL     1      48.382  36.053  62.044  0.00  0.00    +0.000 C 
BRANCH  18  19
ATOM     19  O5* UNL     1      47.233  36.096  62.708  0.00  0.00    +0.000 OA
ATOM     20  H5* UNL     1      47.192  36.888  63.273  0.00  0.00    +0.000 HD
ENDBRANCH  18  19
ENDBRANCH  15  18
ENDBRANCH   4  13
TORSDOF 4
ENDMDL
MODEL 2
REMARK VINA RESULT:      -4.6      1.718      2.079
REMARK  Name = 3363_5FluorouracilDeoxyriboside.pdbqt.pdb
REMARK  4 active torsions:
REMARK  status: ('A' for Active; 'I' for Inactive)
REMARK    1  A    between atoms: N_4  and  C1*_13
REMARK    2  A    between atoms: C3*_12  and  O3*_16
REMARK    3  A    between atoms: C4*_15  and  C5*_18
REMARK    4  A    between atoms: C5*_18  and  O5*_19
REMARK                            x       y       z     vdW  Elec       q    Type
REMARK                         _______ _______ _______ _____ _____    ______ ____
ROOT
ATOM      1  F   UNL     1      50.949  31.929  58.460  0.00  0.00    +0.000 F 
ATOM      2  O   UNL     1      51.320  37.329  58.924  0.00  0.00    +0.000 OA
ATOM      3  O   UNL     1      52.190  33.536  56.491  0.00  0.00    +0.000 OA
ATOM      4  N   UNL     1      50.389  35.285  59.684  0.00  0.00    +0.000 N 
ATOM      5  N   UNL     1      51.652  35.417  57.706  0.00  0.00    +0.000 N 
ATOM      6  C   UNL     1      51.119  36.126  58.810  0.00  0.00    +0.000 C 
ATOM      7  C   UNL     1      50.306  33.980  59.356  0.00  0.00    +0.000 C 
ATOM      8  C   UNL     1      50.750  33.255  58.386  0.00  0.00    +0.000 C 
ATOM      9  C   UNL     1      51.590  34.044  57.429  0.00  0.00    +0.000 C 
ATOM     10  H   UNL     1      52.216  35.968  57.074  0.00  0.00    +0.000 HD
ENDROOT
BRANCH   4  13
ATOM     11  O4* UNL     1      48.519  36.322  60.816  0.00  0.00    +0.000 OA
ATOM     12  C3* UNL     1      49.284  36.206  63.001  0.00  0.00    +0.000 A 
ATOM     13  C1* UNL     1      49.783  35.717  60.830  0.00  0.00    +0.000 A 
ATOM     14  C2* UNL     1      50.252  35.635  62.155  0.00  0.00    +0.000 A 
ATOM     15  C4* UNL     1      48.201  36.627  62.145  0.00  0.00    +0.000 A 
BRANCH  12  16
ATOM     16  O3* UNL     1      49.074  35.800  64.288  0.00  0.00    +0.000 OA
ATOM     17  H3* UNL     1      48.132  35.630  64.471  0.00  0.00    +0.000 HD
ENDBRANCH  12  16
BRANCH  15  18
ATOM     18  C5* UNL     1      46.921  37.067  62.535  0.00  0.00    +0.000 C 
BRANCH  18  19
ATOM     19  O5* UNL     1      45.709  37.487  62.882  0.00  0.00    +0.000 OA
ATOM     20  H5* UNL     1      45.245  37.869  62.117  0.00  0.00    +0.000 HD
ENDBRANCH  18  19
ENDBRANCH  15  18
ENDBRANCH   4  13
TORSDOF 4
ENDMDL
MODEL 3
REMARK VINA RESULT:      -4.4     56.544     57.700
REMARK  Name = 3363_5FluorouracilDeoxyriboside.pdbqt.pdb
REMARK  4 active torsions:
REMARK  status: ('A' for Active; 'I' for Inactive)
REMARK    1  A    between atoms: N_4  and  C1*_13
REMARK    2  A    between atoms: C3*_12  and  O3*_16
REMARK    3  A    between atoms: C4*_15  and  C5*_18
REMARK    4  A    between atoms: C5*_18  and  O5*_19
REMARK                            x       y       z     vdW  Elec       q    Type
REMARK                         _______ _______ _______ _____ _____    ______ ____
ROOT
ATOM      1  F   UNL     1      77.380  84.854  83.305  0.00  0.00    +0.000 F 
ATOM      2  O   UNL     1      74.581  80.489  84.924  0.00  0.00    +0.000 OA
ATOM      3  O   UNL     1      75.077  85.052  84.936  0.00  0.00    +0.000 OA
ATOM      4  N   UNL     1      76.245  81.427  83.521  0.00  0.00    +0.000 N 
ATOM      5  N   UNL     1      74.820  82.766  84.826  0.00  0.00    +0.000 N 
ATOM      6  C   UNL     1      75.176  81.449  84.448  0.00  0.00    +0.000 C 
ATOM      7  C   UNL     1      76.753  82.618  83.140  0.00  0.00    +0.000 C 
ATOM      8  C   UNL     1      76.497  83.849  83.424  0.00  0.00    +0.000 C 
ATOM      9  C   UNL     1      75.412  83.979  84.450  0.00  0.00    +0.000 C 
ATOM     10  H   UNL     1      74.087  82.830  85.519  0.00  0.00    +0.000 HD
ENDROOT
BRANCH   4  13
ATOM     11  O4* UNL     1      76.491  79.843  81.709  0.00  0.00    +0.000 OA
ATOM     12  C3* UNL     1      77.976  78.363  82.697  0.00  0.00    +0.000 A 
ATOM     13  C1* UNL     1      76.787  80.284  83.005  0.00  0.00    +0.000 A 
ATOM     14  C2* UNL     1      77.696  79.395  83.610  0.00  0.00    +0.000 A 
ATOM     15  C4* UNL     1      77.216  78.662  81.507  0.00  0.00    +0.000 A 
BRANCH  12  16
ATOM     16  O3* UNL     1      79.172  77.705  82.645  0.00  0.00    +0.000 OA
ATOM     17  H3* UNL     1      79.546  77.692  81.745  0.00  0.00    +0.000 HD
ENDBRANCH  12  16
BRANCH  15  18
ATOM     18  C5* UNL     1      77.316  78.042  80.246  0.00  0.00    +0.000 C 
BRANCH  18  19
ATOM     19  O5* UNL     1      77.431  77.455  79.060  0.00  0.00    +0.000 OA
ATOM     20  H5* UNL     1      77.889  78.040  78.430  0.00  0.00    +0.000 HD
ENDBRANCH  18  19
ENDBRANCH  15  18
ENDBRANCH   4  13
TORSDOF 4
ENDMDL
MODEL 4
REMARK VINA RESULT:      -4.4     13.676     15.617
REMARK  Name = 3363_5FluorouracilDeoxyriboside.pdbqt.pdb
REMARK  4 active torsions:
REMARK  status: ('A' for Active; 'I' for Inactive)
REMARK    1  A    between atoms: N_4  and  C1*_13
REMARK    2  A    between atoms: C3*_12  and  O3*_16
REMARK    3  A    between atoms: C4*_15  and  C5*_18
REMARK    4  A    between atoms: C5*_18  and  O5*_19
REMARK                            x       y       z     vdW  Elec       q    Type
REMARK                         _______ _______ _______ _____ _____    ______ ____
ROOT
ATOM      1  F   UNL     1      58.322  37.086  73.236  0.00  0.00    +0.000 F 
ATOM      2  O   UNL     1      57.052  40.266  69.019  0.00  0.00    +0.000 OA
ATOM      3  O   UNL     1      55.680  37.974  72.750  0.00  0.00    +0.000 OA
ATOM      4  N   UNL     1      58.717  39.282  70.391  0.00  0.00    +0.000 N 
ATOM      5  N   UNL     1      56.433  39.179  70.938  0.00  0.00    +0.000 N 
ATOM      6  C   UNL     1      57.401  39.641  70.013  0.00  0.00    +0.000 C 
ATOM      7  C   UNL     1      58.859  38.581  71.534  0.00  0.00    +0.000 C 
ATOM      8  C   UNL     1      58.050  38.125  72.429  0.00  0.00    +0.000 C 
ATOM      9  C   UNL     1      56.618  38.402  72.090  0.00  0.00    +0.000 C 
ATOM     10  H   UNL     1      55.474  39.377  70.690  0.00  0.00    +0.000 HD
ENDROOT
BRANCH   4  13
ATOM     11  O4* UNL     1      60.921  40.268  70.235  0.00  0.00    +0.000 OA
ATOM     12  C3* UNL     1      61.379  39.826  68.007  0.00  0.00    +0.000 A 
ATOM     13  C1* UNL     1      59.832  39.596  69.666  0.00  0.00    +0.000 A 
ATOM     14  C2* UNL     1      60.106  39.315  68.313  0.00  0.00    +0.000 A 
ATOM     15  C4* UNL     1      61.879  40.415  69.225  0.00  0.00    +0.000 A 
BRANCH  12  16
ATOM     16  O3* UNL     1      62.212  39.268  67.077  0.00  0.00    +0.000 OA
ATOM     17  H3* UNL     1      62.233  38.296  67.139  0.00  0.00    +0.000 HD
ENDBRANCH  12  16
BRANCH  15  18
ATOM     18  C5* UNL     1      63.186  40.873  69.484  0.00  0.00    +0.000 C 
BRANCH  18  19
ATOM     19  O5* UNL     1      64.417  41.318  69.712  0.00  0.00    +0.000 OA
ATOM     20  H5* UNL     1      64.784  41.739  68.915  0.00  0.00    +0.000 HD
ENDBRANCH  18  19
ENDBRANCH  15  18
ENDBRANCH   4  13
TORSDOF 4
ENDMDL
MODEL 5
REMARK VINA RESULT:      -4.3     12.742     14.261
REMARK  Name = 3363_5FluorouracilDeoxyriboside.pdbqt.pdb
REMARK  4 active torsions:
REMARK  status: ('A' for Active; 'I' for Inactive)
REMARK    1  A    between atoms: N_4  and  C1*_13
REMARK    2  A    between atoms: C3*_12  and  O3*_16
REMARK    3  A    between atoms: C4*_15  and  C5*_18
REMARK    4  A    between atoms: C5*_18  and  O5*_19
REMARK                            x       y       z     vdW  Elec       q    Type
REMARK                         _______ _______ _______ _____ _____    ______ ____
ROOT
ATOM      1  F   UNL     1      58.916  35.317  65.905  0.00  0.00    +0.000 F 
ATOM      2  O   UNL     1      63.967  36.741  67.311  0.00  0.00    +0.000 OA
ATOM      3  O   UNL     1      61.203  34.032  64.844  0.00  0.00    +0.000 OA
ATOM      4  N   UNL     1      61.645  37.220  67.324  0.00  0.00    +0.000 N 
ATOM      5  N   UNL     1      62.548  35.474  66.034  0.00  0.00    +0.000 N 
ATOM      6  C   UNL     1      62.818  36.527  66.942  0.00  0.00    +0.000 C 
ATOM      7  C   UNL     1      60.480  36.798  66.790  0.00  0.00    +0.000 C 
ATOM      8  C   UNL     1      60.141  35.865  65.967  0.00  0.00    +0.000 C 
ATOM      9  C   UNL     1      61.312  35.031  65.545  0.00  0.00    +0.000 C 
ATOM     10  H   UNL     1      63.351  34.925  65.763  0.00  0.00    +0.000 HD
ENDROOT
BRANCH   4  13
ATOM     11  O4* UNL     1      61.156  38.134  69.510  0.00  0.00    +0.000 OA
ATOM     12  C3* UNL     1      61.855  40.317  69.175  0.00  0.00    +0.000 A 
ATOM     13  C1* UNL     1      61.628  38.269  68.198  0.00  0.00    +0.000 A 
ATOM     14  C2* UNL     1      62.063  39.592  67.988  0.00  0.00    +0.000 A 
ATOM     15  C4* UNL     1      61.290  39.386  70.121  0.00  0.00    +0.000 A 
BRANCH  12  16
ATOM     16  O3* UNL     1      62.644  41.362  69.569  0.00  0.00    +0.000 OA
ATOM     17  H3* UNL     1      62.708  42.052  68.885  0.00  0.00    +0.000 HD
ENDBRANCH  12  16
BRANCH  15  18
ATOM     18  C5* UNL     1      61.096  39.578  71.503  0.00  0.00    +0.000 C 
BRANCH  18  19
ATOM     19  O5* UNL     1      60.935  39.760  72.809  0.00  0.00    +0.000 OA
ATOM     20  H5* UNL     1      60.028  39.531  73.079  0.00  0.00    +0.000 HD
ENDBRANCH  18  19
ENDBRANCH  15  18
ENDBRANCH   4  13
TORSDOF 4
ENDMDL
MODEL 6
REMARK VINA RESULT:      -4.2      4.353      5.511
REMARK  Name = 3363_5FluorouracilDeoxyriboside.pdbqt.pdb
REMARK  4 active torsions:
REMARK  status: ('A' for Active; 'I' for Inactive)
REMARK    1  A    between atoms: N_4  and  C1*_13
REMARK    2  A    between atoms: C3*_12  and  O3*_16
REMARK    3  A    between atoms: C4*_15  and  C5*_18
REMARK    4  A    between atoms: C5*_18  and  O5*_19
REMARK                            x       y       z     vdW  Elec       q    Type
REMARK                         _______ _______ _______ _____ _____    ______ ____
ROOT
ATOM      1  F   UNL     1      52.756  36.960  65.528  0.00  0.00    +0.000 F 
ATOM      2  O   UNL     1      51.970  35.207  60.447  0.00  0.00    +0.000 OA
ATOM      3  O   UNL     1      54.901  36.300  63.805  0.00  0.00    +0.000 OA
ATOM      4  N   UNL     1      51.072  35.709  62.583  0.00  0.00    +0.000 N 
ATOM      5  N   UNL     1      53.388  35.680  62.183  0.00  0.00    +0.000 N 
ATOM      6  C   UNL     1      52.097  35.501  61.630  0.00  0.00    +0.000 C 
ATOM      7  C   UNL     1      51.453  36.034  63.835  0.00  0.00    +0.000 C 
ATOM      8  C   UNL     1      52.586  36.215  64.424  0.00  0.00    +0.000 C 
ATOM      9  C   UNL     1      53.742  36.074  63.481  0.00  0.00    +0.000 C 
ATOM     10  H   UNL     1      54.152  35.581  61.530  0.00  0.00    +0.000 HD
ENDROOT
BRANCH   4  13
ATOM     11  O4* UNL     1      48.935  36.740  62.110  0.00  0.00    +0.000 OA
ATOM     12  C3* UNL     1      47.639  34.835  61.863  0.00  0.00    +0.000 A 
ATOM     13  C1* UNL     1      49.738  35.609  62.304  0.00  0.00    +0.000 A 
ATOM     14  C2* UNL     1      48.960  34.446  62.147  0.00  0.00    +0.000 A 
ATOM     15  C4* UNL     1      47.642  36.278  61.838  0.00  0.00    +0.000 A 
BRANCH  12  16
ATOM     16  O3* UNL     1      46.785  34.099  61.090  0.00  0.00    +0.000 OA
ATOM     17  H3* UNL     1      47.051  33.163  61.038  0.00  0.00    +0.000 HD
ENDBRANCH  12  16
BRANCH  15  18
ATOM     18  C5* UNL     1      46.610  37.131  61.398  0.00  0.00    +0.000 C 
BRANCH  18  19
ATOM     19  O5* UNL     1      45.647  37.951  60.993  0.00  0.00    +0.000 OA
ATOM     20  H5* UNL     1      46.018  38.689  60.479  0.00  0.00    +0.000 HD
ENDBRANCH  18  19
ENDBRANCH  15  18
ENDBRANCH   4  13
TORSDOF 4
ENDMDL
MODEL 7
REMARK VINA RESULT:      -4.2      1.773      2.526
REMARK  Name = 3363_5FluorouracilDeoxyriboside.pdbqt.pdb
REMARK  4 active torsions:
REMARK  status: ('A' for Active; 'I' for Inactive)
REMARK    1  A    between atoms: N_4  and  C1*_13
REMARK    2  A    between atoms: C3*_12  and  O3*_16
REMARK    3  A    between atoms: C4*_15  and  C5*_18
REMARK    4  A    between atoms: C5*_18  and  O5*_19
REMARK                            x       y       z     vdW  Elec       q    Type
REMARK                         _______ _______ _______ _____ _____    ______ ____
ROOT
ATOM      1  F   UNL     1      50.795  31.978  57.447  0.00  0.00    +0.000 F 
ATOM      2  O   UNL     1      52.298  37.077  58.566  0.00  0.00    +0.000 OA
ATOM      3  O   UNL     1      51.852  33.712  55.477  0.00  0.00    +0.000 OA
ATOM      4  N   UNL     1      51.183  35.096  59.238  0.00  0.00    +0.000 N 
ATOM      5  N   UNL     1      51.973  35.396  57.044  0.00  0.00    +0.000 N 
ATOM      6  C   UNL     1      51.847  35.961  58.336  0.00  0.00    +0.000 C 
ATOM      7  C   UNL     1      50.777  33.902  58.759  0.00  0.00    +0.000 C 
ATOM      8  C   UNL     1      50.844  33.310  57.615  0.00  0.00    +0.000 C 
ATOM      9  C   UNL     1      51.586  34.124  56.599  0.00  0.00    +0.000 C 
ATOM     10  H   UNL     1      52.477  35.961  56.375  0.00  0.00    +0.000 HD
ENDROOT
BRANCH   4  13
ATOM     11  O4* UNL     1      51.980  35.690  61.443  0.00  0.00    +0.000 OA
ATOM     12  C3* UNL     1      49.952  35.828  62.556  0.00  0.00    +0.000 A 
ATOM     13  C1* UNL     1      50.943  35.397  60.548  0.00  0.00    +0.000 A 
ATOM     14  C2* UNL     1      49.706  35.487  61.215  0.00  0.00    +0.000 A 
ATOM     15  C4* UNL     1      51.384  35.957  62.682  0.00  0.00    +0.000 A 
BRANCH  12  16
ATOM     16  O3* UNL     1      49.089  36.565  63.318  0.00  0.00    +0.000 OA
ATOM     17  H3* UNL     1      49.457  36.767  64.197  0.00  0.00    +0.000 HD
ENDBRANCH  12  16
BRANCH  15  18
ATOM     18  C5* UNL     1      52.106  36.480  63.772  0.00  0.00    +0.000 C 
BRANCH  18  19
ATOM     19  O5* UNL     1      52.804  36.977  64.787  0.00  0.00    +0.000 OA
ATOM     20  H5* UNL     1      52.691  37.942  64.843  0.00  0.00    +0.000 HD
ENDBRANCH  18  19
ENDBRANCH  15  18
ENDBRANCH   4  13
TORSDOF 4
ENDMDL
MODEL 8
REMARK VINA RESULT:      -4.1     12.143     14.002
REMARK  Name = 3363_5FluorouracilDeoxyriboside.pdbqt.pdb
REMARK  4 active torsions:
REMARK  status: ('A' for Active; 'I' for Inactive)
REMARK    1  A    between atoms: N_4  and  C1*_13
REMARK    2  A    between atoms: C3*_12  and  O3*_16
REMARK    3  A    between atoms: C4*_15  and  C5*_18
REMARK    4  A    between atoms: C5*_18  and  O5*_19
REMARK                            x       y       z     vdW  Elec       q    Type
REMARK                         _______ _______ _______ _____ _____    ______ ____
ROOT
ATOM      1  F   UNL     1      59.231  36.593  64.854  0.00  0.00    +0.000 F 
ATOM      2  O   UNL     1      57.855  39.121  69.461  0.00  0.00    +0.000 OA
ATOM      3  O   UNL     1      56.619  36.459  65.933  0.00  0.00    +0.000 OA
ATOM      4  N   UNL     1      59.552  38.391  67.975  0.00  0.00    +0.000 N 
ATOM      5  N   UNL     1      57.311  37.724  67.729  0.00  0.00    +0.000 N 
ATOM      6  C   UNL     1      58.235  38.481  68.488  0.00  0.00    +0.000 C 
ATOM      7  C   UNL     1      59.734  37.626  66.880  0.00  0.00    +0.000 C 
ATOM      8  C   UNL     1      58.965  36.909  66.132  0.00  0.00    +0.000 C 
ATOM      9  C   UNL     1      57.531  36.984  66.559  0.00  0.00    +0.000 C 
ATOM     10  H   UNL     1      56.350  37.789  68.034  0.00  0.00    +0.000 HD
ENDROOT
BRANCH   4  13
ATOM     11  O4* UNL     1      61.178  38.655  69.747  0.00  0.00    +0.000 OA
ATOM     12  C3* UNL     1      62.386  40.438  68.893  0.00  0.00    +0.000 A 
ATOM     13  C1* UNL     1      60.628  39.035  68.516  0.00  0.00    +0.000 A 
ATOM     14  C2* UNL     1      61.362  40.113  67.985  0.00  0.00    +0.000 A 
ATOM     15  C4* UNL     1      62.259  39.510  69.990  0.00  0.00    +0.000 A 
BRANCH  12  16
ATOM     16  O3* UNL     1      63.595  40.951  68.514  0.00  0.00    +0.000 OA
ATOM     17  H3* UNL     1      63.886  40.606  67.651  0.00  0.00    +0.000 HD
ENDBRANCH  12  16
BRANCH  15  18
ATOM     18  C5* UNL     1      63.170  39.297  71.044  0.00  0.00    +0.000 C 
BRANCH  18  19
ATOM     19  O5* UNL     1      64.018  39.079  72.043  0.00  0.00    +0.000 OA
ATOM     20  H5* UNL     1      63.607  39.302  72.897  0.00  0.00    +0.000 HD
ENDBRANCH  18  19
ENDBRANCH  15  18
ENDBRANCH   4  13
TORSDOF 4
ENDMDL
MODEL 9
REMARK VINA RESULT:      -4.0     31.618     32.600
REMARK  Name = 3363_5FluorouracilDeoxyriboside.pdbqt.pdb
REMARK  4 active torsions:
REMARK  status: ('A' for Active; 'I' for Inactive)
REMARK    1  A    between atoms: N_4  and  C1*_13
REMARK    2  A    between atoms: C3*_12  and  O3*_16
REMARK    3  A    between atoms: C4*_15  and  C5*_18
REMARK    4  A    between atoms: C5*_18  and  O5*_19
REMARK                            x       y       z     vdW  Elec       q    Type
REMARK                         _______ _______ _______ _____ _____    ______ ____
ROOT
ATOM      1  F   UNL     1      58.029  69.248  69.751  0.00  0.00    +0.000 F 
ATOM      2  O   UNL     1      60.473  64.463  68.952  0.00  0.00    +0.000 OA
ATOM      3  O   UNL     1      60.589  68.662  70.802  0.00  0.00    +0.000 OA
ATOM      4  N   UNL     1      58.510  65.787  68.823  0.00  0.00    +0.000 N 
ATOM      5  N   UNL     1      60.445  66.536  69.929  0.00  0.00    +0.000 N 
ATOM      6  C   UNL     1      59.841  65.484  69.198  0.00  0.00    +0.000 C 
ATOM      7  C   UNL     1      58.022  66.985  69.202  0.00  0.00    +0.000 C 
ATOM      8  C   UNL     1      58.489  67.991  69.861  0.00  0.00    +0.000 C 
ATOM      9  C   UNL     1      59.921  67.794  70.255  0.00  0.00    +0.000 C 
ATOM     10  H   UNL     1      61.410  66.381  70.184  0.00  0.00    +0.000 HD
ENDROOT
BRANCH   4  13
ATOM     11  O4* UNL     1      58.017  64.578  66.786  0.00  0.00    +0.000 OA
ATOM     12  C3* UNL     1      56.048  63.539  67.427  0.00  0.00    +0.000 A 
ATOM     13  C1* UNL     1      57.710  64.947  68.102  0.00  0.00    +0.000 A 
ATOM     14  C2* UNL     1      56.518  64.313  68.503  0.00  0.00    +0.000 A 
ATOM     15  C4* UNL     1      57.003  63.713  66.360  0.00  0.00    +0.000 A 
BRANCH  12  16
ATOM     16  O3* UNL     1      55.339  62.381  67.583  0.00  0.00    +0.000 OA
ATOM     17  H3* UNL     1      54.908  62.329  68.456  0.00  0.00    +0.000 HD
ENDBRANCH  12  16
BRANCH  15  18
ATOM     18  C5* UNL     1      57.084  62.988  65.154  0.00  0.00    +0.000 C 
BRANCH  18  19
ATOM     19  O5* UNL     1      57.142  62.314  64.011  0.00  0.00    +0.000 OA
ATOM     20  H5* UNL     1      56.688  61.457  64.094  0.00  0.00    +0.000 HD
ENDBRANCH  18  19
ENDBRANCH  15  18
ENDBRANCH   4  13
TORSDOF 4
ENDMDL
