MODEL 1
REMARK VINA RESULT:      -4.1      0.000      0.000
REMARK  Name = 3385_5Fluorouracil.pdbqt.pdb
REMARK  0 active torsions:
REMARK  status: ('A' for Active; 'I' for Inactive)
REMARK                            x       y       z     vdW  Elec       q    Type
REMARK                         _______ _______ _______ _____ _____    ______ ____
ROOT
ATOM      1  F   UNL     1      60.885  38.710  54.988  0.00  0.00    +0.000 F 
ATOM      2  O   UNL     1      61.019  37.193  57.377  0.00  0.00    +0.000 OA
ATOM      3  O   UNL     1      65.435  36.175  56.518  0.00  0.00    +0.000 OA
ATOM      4  N   UNL     1      63.201  36.633  56.906  0.00  0.00    +0.000 N 
ATOM      5  N   UNL     1      64.218  37.329  54.939  0.00  0.00    +0.000 N 
ATOM      6  C   UNL     1      61.960  37.206  56.593  0.00  0.00    +0.000 C 
ATOM      7  C   UNL     1      64.379  36.667  56.148  0.00  0.00    +0.000 C 
ATOM      8  C   UNL     1      61.885  37.848  55.237  0.00  0.00    +0.000 C 
ATOM      9  C   UNL     1      63.020  37.840  54.622  0.00  0.00    +0.000 C 
ATOM     10  H   UNL     1      63.272  36.195  57.813  0.00  0.00    +0.000 HD
ATOM     11  H   UNL     1      65.013  37.414  54.319  0.00  0.00    +0.000 HD
ENDROOT
TORSDOF 0
ENDMDL
MODEL 2
REMARK VINA RESULT:      -4.1      2.396      3.563
REMARK  Name = 3385_5Fluorouracil.pdbqt.pdb
REMARK  0 active torsions:
REMARK  status: ('A' for Active; 'I' for Inactive)
REMARK                            x       y       z     vdW  Elec       q    Type
REMARK                         _______ _______ _______ _____ _____    ______ ____
ROOT
ATOM      1  F   UNL     1      62.807  35.123  56.076  0.00  0.00    +0.000 F 
ATOM      2  O   UNL     1      64.171  37.068  54.534  0.00  0.00    +0.000 OA
ATOM      3  O   UNL     1      61.775  40.426  56.599  0.00  0.00    +0.000 OA
ATOM      4  N   UNL     1      62.922  38.732  55.519  0.00  0.00    +0.000 N 
ATOM      5  N   UNL     1      61.250  38.229  57.049  0.00  0.00    +0.000 N 
ATOM      6  C   UNL     1      63.242  37.391  55.266  0.00  0.00    +0.000 C 
ATOM      7  C   UNL     1      61.960  39.233  56.407  0.00  0.00    +0.000 C 
ATOM      8  C   UNL     1      62.373  36.390  55.973  0.00  0.00    +0.000 C 
ATOM      9  C   UNL     1      61.528  36.946  56.774  0.00  0.00    +0.000 C 
ATOM     10  H   UNL     1      63.493  39.422  55.053  0.00  0.00    +0.000 HD
ATOM     11  H   UNL     1      60.534  38.486  57.716  0.00  0.00    +0.000 HD
ENDROOT
TORSDOF 0
ENDMDL
MODEL 3
REMARK VINA RESULT:      -3.7     22.602     23.445
REMARK  Name = 3385_5Fluorouracil.pdbqt.pdb
REMARK  0 active torsions:
REMARK  status: ('A' for Active; 'I' for Inactive)
REMARK                            x       y       z     vdW  Elec       q    Type
REMARK                         _______ _______ _______ _____ _____    ______ ____
ROOT
ATOM      1  F   UNL     1      45.522  42.471  68.114  0.00  0.00    +0.000 F 
ATOM      2  O   UNL     1      47.042  44.730  68.895  0.00  0.00    +0.000 OA
ATOM      3  O   UNL     1      46.027  43.921  73.321  0.00  0.00    +0.000 OA
ATOM      4  N   UNL     1      46.474  44.360  71.094  0.00  0.00    +0.000 N 
ATOM      5  N   UNL     1      45.037  42.636  71.685  0.00  0.00    +0.000 N 
ATOM      6  C   UNL     1      46.381  44.109  69.718  0.00  0.00    +0.000 C 
ATOM      7  C   UNL     1      45.855  43.660  72.139  0.00  0.00    +0.000 C 
ATOM      8  C   UNL     1      45.424  43.015  69.339  0.00  0.00    +0.000 C 
ATOM      9  C   UNL     1      44.915  42.424  70.367  0.00  0.00    +0.000 C 
ATOM     10  H   UNL     1      47.111  45.093  71.370  0.00  0.00    +0.000 HD
ATOM     11  H   UNL     1      44.548  42.065  72.363  0.00  0.00    +0.000 HD
ENDROOT
TORSDOF 0
ENDMDL
MODEL 4
REMARK VINA RESULT:      -3.7     30.825     31.827
REMARK  Name = 3385_5Fluorouracil.pdbqt.pdb
REMARK  0 active torsions:
REMARK  status: ('A' for Active; 'I' for Inactive)
REMARK                            x       y       z     vdW  Elec       q    Type
REMARK                         _______ _______ _______ _____ _____    ______ ____
ROOT
ATOM      1  F   UNL     1      49.331  48.654  80.848  0.00  0.00    +0.000 F 
ATOM      2  O   UNL     1      50.936  46.443  81.598  0.00  0.00    +0.000 OA
ATOM      3  O   UNL     1      51.623  48.317  85.757  0.00  0.00    +0.000 OA
ATOM      4  N   UNL     1      51.331  47.417  83.646  0.00  0.00    +0.000 N 
ATOM      5  N   UNL     1      50.486  49.519  84.155  0.00  0.00    +0.000 N 
ATOM      6  C   UNL     1      50.827  47.414  82.337  0.00  0.00    +0.000 C 
ATOM      7  C   UNL     1      51.186  48.415  84.620  0.00  0.00    +0.000 C 
ATOM      8  C   UNL     1      50.135  48.682  81.924  0.00  0.00    +0.000 C 
ATOM      9  C   UNL     1      50.042  49.533  82.890  0.00  0.00    +0.000 C 
ATOM     10  H   UNL     1      51.801  46.575  83.944  0.00  0.00    +0.000 HD
ATOM     11  H   UNL     1      50.322  50.294  84.784  0.00  0.00    +0.000 HD
ENDROOT
TORSDOF 0
ENDMDL
MODEL 5
REMARK VINA RESULT:      -3.6      2.200      3.241
REMARK  Name = 3385_5Fluorouracil.pdbqt.pdb
REMARK  0 active torsions:
REMARK  status: ('A' for Active; 'I' for Inactive)
REMARK                            x       y       z     vdW  Elec       q    Type
REMARK                         _______ _______ _______ _____ _____    ______ ____
ROOT
ATOM      1  F   UNL     1      64.413  35.326  53.784  0.00  0.00    +0.000 F 
ATOM      2  O   UNL     1      63.973  34.131  56.314  0.00  0.00    +0.000 OA
ATOM      3  O   UNL     1      60.941  37.439  57.381  0.00  0.00    +0.000 OA
ATOM      4  N   UNL     1      62.514  35.823  56.866  0.00  0.00    +0.000 N 
ATOM      5  N   UNL     1      62.130  37.593  55.415  0.00  0.00    +0.000 N 
ATOM      6  C   UNL     1      63.466  35.211  56.038  0.00  0.00    +0.000 C 
ATOM      7  C   UNL     1      61.788  36.997  56.619  0.00  0.00    +0.000 C 
ATOM      8  C   UNL     1      63.798  35.974  54.787  0.00  0.00    +0.000 C 
ATOM      9  C   UNL     1      63.071  37.031  54.643  0.00  0.00    +0.000 C 
ATOM     10  H   UNL     1      62.277  35.328  57.713  0.00  0.00    +0.000 HD
ATOM     11  H   UNL     1      61.658  38.446  55.140  0.00  0.00    +0.000 HD
ENDROOT
TORSDOF 0
ENDMDL
MODEL 6
REMARK VINA RESULT:      -3.6      2.606      3.835
REMARK  Name = 3385_5Fluorouracil.pdbqt.pdb
REMARK  0 active torsions:
REMARK  status: ('A' for Active; 'I' for Inactive)
REMARK                            x       y       z     vdW  Elec       q    Type
REMARK                         _______ _______ _______ _____ _____    ______ ____
ROOT
ATOM      1  F   UNL     1      65.050  33.997  54.965  0.00  0.00    +0.000 F 
ATOM      2  O   UNL     1      65.467  36.669  54.122  0.00  0.00    +0.000 OA
ATOM      3  O   UNL     1      62.477  38.168  57.298  0.00  0.00    +0.000 OA
ATOM      4  N   UNL     1      63.922  37.402  55.662  0.00  0.00    +0.000 N 
ATOM      5  N   UNL     1      62.757  35.901  56.996  0.00  0.00    +0.000 N 
ATOM      6  C   UNL     1      64.610  36.404  54.956  0.00  0.00    +0.000 C 
ATOM      7  C   UNL     1      63.001  37.236  56.706  0.00  0.00    +0.000 C 
ATOM      8  C   UNL     1      64.226  34.997  55.315  0.00  0.00    +0.000 C 
ATOM      9  C   UNL     1      63.383  34.948  56.292  0.00  0.00    +0.000 C 
ATOM     10  H   UNL     1      64.164  38.355  55.435  0.00  0.00    +0.000 HD
ATOM     11  H   UNL     1      62.109  35.674  57.739  0.00  0.00    +0.000 HD
ENDROOT
TORSDOF 0
ENDMDL
MODEL 7
REMARK VINA RESULT:      -3.6     52.964     53.087
REMARK  Name = 3385_5Fluorouracil.pdbqt.pdb
REMARK  0 active torsions:
REMARK  status: ('A' for Active; 'I' for Inactive)
REMARK                            x       y       z     vdW  Elec       q    Type
REMARK                         _______ _______ _______ _____ _____    ______ ____
ROOT
ATOM      1  F   UNL     1      76.477  78.180  85.108  0.00  0.00    +0.000 F 
ATOM      2  O   UNL     1      74.281  79.777  85.915  0.00  0.00    +0.000 OA
ATOM      3  O   UNL     1      74.941  82.564  82.300  0.00  0.00    +0.000 OA
ATOM      4  N   UNL     1      74.660  81.202  84.148  0.00  0.00    +0.000 N 
ATOM      5  N   UNL     1      76.454  80.877  82.712  0.00  0.00    +0.000 N 
ATOM      6  C   UNL     1      74.989  80.120  84.976  0.00  0.00    +0.000 C 
ATOM      7  C   UNL     1      75.324  81.631  82.991  0.00  0.00    +0.000 C 
ATOM      8  C   UNL     1      76.262  79.410  84.612  0.00  0.00    +0.000 C 
ATOM      9  C   UNL     1      76.792  79.869  83.528  0.00  0.00    +0.000 C 
ATOM     10  H   UNL     1      73.809  81.694  84.377  0.00  0.00    +0.000 HD
ATOM     11  H   UNL     1      77.002  81.103  81.892  0.00  0.00    +0.000 HD
ENDROOT
TORSDOF 0
ENDMDL
MODEL 8
REMARK VINA RESULT:      -3.6     51.616     51.707
REMARK  Name = 3385_5Fluorouracil.pdbqt.pdb
REMARK  0 active torsions:
REMARK  status: ('A' for Active; 'I' for Inactive)
REMARK                            x       y       z     vdW  Elec       q    Type
REMARK                         _______ _______ _______ _____ _____    ______ ____
ROOT
ATOM      1  F   UNL     1      78.343  77.879  85.493  0.00  0.00    +0.000 F 
ATOM      2  O   UNL     1      77.715  80.474  84.547  0.00  0.00    +0.000 OA
ATOM      3  O   UNL     1      76.792  78.758  80.366  0.00  0.00    +0.000 OA
ATOM      4  N   UNL     1      77.324  79.619  82.446  0.00  0.00    +0.000 N 
ATOM      5  N   UNL     1      77.648  77.367  81.990  0.00  0.00    +0.000 N 
ATOM      6  C   UNL     1      77.754  79.522  83.777  0.00  0.00    +0.000 C 
ATOM      7  C   UNL     1      77.221  78.591  81.499  0.00  0.00    +0.000 C 
ATOM      8  C   UNL     1      78.246  78.161  84.184  0.00  0.00    +0.000 C 
ATOM      9  C   UNL     1      78.099  77.282  83.250  0.00  0.00    +0.000 C 
ATOM     10  H   UNL     1      76.991  80.525  82.151  0.00  0.00    +0.000 HD
ATOM     11  H   UNL     1      77.609  76.556  81.385  0.00  0.00    +0.000 HD
ENDROOT
TORSDOF 0
ENDMDL
MODEL 9
REMARK VINA RESULT:      -3.5      2.183      2.606
REMARK  Name = 3385_5Fluorouracil.pdbqt.pdb
REMARK  0 active torsions:
REMARK  status: ('A' for Active; 'I' for Inactive)
REMARK                            x       y       z     vdW  Elec       q    Type
REMARK                         _______ _______ _______ _____ _____    ______ ____
ROOT
ATOM      1  F   UNL     1      62.873  38.960  52.288  0.00  0.00    +0.000 F 
ATOM      2  O   UNL     1      60.501  39.136  53.826  0.00  0.00    +0.000 OA
ATOM      3  O   UNL     1      62.712  37.411  57.488  0.00  0.00    +0.000 OA
ATOM      4  N   UNL     1      61.593  38.210  55.628  0.00  0.00    +0.000 N 
ATOM      5  N   UNL     1      63.803  37.519  55.462  0.00  0.00    +0.000 N 
ATOM      6  C   UNL     1      61.502  38.599  54.284  0.00  0.00    +0.000 C 
ATOM      7  C   UNL     1      62.707  37.684  56.297  0.00  0.00    +0.000 C 
ATOM      8  C   UNL     1      62.729  38.323  53.462  0.00  0.00    +0.000 C 
ATOM      9  C   UNL     1      63.702  37.852  54.167  0.00  0.00    +0.000 C 
ATOM     10  H   UNL     1      60.779  38.386  56.198  0.00  0.00    +0.000 HD
ATOM     11  H   UNL     1      64.662  37.150  55.850  0.00  0.00    +0.000 HD
ENDROOT
TORSDOF 0
ENDMDL
