MODEL 1
REMARK VINA RESULT:      -6.6      0.000      0.000
REMARK  Name = 342374_SipholenolA.pdbqt.pdb
REMARK  5 active torsions:
REMARK  status: ('A' for Active; 'I' for Inactive)
REMARK    1  A    between atoms: C_3  and  C_20
REMARK    2  A    between atoms: C_4  and  O_16
REMARK    3  A    between atoms: C_13  and  O_18
REMARK    4  A    between atoms: C_21  and  C_25
REMARK    5  A    between atoms: C_26  and  O_36
REMARK                            x       y       z     vdW  Elec       q    Type
REMARK                         _______ _______ _______ _____ _____    ______ ____
ROOT
ATOM      1  O   UNL     1      74.011  52.474  70.359  0.00  0.00    +0.000 OA
ATOM      2  C   UNL     1      73.565  54.345  68.592  0.00  0.00    +0.000 C 
ATOM      3  C   UNL     1      72.628  54.776  67.459  0.00  0.00    +0.000 C 
ATOM      4  C   UNL     1      72.151  53.753  66.443  0.00  0.00    +0.000 C 
ATOM      5  C   UNL     1      73.353  52.886  69.194  0.00  0.00    +0.000 C 
ATOM      6  C   UNL     1      73.346  55.183  69.781  0.00  0.00    +0.000 C 
ATOM      7  C   UNL     1      72.312  52.425  67.003  0.00  0.00    +0.000 C 
ATOM      8  C   UNL     1      72.856  51.921  68.297  0.00  0.00    +0.000 C 
ATOM      9  C   UNL     1      75.039  54.452  68.114  0.00  0.00    +0.000 C 
ATOM     10  C   UNL     1      73.240  55.093  71.283  0.00  0.00    +0.000 C 
ATOM     11  C   UNL     1      73.313  52.570  71.643  0.00  0.00    +0.000 C 
ATOM     12  C   UNL     1      70.693  54.018  66.037  0.00  0.00    +0.000 C 
ATOM     13  C   UNL     1      73.288  54.024  72.203  0.00  0.00    +0.000 C 
ATOM     14  C   UNL     1      71.847  52.053  71.551  0.00  0.00    +0.000 C 
ATOM     15  C   UNL     1      74.108  51.700  72.661  0.00  0.00    +0.000 C 
ENDROOT
BRANCH   4  16
ATOM     16  O   UNL     1      72.902  53.867  65.261  0.00  0.00    +0.000 OA
ATOM     17  H   UNL     1      73.206  52.950  65.138  0.00  0.00    +0.000 HD
ENDBRANCH   4  16
BRANCH  13  18
ATOM     18  O   UNL     1      73.323  54.307  73.565  0.00  0.00    +0.000 OA
ATOM     19  H   UNL     1      73.037  53.536  74.098  0.00  0.00    +0.000 HD
ENDBRANCH  13  18
BRANCH   3  20
ATOM     20  C   UNL     1      72.396  56.177  67.221  0.00  0.00    +0.000 C 
ATOM     21  C   UNL     1      72.164  57.669  66.964  0.00  0.00    +0.000 C 
BRANCH  21  25
ATOM     22  C   UNL     1      73.142  60.909  68.175  0.00  0.00    +0.000 C 
ATOM     23  C   UNL     1      73.096  60.108  66.845  0.00  0.00    +0.000 C 
ATOM     24  C   UNL     1      72.036  61.776  68.704  0.00  0.00    +0.000 C 
ATOM     25  C   UNL     1      71.957  59.068  66.723  0.00  0.00    +0.000 C 
ATOM     26  C   UNL     1      72.503  62.739  69.790  0.00  0.00    +0.000 C 
ATOM     27  C   UNL     1      74.309  61.288  68.903  0.00  0.00    +0.000 C 
ATOM     28  C   UNL     1      73.916  62.383  69.856  0.00  0.00    +0.000 C 
ATOM     29  C   UNL     1      70.749  61.568  68.178  0.00  0.00    +0.000 C 
ATOM     30  C   UNL     1      70.583  59.525  66.508  0.00  0.00    +0.000 C 
ATOM     31  C   UNL     1      74.472  59.357  66.692  0.00  0.00    +0.000 C 
ATOM     32  C   UNL     1      73.016  61.131  65.661  0.00  0.00    +0.000 C 
ATOM     33  C   UNL     1      70.213  60.554  67.202  0.00  0.00    +0.000 C 
ATOM     34  C   UNL     1      71.726  62.571  71.089  0.00  0.00    +0.000 C 
ATOM     35  C   UNL     1      69.494  58.663  65.926  0.00  0.00    +0.000 C 
BRANCH  26  36
ATOM     36  O   UNL     1      72.334  64.067  69.371  0.00  0.00    +0.000 OA
ATOM     37  H   UNL     1      71.655  64.374  69.997  0.00  0.00    +0.000 HD
ENDBRANCH  26  36
ENDBRANCH  21  25
ENDBRANCH   3  20
TORSDOF 5
ENDMDL
MODEL 2
REMARK VINA RESULT:      -6.6     26.735     30.468
REMARK  Name = 342374_SipholenolA.pdbqt.pdb
REMARK  5 active torsions:
REMARK  status: ('A' for Active; 'I' for Inactive)
REMARK    1  A    between atoms: C_3  and  C_20
REMARK    2  A    between atoms: C_4  and  O_16
REMARK    3  A    between atoms: C_13  and  O_18
REMARK    4  A    between atoms: C_21  and  C_25
REMARK    5  A    between atoms: C_26  and  O_36
REMARK                            x       y       z     vdW  Elec       q    Type
REMARK                         _______ _______ _______ _____ _____    ______ ____
ROOT
ATOM      1  O   UNL     1      43.261  42.994  69.573  0.00  0.00    +0.000 OA
ATOM      2  C   UNL     1      45.695  42.804  70.500  0.00  0.00    +0.000 C 
ATOM      3  C   UNL     1      46.550  42.175  71.603  0.00  0.00    +0.000 C 
ATOM      4  C   UNL     1      46.043  42.156  73.035  0.00  0.00    +0.000 C 
ATOM      5  C   UNL     1      44.116  42.641  70.623  0.00  0.00    +0.000 C 
ATOM      6  C   UNL     1      45.954  42.141  69.213  0.00  0.00    +0.000 C 
ATOM      7  C   UNL     1      44.605  42.340  73.024  0.00  0.00    +0.000 C 
ATOM      8  C   UNL     1      43.610  42.561  71.935  0.00  0.00    +0.000 C 
ATOM      9  C   UNL     1      46.010  44.322  70.402  0.00  0.00    +0.000 C 
ATOM     10  C   UNL     1      45.241  41.628  67.986  0.00  0.00    +0.000 C 
ATOM     11  C   UNL     1      42.801  41.955  68.648  0.00  0.00    +0.000 C 
ATOM     12  C   UNL     1      46.437  40.851  73.742  0.00  0.00    +0.000 C 
ATOM     13  C   UNL     1      43.885  41.565  67.599  0.00  0.00    +0.000 C 
ATOM     14  C   UNL     1      42.353  40.665  69.396  0.00  0.00    +0.000 C 
ATOM     15  C   UNL     1      41.593  42.545  67.861  0.00  0.00    +0.000 C 
ENDROOT
BRANCH   4  16
ATOM     16  O   UNL     1      46.651  43.187  73.771  0.00  0.00    +0.000 OA
ATOM     17  H   UNL     1      46.120  43.956  73.497  0.00  0.00    +0.000 HD
ENDBRANCH   4  16
BRANCH  13  18
ATOM     18  O   UNL     1      43.571  41.173  66.302  0.00  0.00    +0.000 OA
ATOM     19  H   UNL     1      44.303  40.662  65.896  0.00  0.00    +0.000 HD
ENDBRANCH  13  18
BRANCH   3  20
ATOM     20  C   UNL     1      47.920  41.822  71.329  0.00  0.00    +0.000 C 
ATOM     21  C   UNL     1      49.379  41.447  71.054  0.00  0.00    +0.000 C 
BRANCH  21  25
ATOM     22  C   UNL     1      51.626  38.643  71.137  0.00  0.00    +0.000 C 
ATOM     23  C   UNL     1      51.155  39.752  70.157  0.00  0.00    +0.000 C 
ATOM     24  C   UNL     1      52.787  38.756  72.082  0.00  0.00    +0.000 C 
ATOM     25  C   UNL     1      50.748  41.097  70.806  0.00  0.00    +0.000 C 
ATOM     26  C   UNL     1      53.259  37.406  72.610  0.00  0.00    +0.000 C 
ATOM     27  C   UNL     1      51.335  37.248  71.051  0.00  0.00    +0.000 C 
ATOM     28  C   UNL     1      52.320  36.523  71.927  0.00  0.00    +0.000 C 
ATOM     29  C   UNL     1      53.247  40.051  72.381  0.00  0.00    +0.000 C 
ATOM     30  C   UNL     1      51.784  41.986  71.331  0.00  0.00    +0.000 C 
ATOM     31  C   UNL     1      49.917  39.191  69.361  0.00  0.00    +0.000 C 
ATOM     32  C   UNL     1      52.290  39.987  69.103  0.00  0.00    +0.000 C 
ATOM     33  C   UNL     1      52.742  41.414  71.989  0.00  0.00    +0.000 C 
ATOM     34  C   UNL     1      53.234  37.335  74.130  0.00  0.00    +0.000 C 
ATOM     35  C   UNL     1      51.589  43.463  71.552  0.00  0.00    +0.000 C 
BRANCH  26  36
ATOM     36  O   UNL     1      54.578  37.156  72.201  0.00  0.00    +0.000 OA
ATOM     37  H   UNL     1      54.863  36.516  72.877  0.00  0.00    +0.000 HD
ENDBRANCH  26  36
ENDBRANCH  21  25
ENDBRANCH   3  20
TORSDOF 5
ENDMDL
MODEL 3
REMARK VINA RESULT:      -6.5     17.055     20.606
REMARK  Name = 342374_SipholenolA.pdbqt.pdb
REMARK  5 active torsions:
REMARK  status: ('A' for Active; 'I' for Inactive)
REMARK    1  A    between atoms: C_3  and  C_20
REMARK    2  A    between atoms: C_4  and  O_16
REMARK    3  A    between atoms: C_13  and  O_18
REMARK    4  A    between atoms: C_21  and  C_25
REMARK    5  A    between atoms: C_26  and  O_36
REMARK                            x       y       z     vdW  Elec       q    Type
REMARK                         _______ _______ _______ _____ _____    ______ ____
ROOT
ATOM      1  O   UNL     1      59.435  66.404  67.820  0.00  0.00    +0.000 OA
ATOM      2  C   UNL     1      56.867  66.102  68.185  0.00  0.00    +0.000 C 
ATOM      3  C   UNL     1      55.749  65.061  68.291  0.00  0.00    +0.000 C 
ATOM      4  C   UNL     1      55.712  63.890  67.324  0.00  0.00    +0.000 C 
ATOM      5  C   UNL     1      58.306  65.580  67.747  0.00  0.00    +0.000 C 
ATOM      6  C   UNL     1      57.157  66.674  69.509  0.00  0.00    +0.000 C 
ATOM      7  C   UNL     1      57.030  63.719  66.744  0.00  0.00    +0.000 C 
ATOM      8  C   UNL     1      58.316  64.459  66.895  0.00  0.00    +0.000 C 
ATOM      9  C   UNL     1      56.443  67.217  67.191  0.00  0.00    +0.000 C 
ATOM     10  C   UNL     1      58.312  67.099  70.382  0.00  0.00    +0.000 C 
ATOM     11  C   UNL     1      60.305  66.320  68.995  0.00  0.00    +0.000 C 
ATOM     12  C   UNL     1      55.237  62.609  68.026  0.00  0.00    +0.000 C 
ATOM     13  C   UNL     1      59.715  67.063  70.231  0.00  0.00    +0.000 C 
ATOM     14  C   UNL     1      60.595  64.844  69.401  0.00  0.00    +0.000 C 
ATOM     15  C   UNL     1      61.641  67.030  68.627  0.00  0.00    +0.000 C 
ENDROOT
BRANCH   4  16
ATOM     16  O   UNL     1      54.772  64.139  66.309  0.00  0.00    +0.000 OA
ATOM     17  H   UNL     1      54.003  63.637  66.634  0.00  0.00    +0.000 HD
ENDBRANCH   4  16
BRANCH  13  18
ATOM     18  O   UNL     1      60.512  67.700  71.177  0.00  0.00    +0.000 OA
ATOM     19  H   UNL     1      61.127  68.337  70.756  0.00  0.00    +0.000 HD
ENDBRANCH  13  18
BRANCH   3  20
ATOM     20  C   UNL     1      54.614  65.317  69.141  0.00  0.00    +0.000 C 
ATOM     21  C   UNL     1      53.399  65.590  70.032  0.00  0.00    +0.000 C 
BRANCH  21  25
ATOM     22  C   UNL     1      52.446  67.222  73.089  0.00  0.00    +0.000 C 
ATOM     23  C   UNL     1      52.046  67.195  71.589  0.00  0.00    +0.000 C 
ATOM     24  C   UNL     1      51.870  66.338  74.157  0.00  0.00    +0.000 C 
ATOM     25  C   UNL     1      52.255  65.847  70.859  0.00  0.00    +0.000 C 
ATOM     26  C   UNL     1      52.141  66.853  75.566  0.00  0.00    +0.000 C 
ATOM     27  C   UNL     1      53.089  68.292  73.781  0.00  0.00    +0.000 C 
ATOM     28  C   UNL     1      52.893  68.063  75.255  0.00  0.00    +0.000 C 
ATOM     29  C   UNL     1      51.213  65.167  73.736  0.00  0.00    +0.000 C 
ATOM     30  C   UNL     1      51.348  64.730  71.132  0.00  0.00    +0.000 C 
ATOM     31  C   UNL     1      52.894  68.296  70.848  0.00  0.00    +0.000 C 
ATOM     32  C   UNL     1      50.547  67.639  71.474  0.00  0.00    +0.000 C 
ATOM     33  C   UNL     1      51.028  64.552  72.375  0.00  0.00    +0.000 C 
ATOM     34  C   UNL     1      52.873  65.833  76.427  0.00  0.00    +0.000 C 
ATOM     35  C   UNL     1      51.145  63.566  70.199  0.00  0.00    +0.000 C 
BRANCH  26  36
ATOM     36  O   UNL     1      50.935  67.158  76.214  0.00  0.00    +0.000 OA
ATOM     37  H   UNL     1      50.535  66.274  76.288  0.00  0.00    +0.000 HD
ENDBRANCH  26  36
ENDBRANCH  21  25
ENDBRANCH   3  20
TORSDOF 5
ENDMDL
MODEL 4
REMARK VINA RESULT:      -5.9     15.241     18.796
REMARK  Name = 342374_SipholenolA.pdbqt.pdb
REMARK  5 active torsions:
REMARK  status: ('A' for Active; 'I' for Inactive)
REMARK    1  A    between atoms: C_3  and  C_20
REMARK    2  A    between atoms: C_4  and  O_16
REMARK    3  A    between atoms: C_13  and  O_18
REMARK    4  A    between atoms: C_21  and  C_25
REMARK    5  A    between atoms: C_26  and  O_36
REMARK                            x       y       z     vdW  Elec       q    Type
REMARK                         _______ _______ _______ _____ _____    ______ ____
ROOT
ATOM      1  O   UNL     1      61.463  67.731  68.903  0.00  0.00    +0.000 OA
ATOM      2  C   UNL     1      59.573  65.952  68.608  0.00  0.00    +0.000 C 
ATOM      3  C   UNL     1      58.063  65.725  68.716  0.00  0.00    +0.000 C 
ATOM      4  C   UNL     1      57.297  66.289  69.901  0.00  0.00    +0.000 C 
ATOM      5  C   UNL     1      60.140  67.341  69.141  0.00  0.00    +0.000 C 
ATOM      6  C   UNL     1      59.983  65.998  67.195  0.00  0.00    +0.000 C 
ATOM      7  C   UNL     1      58.079  67.351  70.502  0.00  0.00    +0.000 C 
ATOM      8  C   UNL     1      59.422  67.926  70.203  0.00  0.00    +0.000 C 
ATOM      9  C   UNL     1      60.323  64.815  69.355  0.00  0.00    +0.000 C 
ATOM     10  C   UNL     1      60.889  66.752  66.254  0.00  0.00    +0.000 C 
ATOM     11  C   UNL     1      61.753  68.612  67.769  0.00  0.00    +0.000 C 
ATOM     12  C   UNL     1      55.908  66.787  69.473  0.00  0.00    +0.000 C 
ATOM     13  C   UNL     1      61.758  67.853  66.408  0.00  0.00    +0.000 C 
ATOM     14  C   UNL     1      60.738  69.790  67.671  0.00  0.00    +0.000 C 
ATOM     15  C   UNL     1      63.187  69.178  67.985  0.00  0.00    +0.000 C 
ENDROOT
BRANCH   4  16
ATOM     16  O   UNL     1      57.064  65.273  70.844  0.00  0.00    +0.000 OA
ATOM     17  H   UNL     1      57.551  64.529  70.448  0.00  0.00    +0.000 HD
ENDBRANCH   4  16
BRANCH  13  18
ATOM     18  O   UNL     1      62.592  68.207  65.352  0.00  0.00    +0.000 OA
ATOM     19  H   UNL     1      63.208  68.925  65.608  0.00  0.00    +0.000 HD
ENDBRANCH  13  18
BRANCH   3  20
ATOM     20  C   UNL     1      57.418  64.789  67.832  0.00  0.00    +0.000 C 
ATOM     21  C   UNL     1      56.742  63.781  66.897  0.00  0.00    +0.000 C 
BRANCH  21  25
ATOM     22  C   UNL     1      55.798  63.315  63.460  0.00  0.00    +0.000 C 
ATOM     23  C   UNL     1      56.603  62.591  64.574  0.00  0.00    +0.000 C 
ATOM     24  C   UNL     1      54.330  63.140  63.198  0.00  0.00    +0.000 C 
ATOM     25  C   UNL     1      56.116  62.831  66.023  0.00  0.00    +0.000 C 
ATOM     26  C   UNL     1      53.907  63.644  61.823  0.00  0.00    +0.000 C 
ATOM     27  C   UNL     1      56.328  63.928  62.286  0.00  0.00    +0.000 C 
ATOM     28  C   UNL     1      55.193  64.111  61.316  0.00  0.00    +0.000 C 
ATOM     29  C   UNL     1      53.553  62.591  64.234  0.00  0.00    +0.000 C 
ATOM     30  C   UNL     1      54.883  62.193  66.485  0.00  0.00    +0.000 C 
ATOM     31  C   UNL     1      58.100  63.069  64.469  0.00  0.00    +0.000 C 
ATOM     32  C   UNL     1      56.605  61.056  64.257  0.00  0.00    +0.000 C 
ATOM     33  C   UNL     1      53.895  62.196  65.646  0.00  0.00    +0.000 C 
ATOM     34  C   UNL     1      52.814  64.700  61.901  0.00  0.00    +0.000 C 
ATOM     35  C   UNL     1      54.549  61.962  67.935  0.00  0.00    +0.000 C 
BRANCH  26  36
ATOM     36  O   UNL     1      53.411  62.585  61.046  0.00  0.00    +0.000 OA
ATOM     37  H   UNL     1      52.694  63.032  60.563  0.00  0.00    +0.000 HD
ENDBRANCH  26  36
ENDBRANCH  21  25
ENDBRANCH   3  20
TORSDOF 5
ENDMDL
MODEL 5
REMARK VINA RESULT:      -5.9     15.646     19.011
REMARK  Name = 342374_SipholenolA.pdbqt.pdb
REMARK  5 active torsions:
REMARK  status: ('A' for Active; 'I' for Inactive)
REMARK    1  A    between atoms: C_3  and  C_20
REMARK    2  A    between atoms: C_4  and  O_16
REMARK    3  A    between atoms: C_13  and  O_18
REMARK    4  A    between atoms: C_21  and  C_25
REMARK    5  A    between atoms: C_26  and  O_36
REMARK                            x       y       z     vdW  Elec       q    Type
REMARK                         _______ _______ _______ _____ _____    ______ ____
ROOT
ATOM      1  O   UNL     1      51.508  61.845  68.535  0.00  0.00    +0.000 OA
ATOM      2  C   UNL     1      53.784  62.407  67.384  0.00  0.00    +0.000 C 
ATOM      3  C   UNL     1      54.456  62.655  66.030  0.00  0.00    +0.000 C 
ATOM      4  C   UNL     1      54.117  61.768  64.845  0.00  0.00    +0.000 C 
ATOM      5  C   UNL     1      52.274  61.904  67.365  0.00  0.00    +0.000 C 
ATOM      6  C   UNL     1      53.658  63.669  68.130  0.00  0.00    +0.000 C 
ATOM      7  C   UNL     1      52.851  61.110  65.099  0.00  0.00    +0.000 C 
ATOM      8  C   UNL     1      51.904  61.124  66.251  0.00  0.00    +0.000 C 
ATOM      9  C   UNL     1      54.618  61.377  68.195  0.00  0.00    +0.000 C 
ATOM     10  C   UNL     1      52.692  64.431  69.003  0.00  0.00    +0.000 C 
ATOM     11  C   UNL     1      50.614  62.960  68.858  0.00  0.00    +0.000 C 
ATOM     12  C   UNL     1      54.076  62.580  63.542  0.00  0.00    +0.000 C 
ATOM     13  C   UNL     1      51.375  64.185  69.448  0.00  0.00    +0.000 C 
ATOM     14  C   UNL     1      49.803  63.436  67.616  0.00  0.00    +0.000 C 
ATOM     15  C   UNL     1      49.633  62.457  69.957  0.00  0.00    +0.000 C 
ENDROOT
BRANCH   4  16
ATOM     16  O   UNL     1      55.127  60.808  64.664  0.00  0.00    +0.000 OA
ATOM     17  H   UNL     1      54.662  59.991  64.920  0.00  0.00    +0.000 HD
ENDBRANCH   4  16
BRANCH  13  18
ATOM     18  O   UNL     1      50.816  65.032  70.399  0.00  0.00    +0.000 OA
ATOM     19  H   UNL     1      50.819  65.964  70.094  0.00  0.00    +0.000 HD
ENDBRANCH  13  18
BRANCH   3  20
ATOM     20  C   UNL     1      55.569  63.565  65.943  0.00  0.00    +0.000 C 
ATOM     21  C   UNL     1      56.761  64.523  65.861  0.00  0.00    +0.000 C 
BRANCH  21  25
ATOM     22  C   UNL     1      59.714  65.480  67.673  0.00  0.00    +0.000 C 
ATOM     23  C   UNL     1      59.300  65.002  66.254  0.00  0.00    +0.000 C 
ATOM     24  C   UNL     1      59.776  66.910  68.124  0.00  0.00    +0.000 C 
ATOM     25  C   UNL     1      57.883  65.415  65.790  0.00  0.00    +0.000 C 
ATOM     26  C   UNL     1      60.588  67.098  69.400  0.00  0.00    +0.000 C 
ATOM     27  C   UNL     1      60.462  64.740  68.637  0.00  0.00    +0.000 C 
ATOM     28  C   UNL     1      60.983  65.717  69.655  0.00  0.00    +0.000 C 
ATOM     29  C   UNL     1      59.068  67.855  67.359  0.00  0.00    +0.000 C 
ATOM     30  C   UNL     1      57.624  66.804  65.410  0.00  0.00    +0.000 C 
ATOM     31  C   UNL     1      59.391  63.430  66.234  0.00  0.00    +0.000 C 
ATOM     32  C   UNL     1      60.370  65.521  65.233  0.00  0.00    +0.000 C 
ATOM     33  C   UNL     1      58.155  67.708  66.171  0.00  0.00    +0.000 C 
ATOM     34  C   UNL     1      59.783  67.763  70.509  0.00  0.00    +0.000 C 
ATOM     35  C   UNL     1      56.479  67.235  64.533  0.00  0.00    +0.000 C 
BRANCH  26  36
ATOM     36  O   UNL     1      61.707  67.908  69.153  0.00  0.00    +0.000 OA
ATOM     37  H   UNL     1      61.303  68.793  69.178  0.00  0.00    +0.000 HD
ENDBRANCH  26  36
ENDBRANCH  21  25
ENDBRANCH   3  20
TORSDOF 5
ENDMDL
MODEL 6
REMARK VINA RESULT:      -5.9     21.674     25.366
REMARK  Name = 342374_SipholenolA.pdbqt.pdb
REMARK  5 active torsions:
REMARK  status: ('A' for Active; 'I' for Inactive)
REMARK    1  A    between atoms: C_3  and  C_20
REMARK    2  A    between atoms: C_4  and  O_16
REMARK    3  A    between atoms: C_13  and  O_18
REMARK    4  A    between atoms: C_21  and  C_25
REMARK    5  A    between atoms: C_26  and  O_36
REMARK                            x       y       z     vdW  Elec       q    Type
REMARK                         _______ _______ _______ _____ _____    ______ ____
ROOT
ATOM      1  O   UNL     1      53.115  68.950  76.105  0.00  0.00    +0.000 OA
ATOM      2  C   UNL     1      53.747  67.469  78.161  0.00  0.00    +0.000 C 
ATOM      3  C   UNL     1      53.966  67.488  79.677  0.00  0.00    +0.000 C 
ATOM      4  C   UNL     1      54.728  68.636  80.316  0.00  0.00    +0.000 C 
ATOM      5  C   UNL     1      53.526  68.871  77.441  0.00  0.00    +0.000 C 
ATOM      6  C   UNL     1      52.491  66.776  77.836  0.00  0.00    +0.000 C 
ATOM      7  C   UNL     1      54.724  69.765  79.406  0.00  0.00    +0.000 C 
ATOM      8  C   UNL     1      54.170  69.973  78.037  0.00  0.00    +0.000 C 
ATOM      9  C   UNL     1      54.950  66.767  77.473  0.00  0.00    +0.000 C 
ATOM     10  C   UNL     1      51.292  66.873  76.924  0.00  0.00    +0.000 C 
ATOM     11  C   UNL     1      51.692  69.129  75.806  0.00  0.00    +0.000 C 
ATOM     12  C   UNL     1      54.122  69.010  81.677  0.00  0.00    +0.000 C 
ATOM     13  C   UNL     1      50.879  67.808  75.951  0.00  0.00    +0.000 C 
ATOM     14  C   UNL     1      51.037  70.212  76.714  0.00  0.00    +0.000 C 
ATOM     15  C   UNL     1      51.590  69.570  74.316  0.00  0.00    +0.000 C 
ENDROOT
BRANCH   4  16
ATOM     16  O   UNL     1      56.050  68.242  80.582  0.00  0.00    +0.000 OA
ATOM     17  H   UNL     1      56.068  68.280  81.555  0.00  0.00    +0.000 HD
ENDBRANCH   4  16
BRANCH  13  18
ATOM     18  O   UNL     1      49.778  67.510  75.154  0.00  0.00    +0.000 OA
ATOM     19  H   UNL     1      49.036  67.156  75.688  0.00  0.00    +0.000 HD
ENDBRANCH  13  18
BRANCH   3  20
ATOM     20  C   UNL     1      53.661  66.316  80.456  0.00  0.00    +0.000 C 
ATOM     21  C   UNL     1      53.340  65.060  81.271  0.00  0.00    +0.000 C 
BRANCH  21  25
ATOM     22  C   UNL     1      54.425  61.664  81.733  0.00  0.00    +0.000 C 
ATOM     23  C   UNL     1      54.143  62.941  82.573  0.00  0.00    +0.000 C 
ATOM     24  C   UNL     1      53.417  60.600  81.408  0.00  0.00    +0.000 C 
ATOM     25  C   UNL     1      53.039  63.877  82.027  0.00  0.00    +0.000 C 
ATOM     26  C   UNL     1      54.056  59.300  80.935  0.00  0.00    +0.000 C 
ATOM     27  C   UNL     1      55.700  61.079  81.472  0.00  0.00    +0.000 C 
ATOM     28  C   UNL     1      55.465  59.669  81.004  0.00  0.00    +0.000 C 
ATOM     29  C   UNL     1      52.058  60.941  81.538  0.00  0.00    +0.000 C 
ATOM     30  C   UNL     1      51.635  63.481  82.140  0.00  0.00    +0.000 C 
ATOM     31  C   UNL     1      55.487  63.758  82.664  0.00  0.00    +0.000 C 
ATOM     32  C   UNL     1      53.795  62.497  84.035  0.00  0.00    +0.000 C 
ATOM     33  C   UNL     1      51.375  62.239  81.879  0.00  0.00    +0.000 C 
ATOM     34  C   UNL     1      53.559  58.874  79.560  0.00  0.00    +0.000 C 
ATOM     35  C   UNL     1      50.483  64.448  82.086  0.00  0.00    +0.000 C 
BRANCH  26  36
ATOM     36  O   UNL     1      53.761  58.257  81.827  0.00  0.00    +0.000 OA
ATOM     37  H   UNL     1      52.845  58.050  81.572  0.00  0.00    +0.000 HD
ENDBRANCH  26  36
ENDBRANCH  21  25
ENDBRANCH   3  20
TORSDOF 5
ENDMDL
MODEL 7
REMARK VINA RESULT:      -5.7     25.853     28.808
REMARK  Name = 342374_SipholenolA.pdbqt.pdb
REMARK  5 active torsions:
REMARK  status: ('A' for Active; 'I' for Inactive)
REMARK    1  A    between atoms: C_3  and  C_20
REMARK    2  A    between atoms: C_4  and  O_16
REMARK    3  A    between atoms: C_13  and  O_18
REMARK    4  A    between atoms: C_21  and  C_25
REMARK    5  A    between atoms: C_26  and  O_36
REMARK                            x       y       z     vdW  Elec       q    Type
REMARK                         _______ _______ _______ _____ _____    ______ ____
ROOT
ATOM      1  O   UNL     1      54.836  69.329  85.440  0.00  0.00    +0.000 OA
ATOM      2  C   UNL     1      56.887  68.770  86.957  0.00  0.00    +0.000 C 
ATOM      3  C   UNL     1      58.191  69.334  87.527  0.00  0.00    +0.000 C 
ATOM      4  C   UNL     1      59.117  70.143  86.636  0.00  0.00    +0.000 C 
ATOM      5  C   UNL     1      56.129  69.651  85.869  0.00  0.00    +0.000 C 
ATOM      6  C   UNL     1      55.867  68.676  88.014  0.00  0.00    +0.000 C 
ATOM      7  C   UNL     1      58.364  70.630  85.497  0.00  0.00    +0.000 C 
ATOM      8  C   UNL     1      56.949  70.461  85.060  0.00  0.00    +0.000 C 
ATOM      9  C   UNL     1      57.154  67.372  86.335  0.00  0.00    +0.000 C 
ATOM     10  C   UNL     1      54.398  68.917  88.259  0.00  0.00    +0.000 C 
ATOM     11  C   UNL     1      53.691  70.000  86.062  0.00  0.00    +0.000 C 
ATOM     12  C   UNL     1      59.763  71.298  87.417  0.00  0.00    +0.000 C 
ATOM     13  C   UNL     1      53.344  69.416  87.464  0.00  0.00    +0.000 C 
ATOM     14  C   UNL     1      53.925  71.533  86.212  0.00  0.00    +0.000 C 
ATOM     15  C   UNL     1      52.459  69.750  85.142  0.00  0.00    +0.000 C 
ENDROOT
BRANCH   4  16
ATOM     16  O   UNL     1      60.182  69.338  86.197  0.00  0.00    +0.000 OA
ATOM     17  H   UNL     1      59.839  69.016  85.344  0.00  0.00    +0.000 HD
ENDBRANCH   4  16
BRANCH  13  18
ATOM     18  O   UNL     1      52.043  69.354  87.952  0.00  0.00    +0.000 OA
ATOM     19  H   UNL     1      52.021  69.008  88.869  0.00  0.00    +0.000 HD
ENDBRANCH  13  18
BRANCH   3  20
ATOM     20  C   UNL     1      58.649  68.901  88.823  0.00  0.00    +0.000 C 
ATOM     21  C   UNL     1      59.143  68.427  90.193  0.00  0.00    +0.000 C 
BRANCH  21  25
ATOM     22  C   UNL     1      60.435  65.510  91.848  0.00  0.00    +0.000 C 
ATOM     23  C   UNL     1      60.802  67.003  91.624  0.00  0.00    +0.000 C 
ATOM     24  C   UNL     1      59.613  64.980  92.987  0.00  0.00    +0.000 C 
ATOM     25  C   UNL     1      59.608  67.976  91.473  0.00  0.00    +0.000 C 
ATOM     26  C   UNL     1      59.757  63.475  93.175  0.00  0.00    +0.000 C 
ATOM     27  C   UNL     1      61.099  64.376  91.294  0.00  0.00    +0.000 C 
ATOM     28  C   UNL     1      60.692  63.172  92.098  0.00  0.00    +0.000 C 
ATOM     29  C   UNL     1      58.811  65.903  93.684  0.00  0.00    +0.000 C 
ATOM     30  C   UNL     1      58.817  68.336  92.650  0.00  0.00    +0.000 C 
ATOM     31  C   UNL     1      61.680  67.088  90.319  0.00  0.00    +0.000 C 
ATOM     32  C   UNL     1      61.721  67.463  92.807  0.00  0.00    +0.000 C 
ATOM     33  C   UNL     1      58.538  67.366  93.463  0.00  0.00    +0.000 C 
ATOM     34  C   UNL     1      58.421  62.749  93.103  0.00  0.00    +0.000 C 
ATOM     35  C   UNL     1      57.964  69.573  92.742  0.00  0.00    +0.000 C 
BRANCH  26  36
ATOM     36  O   UNL     1      60.319  63.191  94.430  0.00  0.00    +0.000 OA
ATOM     37  H   UNL     1      61.248  63.032  94.184  0.00  0.00    +0.000 HD
ENDBRANCH  26  36
ENDBRANCH  21  25
ENDBRANCH   3  20
TORSDOF 5
ENDMDL
MODEL 8
REMARK VINA RESULT:      -5.7     24.270     27.197
REMARK  Name = 342374_SipholenolA.pdbqt.pdb
REMARK  5 active torsions:
REMARK  status: ('A' for Active; 'I' for Inactive)
REMARK    1  A    between atoms: C_3  and  C_20
REMARK    2  A    between atoms: C_4  and  O_16
REMARK    3  A    between atoms: C_13  and  O_18
REMARK    4  A    between atoms: C_21  and  C_25
REMARK    5  A    between atoms: C_26  and  O_36
REMARK                            x       y       z     vdW  Elec       q    Type
REMARK                         _______ _______ _______ _____ _____    ______ ____
ROOT
ATOM      1  O   UNL     1      58.528  68.954  90.443  0.00  0.00    +0.000 OA
ATOM      2  C   UNL     1      57.370  68.340  88.184  0.00  0.00    +0.000 C 
ATOM      3  C   UNL     1      57.606  68.170  86.681  0.00  0.00    +0.000 C 
ATOM      4  C   UNL     1      58.450  69.186  85.930  0.00  0.00    +0.000 C 
ATOM      5  C   UNL     1      58.563  68.950  89.043  0.00  0.00    +0.000 C 
ATOM      6  C   UNL     1      57.195  67.026  88.824  0.00  0.00    +0.000 C 
ATOM      7  C   UNL     1      59.273  69.907  86.881  0.00  0.00    +0.000 C 
ATOM      8  C   UNL     1      59.404  69.853  88.365  0.00  0.00    +0.000 C 
ATOM      9  C   UNL     1      56.116  69.228  88.414  0.00  0.00    +0.000 C 
ATOM     10  C   UNL     1      57.582  66.258  90.063  0.00  0.00    +0.000 C 
ATOM     11  C   UNL     1      59.204  67.881  91.176  0.00  0.00    +0.000 C 
ATOM     12  C   UNL     1      59.305  68.503  84.852  0.00  0.00    +0.000 C 
ATOM     13  C   UNL     1      58.385  66.555  91.185  0.00  0.00    +0.000 C 
ATOM     14  C   UNL     1      60.619  67.581  90.598  0.00  0.00    +0.000 C 
ATOM     15  C   UNL     1      59.335  68.349  92.655  0.00  0.00    +0.000 C 
ENDROOT
BRANCH   4  16
ATOM     16  O   UNL     1      57.616  70.084  85.241  0.00  0.00    +0.000 OA
ATOM     17  H   UNL     1      56.735  69.735  85.465  0.00  0.00    +0.000 HD
ENDBRANCH   4  16
BRANCH  13  18
ATOM     18  O   UNL     1      58.405  65.666  92.255  0.00  0.00    +0.000 OA
ATOM     19  H   UNL     1      57.712  64.979  92.162  0.00  0.00    +0.000 HD
ENDBRANCH  13  18
BRANCH   3  20
ATOM     20  C   UNL     1      56.843  67.195  85.944  0.00  0.00    +0.000 C 
ATOM     21  C   UNL     1      56.046  66.154  85.153  0.00  0.00    +0.000 C 
BRANCH  21  25
ATOM     22  C   UNL     1      52.804  65.576  83.714  0.00  0.00    +0.000 C 
ATOM     23  C   UNL     1      54.300  65.569  83.298  0.00  0.00    +0.000 C 
ATOM     24  C   UNL     1      52.046  64.395  84.249  0.00  0.00    +0.000 C 
ATOM     25  C   UNL     1      55.307  65.177  84.406  0.00  0.00    +0.000 C 
ATOM     26  C   UNL     1      50.535  64.579  84.184  0.00  0.00    +0.000 C 
ATOM     27  C   UNL     1      51.811  66.520  83.313  0.00  0.00    +0.000 C 
ATOM     28  C   UNL     1      50.465  65.910  83.591  0.00  0.00    +0.000 C 
ATOM     29  C   UNL     1      52.803  63.326  84.761  0.00  0.00    +0.000 C 
ATOM     30  C   UNL     1      55.407  63.780  84.829  0.00  0.00    +0.000 C 
ATOM     31  C   UNL     1      54.661  67.016  82.790  0.00  0.00    +0.000 C 
ATOM     32  C   UNL     1      54.461  64.614  82.067  0.00  0.00    +0.000 C 
ATOM     33  C   UNL     1      54.284  63.147  84.962  0.00  0.00    +0.000 C 
ATOM     34  C   UNL     1      49.872  64.435  85.547  0.00  0.00    +0.000 C 
ATOM     35  C   UNL     1      56.608  63.197  85.524  0.00  0.00    +0.000 C 
BRANCH  26  36
ATOM     36  O   UNL     1      49.962  63.617  83.337  0.00  0.00    +0.000 OA
ATOM     37  H   UNL     1      50.582  62.875  83.454  0.00  0.00    +0.000 HD
ENDBRANCH  26  36
ENDBRANCH  21  25
ENDBRANCH   3  20
TORSDOF 5
ENDMDL
MODEL 9
REMARK VINA RESULT:      -5.6     18.035     21.836
REMARK  Name = 342374_SipholenolA.pdbqt.pdb
REMARK  5 active torsions:
REMARK  status: ('A' for Active; 'I' for Inactive)
REMARK    1  A    between atoms: C_3  and  C_20
REMARK    2  A    between atoms: C_4  and  O_16
REMARK    3  A    between atoms: C_13  and  O_18
REMARK    4  A    between atoms: C_21  and  C_25
REMARK    5  A    between atoms: C_26  and  O_36
REMARK                            x       y       z     vdW  Elec       q    Type
REMARK                         _______ _______ _______ _____ _____    ______ ____
ROOT
ATOM      1  O   UNL     1      58.153  67.778  68.309  0.00  0.00    +0.000 OA
ATOM      2  C   UNL     1      55.762  67.730  69.359  0.00  0.00    +0.000 C 
ATOM      3  C   UNL     1      54.495  66.883  69.506  0.00  0.00    +0.000 C 
ATOM      4  C   UNL     1      53.943  66.134  68.306  0.00  0.00    +0.000 C 
ATOM      5  C   UNL     1      56.881  67.195  68.361  0.00  0.00    +0.000 C 
ATOM      6  C   UNL     1      56.502  67.766  70.631  0.00  0.00    +0.000 C 
ATOM      7  C   UNL     1      54.995  65.991  67.319  0.00  0.00    +0.000 C 
ATOM      8  C   UNL     1      56.414  66.446  67.264  0.00  0.00    +0.000 C 
ATOM      9  C   UNL     1      55.376  69.167  68.914  0.00  0.00    +0.000 C 
ATOM     10  C   UNL     1      57.906  67.699  71.180  0.00  0.00    +0.000 C 
ATOM     11  C   UNL     1      59.246  67.174  69.075  0.00  0.00    +0.000 C 
ATOM     12  C   UNL     1      53.374  64.769  68.722  0.00  0.00    +0.000 C 
ATOM     13  C   UNL     1      59.177  67.522  70.593  0.00  0.00    +0.000 C 
ATOM     14  C   UNL     1      59.275  65.624  68.927  0.00  0.00    +0.000 C 
ATOM     15  C   UNL     1      60.574  67.773  68.527  0.00  0.00    +0.000 C 
ENDROOT
BRANCH   4  16
ATOM     16  O   UNL     1      52.863  66.845  67.754  0.00  0.00    +0.000 OA
ATOM     17  H   UNL     1      52.836  66.481  66.851  0.00  0.00    +0.000 HD
ENDBRANCH   4  16
BRANCH  13  18
ATOM     18  O   UNL     1      60.312  67.676  71.382  0.00  0.00    +0.000 OA
ATOM     19  H   UNL     1      60.798  68.497  71.153  0.00  0.00    +0.000 HD
ENDBRANCH  13  18
BRANCH   3  20
ATOM     20  C   UNL     1      53.704  66.986  70.706  0.00  0.00    +0.000 C 
ATOM     21  C   UNL     1      52.858  67.112  71.976  0.00  0.00    +0.000 C 
BRANCH  21  25
ATOM     22  C   UNL     1      52.884  68.643  75.228  0.00  0.00    +0.000 C 
ATOM     23  C   UNL     1      51.980  68.558  73.968  0.00  0.00    +0.000 C 
ATOM     24  C   UNL     1      52.832  67.705  76.399  0.00  0.00    +0.000 C 
ATOM     25  C   UNL     1      52.064  67.239  73.165  0.00  0.00    +0.000 C 
ATOM     26  C   UNL     1      53.529  68.258  77.636  0.00  0.00    +0.000 C 
ATOM     27  C   UNL     1      53.608  69.786  75.683  0.00  0.00    +0.000 C 
ATOM     28  C   UNL     1      53.979  69.546  77.121  0.00  0.00    +0.000 C 
ATOM     29  C   UNL     1      52.204  66.462  76.198  0.00  0.00    +0.000 C 
ATOM     30  C   UNL     1      51.447  66.026  73.703  0.00  0.00    +0.000 C 
ATOM     31  C   UNL     1      52.378  69.746  73.014  0.00  0.00    +0.000 C 
ATOM     32  C   UNL     1      50.500  68.823  74.411  0.00  0.00    +0.000 C 
ATOM     33  C   UNL     1      51.614  65.820  74.971  0.00  0.00    +0.000 C 
ATOM     34  C   UNL     1      54.630  67.337  78.144  0.00  0.00    +0.000 C 
ATOM     35  C   UNL     1      51.055  64.839  72.862  0.00  0.00    +0.000 C 
BRANCH  26  36
ATOM     36  O   UNL     1      52.608  68.424  78.682  0.00  0.00    +0.000 OA
ATOM     37  H   UNL     1      52.739  69.365  78.896  0.00  0.00    +0.000 HD
ENDBRANCH  26  36
ENDBRANCH  21  25
ENDBRANCH   3  20
TORSDOF 5
ENDMDL
