MODEL 1
REMARK VINA RESULT:      -4.2      0.000      0.000
REMARK  Name = 43806_Diaminocyclohexane.pdbqt.pdb
REMARK  2 active torsions:
REMARK  status: ('A' for Active; 'I' for Inactive)
REMARK    1  A    between atoms: C_1  and  N_7
REMARK    2  A    between atoms: C_2  and  N_10
REMARK                            x       y       z     vdW  Elec       q    Type
REMARK                         _______ _______ _______ _____ _____    ______ ____
ROOT
ATOM      1  C   UNL     1      60.917  38.210  56.112  0.00  0.00    +0.000 A 
ATOM      2  C   UNL     1      62.049  37.257  56.124  0.00  0.00    +0.000 A 
ATOM      3  C   UNL     1      60.748  38.942  54.892  0.00  0.00    +0.000 A 
ATOM      4  C   UNL     1      62.793  37.181  54.901  0.00  0.00    +0.000 A 
ATOM      5  C   UNL     1      61.508  38.920  53.555  0.00  0.00    +0.000 A 
ATOM      6  C   UNL     1      62.666  37.920  53.560  0.00  0.00    +0.000 A 
ENDROOT
BRANCH   1   7
ATOM      7  N   UNL     1      60.014  38.337  57.193  0.00  0.00    +0.000 N 
ATOM      8  H   UNL     1      59.826  37.460  57.670  0.00  0.00    +0.000 HD
ATOM      9  H   UNL     1      59.164  38.848  56.975  0.00  0.00    +0.000 HD
ENDBRANCH   1   7
BRANCH   2  10
ATOM     10  N   UNL     1      62.425  36.531  57.278  0.00  0.00    +0.000 N 
ATOM     11  H   UNL     1      63.415  36.595  57.493  0.00  0.00    +0.000 HD
ATOM     12  H   UNL     1      62.086  35.575  57.303  0.00  0.00    +0.000 HD
ENDBRANCH   2  10
TORSDOF 2
ENDMDL
MODEL 2
REMARK VINA RESULT:      -3.6      1.380      2.220
REMARK  Name = 43806_Diaminocyclohexane.pdbqt.pdb
REMARK  2 active torsions:
REMARK  status: ('A' for Active; 'I' for Inactive)
REMARK    1  A    between atoms: C_1  and  N_7
REMARK    2  A    between atoms: C_2  and  N_10
REMARK                            x       y       z     vdW  Elec       q    Type
REMARK                         _______ _______ _______ _____ _____    ______ ____
ROOT
ATOM      1  C   UNL     1      61.574  38.102  55.160  0.00  0.00    +0.000 A 
ATOM      2  C   UNL     1      61.623  37.332  56.422  0.00  0.00    +0.000 A 
ATOM      3  C   UNL     1      62.626  37.818  54.231  0.00  0.00    +0.000 A 
ATOM      4  C   UNL     1      62.698  36.389  56.519  0.00  0.00    +0.000 A 
ATOM      5  C   UNL     1      63.809  36.836  54.270  0.00  0.00    +0.000 A 
ATOM      6  C   UNL     1      63.848  36.024  55.566  0.00  0.00    +0.000 A 
ENDROOT
BRANCH   1   7
ATOM      7  N   UNL     1      60.523  38.998  54.852  0.00  0.00    +0.000 N 
ATOM      8  H   UNL     1      60.504  39.280  53.877  0.00  0.00    +0.000 HD
ATOM      9  H   UNL     1      60.444  39.788  55.485  0.00  0.00    +0.000 HD
ENDBRANCH   1   7
BRANCH   2  10
ATOM     10  N   UNL     1      60.727  37.560  57.493  0.00  0.00    +0.000 N 
ATOM     11  H   UNL     1      61.190  37.743  58.378  0.00  0.00    +0.000 HD
ATOM     12  H   UNL     1      59.990  36.868  57.579  0.00  0.00    +0.000 HD
ENDBRANCH   2  10
TORSDOF 2
ENDMDL
MODEL 3
REMARK VINA RESULT:      -3.5     10.195     10.543
REMARK  Name = 43806_Diaminocyclohexane.pdbqt.pdb
REMARK  2 active torsions:
REMARK  status: ('A' for Active; 'I' for Inactive)
REMARK    1  A    between atoms: C_1  and  N_7
REMARK    2  A    between atoms: C_2  and  N_10
REMARK                            x       y       z     vdW  Elec       q    Type
REMARK                         _______ _______ _______ _____ _____    ______ ____
ROOT
ATOM      1  C   UNL     1      52.015  35.547  57.163  0.00  0.00    +0.000 A 
ATOM      2  C   UNL     1      52.172  36.227  58.468  0.00  0.00    +0.000 A 
ATOM      3  C   UNL     1      52.323  34.148  57.163  0.00  0.00    +0.000 A 
ATOM      4  C   UNL     1      52.577  35.381  59.551  0.00  0.00    +0.000 A 
ATOM      5  C   UNL     1      52.770  33.184  58.275  0.00  0.00    +0.000 A 
ATOM      6  C   UNL     1      52.911  33.883  59.629  0.00  0.00    +0.000 A 
ENDROOT
BRANCH   1   7
ATOM      7  N   UNL     1      51.522  36.206  56.012  0.00  0.00    +0.000 N 
ATOM      8  H   UNL     1      51.191  37.148  56.196  0.00  0.00    +0.000 HD
ATOM      9  H   UNL     1      50.860  35.663  55.467  0.00  0.00    +0.000 HD
ENDBRANCH   1   7
BRANCH   2  10
ATOM     10  N   UNL     1      52.012  37.624  58.626  0.00  0.00    +0.000 N 
ATOM     11  H   UNL     1      51.533  37.883  59.483  0.00  0.00    +0.000 HD
ATOM     12  H   UNL     1      51.634  38.100  57.814  0.00  0.00    +0.000 HD
ENDBRANCH   2  10
TORSDOF 2
ENDMDL
MODEL 4
REMARK VINA RESULT:      -3.3     15.927     17.175
REMARK  Name = 43806_Diaminocyclohexane.pdbqt.pdb
REMARK  2 active torsions:
REMARK  status: ('A' for Active; 'I' for Inactive)
REMARK    1  A    between atoms: C_1  and  N_7
REMARK    2  A    between atoms: C_2  and  N_10
REMARK                            x       y       z     vdW  Elec       q    Type
REMARK                         _______ _______ _______ _____ _____    ______ ____
ROOT
ATOM      1  C   UNL     1      46.237  46.675  57.287  0.00  0.00    +0.000 A 
ATOM      2  C   UNL     1      47.316  45.917  56.617  0.00  0.00    +0.000 A 
ATOM      3  C   UNL     1      46.519  48.060  57.521  0.00  0.00    +0.000 A 
ATOM      4  C   UNL     1      48.475  46.685  56.268  0.00  0.00    +0.000 A 
ATOM      5  C   UNL     1      47.733  48.943  57.188  0.00  0.00    +0.000 A 
ATOM      6  C   UNL     1      48.841  48.163  56.476  0.00  0.00    +0.000 A 
ENDROOT
BRANCH   1   7
ATOM      7  N   UNL     1      44.983  46.101  57.605  0.00  0.00    +0.000 N 
ATOM      8  H   UNL     1      44.198  46.584  57.182  0.00  0.00    +0.000 HD
ATOM      9  H   UNL     1      44.841  45.924  58.595  0.00  0.00    +0.000 HD
ENDBRANCH   1   7
BRANCH   2  10
ATOM     10  N   UNL     1      47.250  44.520  56.403  0.00  0.00    +0.000 N 
ATOM     11  H   UNL     1      48.160  44.072  56.364  0.00  0.00    +0.000 HD
ATOM     12  H   UNL     1      46.649  44.239  55.636  0.00  0.00    +0.000 HD
ENDBRANCH   2  10
TORSDOF 2
ENDMDL
MODEL 5
REMARK VINA RESULT:      -3.3     24.962     25.112
REMARK  Name = 43806_Diaminocyclohexane.pdbqt.pdb
REMARK  2 active torsions:
REMARK  status: ('A' for Active; 'I' for Inactive)
REMARK    1  A    between atoms: C_1  and  N_7
REMARK    2  A    between atoms: C_2  and  N_10
REMARK                            x       y       z     vdW  Elec       q    Type
REMARK                         _______ _______ _______ _____ _____    ______ ____
ROOT
ATOM      1  C   UNL     1      68.079  48.079  77.672  0.00  0.00    +0.000 A 
ATOM      2  C   UNL     1      68.689  46.761  77.955  0.00  0.00    +0.000 A 
ATOM      3  C   UNL     1      68.855  48.945  76.837  0.00  0.00    +0.000 A 
ATOM      4  C   UNL     1      69.955  46.529  77.324  0.00  0.00    +0.000 A 
ATOM      5  C   UNL     1      70.214  48.769  76.138  0.00  0.00    +0.000 A 
ATOM      6  C   UNL     1      70.835  47.398  76.413  0.00  0.00    +0.000 A 
ENDROOT
BRANCH   1   7
ATOM      7  N   UNL     1      66.786  48.436  78.126  0.00  0.00    +0.000 N 
ATOM      8  H   UNL     1      66.507  47.951  78.973  0.00  0.00    +0.000 HD
ATOM      9  H   UNL     1      66.067  48.410  77.410  0.00  0.00    +0.000 HD
ENDBRANCH   1   7
BRANCH   2  10
ATOM     10  N   UNL     1      68.111  45.825  78.844  0.00  0.00    +0.000 N 
ATOM     11  H   UNL     1      67.601  45.083  78.376  0.00  0.00    +0.000 HD
ATOM     12  H   UNL     1      67.580  46.238  79.604  0.00  0.00    +0.000 HD
ENDBRANCH   2  10
TORSDOF 2
ENDMDL
MODEL 6
REMARK VINA RESULT:      -3.1     50.284     50.692
REMARK  Name = 43806_Diaminocyclohexane.pdbqt.pdb
REMARK  2 active torsions:
REMARK  status: ('A' for Active; 'I' for Inactive)
REMARK    1  A    between atoms: C_1  and  N_7
REMARK    2  A    between atoms: C_2  and  N_10
REMARK                            x       y       z     vdW  Elec       q    Type
REMARK                         _______ _______ _______ _____ _____    ______ ____
ROOT
ATOM      1  C   UNL     1      76.972  79.881  81.171  0.00  0.00    +0.000 A 
ATOM      2  C   UNL     1      77.152  78.514  80.635  0.00  0.00    +0.000 A 
ATOM      3  C   UNL     1      76.431  80.832  80.247  0.00  0.00    +0.000 A 
ATOM      4  C   UNL     1      76.728  78.330  79.279  0.00  0.00    +0.000 A 
ATOM      5  C   UNL     1      75.967  80.711  78.786  0.00  0.00    +0.000 A 
ATOM      6  C   UNL     1      76.133  79.293  78.238  0.00  0.00    +0.000 A 
ENDROOT
BRANCH   1   7
ATOM      7  N   UNL     1      77.238  80.214  82.521  0.00  0.00    +0.000 N 
ATOM      8  H   UNL     1      77.848  81.018  82.626  0.00  0.00    +0.000 HD
ATOM      9  H   UNL     1      77.528  79.431  83.098  0.00  0.00    +0.000 HD
ENDBRANCH   1   7
BRANCH   2  10
ATOM     10  N   UNL     1      77.770  77.477  81.375  0.00  0.00    +0.000 N 
ATOM     11  H   UNL     1      77.323  76.574  81.257  0.00  0.00    +0.000 HD
ATOM     12  H   UNL     1      77.941  77.700  82.350  0.00  0.00    +0.000 HD
ENDBRANCH   2  10
TORSDOF 2
ENDMDL
MODEL 7
REMARK VINA RESULT:      -3.1     52.715     53.245
REMARK  Name = 43806_Diaminocyclohexane.pdbqt.pdb
REMARK  2 active torsions:
REMARK  status: ('A' for Active; 'I' for Inactive)
REMARK    1  A    between atoms: C_1  and  N_7
REMARK    2  A    between atoms: C_2  and  N_10
REMARK                            x       y       z     vdW  Elec       q    Type
REMARK                         _______ _______ _______ _____ _____    ______ ____
ROOT
ATOM      1  C   UNL     1      76.263  80.314  83.691  0.00  0.00    +0.000 A 
ATOM      2  C   UNL     1      75.832  79.374  84.748  0.00  0.00    +0.000 A 
ATOM      3  C   UNL     1      75.490  81.516  83.591  0.00  0.00    +0.000 A 
ATOM      4  C   UNL     1      74.723  79.815  85.541  0.00  0.00    +0.000 A 
ATOM      5  C   UNL     1      74.290  82.048  84.392  0.00  0.00    +0.000 A 
ATOM      6  C   UNL     1      73.857  81.085  85.499  0.00  0.00    +0.000 A 
ENDROOT
BRANCH   1   7
ATOM      7  N   UNL     1      77.405  80.088  82.886  0.00  0.00    +0.000 N 
ATOM      8  H   UNL     1      78.280  80.282  83.361  0.00  0.00    +0.000 HD
ATOM      9  H   UNL     1      77.361  80.514  81.965  0.00  0.00    +0.000 HD
ENDBRANCH   1   7
BRANCH   2  10
ATOM     10  N   UNL     1      76.415  78.096  84.919  0.00  0.00    +0.000 N 
ATOM     11  H   UNL     1      75.824  77.335  84.599  0.00  0.00    +0.000 HD
ATOM     12  H   UNL     1      76.794  77.927  85.845  0.00  0.00    +0.000 HD
ENDBRANCH   2  10
TORSDOF 2
ENDMDL
MODEL 8
REMARK VINA RESULT:      -3.1     31.772     32.701
REMARK  Name = 43806_Diaminocyclohexane.pdbqt.pdb
REMARK  2 active torsions:
REMARK  status: ('A' for Active; 'I' for Inactive)
REMARK    1  A    between atoms: C_1  and  N_7
REMARK    2  A    between atoms: C_2  and  N_10
REMARK                            x       y       z     vdW  Elec       q    Type
REMARK                         _______ _______ _______ _____ _____    ______ ____
ROOT
ATOM      1  C   UNL     1      59.415  66.354  69.638  0.00  0.00    +0.000 A 
ATOM      2  C   UNL     1      59.318  67.501  70.567  0.00  0.00    +0.000 A 
ATOM      3  C   UNL     1      58.247  65.528  69.563  0.00  0.00    +0.000 A 
ATOM      4  C   UNL     1      58.057  67.640  71.234  0.00  0.00    +0.000 A 
ATOM      5  C   UNL     1      56.874  65.608  70.251  0.00  0.00    +0.000 A 
ATOM      6  C   UNL     1      56.766  66.807  71.196  0.00  0.00    +0.000 A 
ENDROOT
BRANCH   1   7
ATOM      7  N   UNL     1      60.547  66.127  68.819  0.00  0.00    +0.000 N 
ATOM      8  H   UNL     1      61.093  65.318  69.098  0.00  0.00    +0.000 HD
ATOM      9  H   UNL     1      61.124  66.948  68.662  0.00  0.00    +0.000 HD
ENDBRANCH   1   7
BRANCH   2  10
ATOM     10  N   UNL     1      60.411  68.356  70.843  0.00  0.00    +0.000 N 
ATOM     11  H   UNL     1      60.447  68.668  71.808  0.00  0.00    +0.000 HD
ATOM     12  H   UNL     1      60.524  69.121  70.186  0.00  0.00    +0.000 HD
ENDBRANCH   2  10
TORSDOF 2
ENDMDL
MODEL 9
REMARK VINA RESULT:      -3.1     25.261     26.478
REMARK  Name = 43806_Diaminocyclohexane.pdbqt.pdb
REMARK  2 active torsions:
REMARK  status: ('A' for Active; 'I' for Inactive)
REMARK    1  A    between atoms: C_1  and  N_7
REMARK    2  A    between atoms: C_2  and  N_10
REMARK                            x       y       z     vdW  Elec       q    Type
REMARK                         _______ _______ _______ _____ _____    ______ ____
ROOT
ATOM      1  C   UNL     1      58.062  39.829  80.372  0.00  0.00    +0.000 A 
ATOM      2  C   UNL     1      57.257  40.870  81.048  0.00  0.00    +0.000 A 
ATOM      3  C   UNL     1      58.910  39.059  81.232  0.00  0.00    +0.000 A 
ATOM      4  C   UNL     1      57.417  40.935  82.471  0.00  0.00    +0.000 A 
ATOM      5  C   UNL     1      59.140  39.079  82.752  0.00  0.00    +0.000 A 
ATOM      6  C   UNL     1      58.291  40.141  83.454  0.00  0.00    +0.000 A 
ENDROOT
BRANCH   1   7
ATOM      7  N   UNL     1      57.950  39.555  78.988  0.00  0.00    +0.000 N 
ATOM      8  H   UNL     1      57.086  39.085  78.737  0.00  0.00    +0.000 HD
ATOM      9  H   UNL     1      58.765  39.110  78.579  0.00  0.00    +0.000 HD
ENDBRANCH   1   7
BRANCH   2  10
ATOM     10  N   UNL     1      56.447  41.790  80.341  0.00  0.00    +0.000 N 
ATOM     11  H   UNL     1      56.829  42.058  79.440  0.00  0.00    +0.000 HD
ATOM     12  H   UNL     1      56.146  42.591  80.886  0.00  0.00    +0.000 HD
ENDBRANCH   2  10
TORSDOF 2
ENDMDL
