MODEL 1
REMARK VINA RESULT:      -7.4      0.000      0.000
REMARK  Name = 44234954_SipholenolL.pdbqt.pdb
REMARK  5 active torsions:
REMARK  status: ('A' for Active; 'I' for Inactive)
REMARK    1  A    between atoms: C_3  and  C_20
REMARK    2  A    between atoms: C_4  and  O_16
REMARK    3  A    between atoms: C_13  and  O_18
REMARK    4  A    between atoms: C_21  and  C_25
REMARK    5  A    between atoms: C_26  and  O_36
REMARK                            x       y       z     vdW  Elec       q    Type
REMARK                         _______ _______ _______ _____ _____    ______ ____
ROOT
ATOM      1  O   UNL     1      54.076  61.583  81.328  0.00  0.00    +0.000 OA
ATOM      2  C   UNL     1      52.855  59.325  80.880  0.00  0.00    +0.000 C 
ATOM      3  C   UNL     1      51.476  58.661  80.866  0.00  0.00    +0.000 C 
ATOM      4  C   UNL     1      50.316  59.362  80.183  0.00  0.00    +0.000 C 
ATOM      5  C   UNL     1      52.878  60.902  81.093  0.00  0.00    +0.000 C 
ATOM      6  C   UNL     1      53.647  58.875  82.035  0.00  0.00    +0.000 C 
ATOM      7  C   UNL     1      50.582  60.788  80.168  0.00  0.00    +0.000 C 
ATOM      8  C   UNL     1      51.762  61.601  80.589  0.00  0.00    +0.000 C 
ATOM      9  C   UNL     1      53.607  58.999  79.563  0.00  0.00    +0.000 C 
ATOM     10  C   UNL     1      54.561  59.409  83.110  0.00  0.00    +0.000 C 
ATOM     11  C   UNL     1      54.458  61.931  82.708  0.00  0.00    +0.000 C 
ATOM     12  C   UNL     1      50.014  58.767  78.811  0.00  0.00    +0.000 C 
ATOM     13  C   UNL     1      55.010  60.694  83.492  0.00  0.00    +0.000 C 
ATOM     14  C   UNL     1      55.588  62.988  82.574  0.00  0.00    +0.000 C 
ATOM     15  C   UNL     1      53.245  62.521  83.493  0.00  0.00    +0.000 C 
ENDROOT
BRANCH   4  16
ATOM     16  O   UNL     1      49.144  59.143  80.941  0.00  0.00    +0.000 OA
ATOM     17  H   UNL     1      48.859  60.061  81.106  0.00  0.00    +0.000 HD
ENDBRANCH   4  16
BRANCH  13  18
ATOM     18  O   UNL     1      55.735  60.832  84.669  0.00  0.00    +0.000 OA
ATOM     19  H   UNL     1      56.276  60.047  84.867  0.00  0.00    +0.000 HD
ENDBRANCH  13  18
BRANCH   3  20
ATOM     20  C   UNL     1      51.281  57.356  81.436  0.00  0.00    +0.000 C 
ATOM     21  C   UNL     1      51.102  55.954  82.027  0.00  0.00    +0.000 C 
BRANCH  21  25
ATOM     22  C   UNL     1      49.807  53.725  82.157  0.00  0.00    +0.000 A 
ATOM     23  C   UNL     1      49.717  52.264  82.748  0.00  0.00    +0.000 A 
ATOM     24  C   UNL     1      48.707  54.293  81.168  0.00  0.00    +0.000 C 
ATOM     25  C   UNL     1      50.983  54.637  82.568  0.00  0.00    +0.000 A 
ATOM     26  C   UNL     1      48.651  51.182  82.458  0.00  0.00    +0.000 C 
ATOM     27  C   UNL     1      47.736  53.205  81.016  0.00  0.00    +0.000 C 
ATOM     28  C   UNL     1      47.682  51.811  81.582  0.00  0.00    +0.000 C 
ATOM     29  C   UNL     1      50.774  52.034  83.676  0.00  0.00    +0.000 A 
ATOM     30  C   UNL     1      52.030  54.216  83.541  0.00  0.00    +0.000 A 
ATOM     31  C   UNL     1      49.350  54.599  79.794  0.00  0.00    +0.000 C 
ATOM     32  C   UNL     1      48.006  55.513  81.802  0.00  0.00    +0.000 C 
ATOM     33  C   UNL     1      51.856  53.020  84.005  0.00  0.00    +0.000 A 
ATOM     34  C   UNL     1      49.281  49.929  81.864  0.00  0.00    +0.000 C 
ATOM     35  C   UNL     1      53.273  54.982  83.891  0.00  0.00    +0.000 C 
BRANCH  26  36
ATOM     36  O   UNL     1      48.028  50.802  83.658  0.00  0.00    +0.000 OA
ATOM     37  H   UNL     1      47.856  51.673  84.061  0.00  0.00    +0.000 HD
ENDBRANCH  26  36
ENDBRANCH  21  25
ENDBRANCH   3  20
TORSDOF 5
ENDMDL
MODEL 2
REMARK VINA RESULT:      -7.4      2.363      4.537
REMARK  Name = 44234954_SipholenolL.pdbqt.pdb
REMARK  5 active torsions:
REMARK  status: ('A' for Active; 'I' for Inactive)
REMARK    1  A    between atoms: C_3  and  C_20
REMARK    2  A    between atoms: C_4  and  O_16
REMARK    3  A    between atoms: C_13  and  O_18
REMARK    4  A    between atoms: C_21  and  C_25
REMARK    5  A    between atoms: C_26  and  O_36
REMARK                            x       y       z     vdW  Elec       q    Type
REMARK                         _______ _______ _______ _____ _____    ______ ____
ROOT
ATOM      1  O   UNL     1      54.848  59.244  82.646  0.00  0.00    +0.000 OA
ATOM      2  C   UNL     1      52.990  57.517  83.243  0.00  0.00    +0.000 C 
ATOM      3  C   UNL     1      52.754  56.045  83.589  0.00  0.00    +0.000 C 
ATOM      4  C   UNL     1      53.640  55.367  84.619  0.00  0.00    +0.000 C 
ATOM      5  C   UNL     1      54.509  57.986  83.153  0.00  0.00    +0.000 C 
ATOM      6  C   UNL     1      52.522  57.822  81.883  0.00  0.00    +0.000 C 
ATOM      7  C   UNL     1      54.910  56.067  84.667  0.00  0.00    +0.000 C 
ATOM      8  C   UNL     1      55.408  57.305  83.998  0.00  0.00    +0.000 C 
ATOM      9  C   UNL     1      52.260  58.421  84.271  0.00  0.00    +0.000 C 
ATOM     10  C   UNL     1      52.935  58.571  80.640  0.00  0.00    +0.000 C 
ATOM     11  C   UNL     1      55.286  59.372  81.245  0.00  0.00    +0.000 C 
ATOM     12  C   UNL     1      52.947  55.232  85.971  0.00  0.00    +0.000 C 
ATOM     13  C   UNL     1      54.082  59.298  80.247  0.00  0.00    +0.000 C 
ATOM     14  C   UNL     1      55.942  60.776  81.139  0.00  0.00    +0.000 C 
ATOM     15  C   UNL     1      56.313  58.257  80.875  0.00  0.00    +0.000 C 
ENDROOT
BRANCH   4  16
ATOM     16  O   UNL     1      53.886  54.040  84.202  0.00  0.00    +0.000 OA
ATOM     17  H   UNL     1      53.793  53.563  85.048  0.00  0.00    +0.000 HD
ENDBRANCH   4  16
BRANCH  13  18
ATOM     18  O   UNL     1      54.193  59.722  78.929  0.00  0.00    +0.000 OA
ATOM     19  H   UNL     1      54.233  60.692  78.853  0.00  0.00    +0.000 HD
ENDBRANCH  13  18
BRANCH   3  20
ATOM     20  C   UNL     1      51.666  55.315  82.998  0.00  0.00    +0.000 C 
ATOM     21  C   UNL     1      50.508  54.514  82.395  0.00  0.00    +0.000 C 
BRANCH  21  25
ATOM     22  C   UNL     1      48.391  54.390  80.923  0.00  0.00    +0.000 A 
ATOM     23  C   UNL     1      47.215  53.510  80.344  0.00  0.00    +0.000 A 
ATOM     24  C   UNL     1      48.534  55.927  80.567  0.00  0.00    +0.000 C 
ATOM     25  C   UNL     1      49.419  53.746  81.878  0.00  0.00    +0.000 A 
ATOM     26  C   UNL     1      46.100  53.936  79.362  0.00  0.00    +0.000 C 
ATOM     27  C   UNL     1      47.401  56.219  79.684  0.00  0.00    +0.000 C 
ATOM     28  C   UNL     1      46.298  55.354  79.134  0.00  0.00    +0.000 C 
ATOM     29  C   UNL     1      47.263  52.192  80.886  0.00  0.00    +0.000 A 
ATOM     30  C   UNL     1      49.332  52.326  82.321  0.00  0.00    +0.000 A 
ATOM     31  C   UNL     1      49.856  56.164  79.798  0.00  0.00    +0.000 C 
ATOM     32  C   UNL     1      48.410  56.779  81.849  0.00  0.00    +0.000 C 
ATOM     33  C   UNL     1      48.315  51.692  81.831  0.00  0.00    +0.000 A 
ATOM     34  C   UNL     1      46.138  53.107  78.086  0.00  0.00    +0.000 C 
ATOM     35  C   UNL     1      50.354  51.587  83.134  0.00  0.00    +0.000 C 
BRANCH  26  36
ATOM     36  O   UNL     1      44.845  53.724  79.955  0.00  0.00    +0.000 OA
ATOM     37  H   UNL     1      44.263  53.754  79.173  0.00  0.00    +0.000 HD
ENDBRANCH  26  36
ENDBRANCH  21  25
ENDBRANCH   3  20
TORSDOF 5
ENDMDL
MODEL 3
REMARK VINA RESULT:      -6.7     23.854     26.560
REMARK  Name = 44234954_SipholenolL.pdbqt.pdb
REMARK  5 active torsions:
REMARK  status: ('A' for Active; 'I' for Inactive)
REMARK    1  A    between atoms: C_3  and  C_20
REMARK    2  A    between atoms: C_4  and  O_16
REMARK    3  A    between atoms: C_13  and  O_18
REMARK    4  A    between atoms: C_21  and  C_25
REMARK    5  A    between atoms: C_26  and  O_36
REMARK                            x       y       z     vdW  Elec       q    Type
REMARK                         _______ _______ _______ _____ _____    ______ ____
ROOT
ATOM      1  O   UNL     1      61.144  59.113  57.741  0.00  0.00    +0.000 OA
ATOM      2  C   UNL     1      61.214  56.625  58.512  0.00  0.00    +0.000 C 
ATOM      3  C   UNL     1      61.406  55.728  59.737  0.00  0.00    +0.000 C 
ATOM      4  C   UNL     1      60.663  56.048  61.022  0.00  0.00    +0.000 C 
ATOM      5  C   UNL     1      61.112  58.189  58.790  0.00  0.00    +0.000 C 
ATOM      6  C   UNL     1      62.391  56.574  57.630  0.00  0.00    +0.000 C 
ATOM      7  C   UNL     1      60.354  57.466  61.035  0.00  0.00    +0.000 C 
ATOM      8  C   UNL     1      60.543  58.551  60.028  0.00  0.00    +0.000 C 
ATOM      9  C   UNL     1      59.948  56.183  57.732  0.00  0.00    +0.000 C 
ATOM     10  C   UNL     1      63.288  57.474  56.819  0.00  0.00    +0.000 C 
ATOM     11  C   UNL     1      62.405  59.799  57.412  0.00  0.00    +0.000 C 
ATOM     12  C   UNL     1      59.453  55.141  61.225  0.00  0.00    +0.000 C 
ATOM     13  C   UNL     1      63.386  58.871  56.620  0.00  0.00    +0.000 C 
ATOM     14  C   UNL     1      62.006  60.997  56.509  0.00  0.00    +0.000 C 
ATOM     15  C   UNL     1      63.125  60.300  58.703  0.00  0.00    +0.000 C 
ENDROOT
BRANCH   4  16
ATOM     16  O   UNL     1      61.512  55.774  62.117  0.00  0.00    +0.000 OA
ATOM     17  H   UNL     1      61.295  56.520  62.707  0.00  0.00    +0.000 HD
ENDBRANCH   4  16
BRANCH  13  18
ATOM     18  O   UNL     1      64.472  59.377  55.917  0.00  0.00    +0.000 OA
ATOM     19  H   UNL     1      64.841  58.733  55.288  0.00  0.00    +0.000 HD
ENDBRANCH  13  18
BRANCH   3  20
ATOM     20  C   UNL     1      62.231  54.553  59.669  0.00  0.00    +0.000 C 
ATOM     21  C   UNL     1      63.114  53.306  59.561  0.00  0.00    +0.000 C 
BRANCH  21  25
ATOM     22  C   UNL     1      65.493  52.315  59.404  0.00  0.00    +0.000 A 
ATOM     23  C   UNL     1      66.399  51.030  59.271  0.00  0.00    +0.000 A 
ATOM     24  C   UNL     1      66.117  53.769  59.501  0.00  0.00    +0.000 C 
ATOM     25  C   UNL     1      63.957  52.160  59.416  0.00  0.00    +0.000 A 
ATOM     26  C   UNL     1      67.943  50.948  59.263  0.00  0.00    +0.000 C 
ATOM     27  C   UNL     1      67.567  53.563  59.429  0.00  0.00    +0.000 C 
ATOM     28  C   UNL     1      68.409  52.321  59.317  0.00  0.00    +0.000 C 
ATOM     29  C   UNL     1      65.594  49.864  59.111  0.00  0.00    +0.000 A 
ATOM     30  C   UNL     1      63.276  50.844  59.265  0.00  0.00    +0.000 A 
ATOM     31  C   UNL     1      65.758  54.399  60.868  0.00  0.00    +0.000 C 
ATOM     32  C   UNL     1      65.665  54.620  58.296  0.00  0.00    +0.000 C 
ATOM     33  C   UNL     1      64.094  49.851  59.122  0.00  0.00    +0.000 A 
ATOM     34  C   UNL     1      68.459  50.088  60.408  0.00  0.00    +0.000 C 
ATOM     35  C   UNL     1      61.803  50.588  59.401  0.00  0.00    +0.000 C 
BRANCH  26  36
ATOM     36  O   UNL     1      68.376  50.349  58.069  0.00  0.00    +0.000 OA
ATOM     37  H   UNL     1      68.486  51.132  57.498  0.00  0.00    +0.000 HD
ENDBRANCH  26  36
ENDBRANCH  21  25
ENDBRANCH   3  20
TORSDOF 5
ENDMDL
MODEL 4
REMARK VINA RESULT:      -6.7      2.758      5.574
REMARK  Name = 44234954_SipholenolL.pdbqt.pdb
REMARK  5 active torsions:
REMARK  status: ('A' for Active; 'I' for Inactive)
REMARK    1  A    between atoms: C_3  and  C_20
REMARK    2  A    between atoms: C_4  and  O_16
REMARK    3  A    between atoms: C_13  and  O_18
REMARK    4  A    between atoms: C_21  and  C_25
REMARK    5  A    between atoms: C_26  and  O_36
REMARK                            x       y       z     vdW  Elec       q    Type
REMARK                         _______ _______ _______ _____ _____    ______ ____
ROOT
ATOM      1  O   UNL     1      56.903  58.212  86.157  0.00  0.00    +0.000 OA
ATOM      2  C   UNL     1      55.441  58.272  84.001  0.00  0.00    +0.000 C 
ATOM      3  C   UNL     1      54.308  59.036  83.311  0.00  0.00    +0.000 C 
ATOM      4  C   UNL     1      54.353  60.552  83.258  0.00  0.00    +0.000 C 
ATOM      5  C   UNL     1      56.018  58.918  85.336  0.00  0.00    +0.000 C 
ATOM      6  C   UNL     1      54.973  56.970  84.500  0.00  0.00    +0.000 C 
ATOM      7  C   UNL     1      55.162  61.030  84.364  0.00  0.00    +0.000 C 
ATOM      8  C   UNL     1      55.973  60.325  85.401  0.00  0.00    +0.000 C 
ATOM      9  C   UNL     1      56.616  58.068  83.009  0.00  0.00    +0.000 C 
ATOM     10  C   UNL     1      55.071  56.073  85.708  0.00  0.00    +0.000 C 
ATOM     11  C   UNL     1      56.393  57.517  87.352  0.00  0.00    +0.000 C 
ATOM     12  C   UNL     1      54.798  61.064  81.891  0.00  0.00    +0.000 C 
ATOM     13  C   UNL     1      55.669  56.179  86.985  0.00  0.00    +0.000 C 
ATOM     14  C   UNL     1      57.644  57.194  88.213  0.00  0.00    +0.000 C 
ATOM     15  C   UNL     1      55.399  58.422  88.145  0.00  0.00    +0.000 C 
ENDROOT
BRANCH   4  16
ATOM     16  O   UNL     1      53.042  61.052  83.425  0.00  0.00    +0.000 OA
ATOM     17  H   UNL     1      52.532  60.403  82.905  0.00  0.00    +0.000 HD
ENDBRANCH   4  16
BRANCH  13  18
ATOM     18  O   UNL     1      55.407  55.199  87.936  0.00  0.00    +0.000 OA
ATOM     19  H   UNL     1      55.459  55.542  88.846  0.00  0.00    +0.000 HD
ENDBRANCH  13  18
BRANCH   3  20
ATOM     20  C   UNL     1      53.235  58.335  82.661  0.00  0.00    +0.000 C 
ATOM     21  C   UNL     1      52.115  57.576  81.943  0.00  0.00    +0.000 C 
BRANCH  21  25
ATOM     22  C   UNL     1      50.396  57.452  80.021  0.00  0.00    +0.000 A 
ATOM     23  C   UNL     1      49.304  56.606  79.257  0.00  0.00    +0.000 A 
ATOM     24  C   UNL     1      50.770  58.926  79.575  0.00  0.00    +0.000 C 
ATOM     25  C   UNL     1      51.104  56.840  81.249  0.00  0.00    +0.000 A 
ATOM     26  C   UNL     1      48.496  57.005  78.001  0.00  0.00    +0.000 C 
ATOM     27  C   UNL     1      49.907  59.204  78.423  0.00  0.00    +0.000 C 
ATOM     28  C   UNL     1      48.882  58.370  77.703  0.00  0.00    +0.000 C 
ATOM     29  C   UNL     1      49.093  55.355  79.908  0.00  0.00    +0.000 A 
ATOM     30  C   UNL     1      50.776  55.489  81.782  0.00  0.00    +0.000 A 
ATOM     31  C   UNL     1      52.251  58.975  79.130  0.00  0.00    +0.000 C 
ATOM     32  C   UNL     1      50.438  59.920  80.709  0.00  0.00    +0.000 C 
ATOM     33  C   UNL     1      49.843  54.883  81.120  0.00  0.00    +0.000 A 
ATOM     34  C   UNL     1      48.746  56.040  76.850  0.00  0.00    +0.000 C 
ATOM     35  C   UNL     1      51.503  54.768  82.879  0.00  0.00    +0.000 C 
BRANCH  26  36
ATOM     36  O   UNL     1      47.122  56.954  78.290  0.00  0.00    +0.000 OA
ATOM     37  H   UNL     1      47.085  56.177  78.877  0.00  0.00    +0.000 HD
ENDBRANCH  26  36
ENDBRANCH  21  25
ENDBRANCH   3  20
TORSDOF 5
ENDMDL
MODEL 5
REMARK VINA RESULT:      -6.6     11.313     18.444
REMARK  Name = 44234954_SipholenolL.pdbqt.pdb
REMARK  5 active torsions:
REMARK  status: ('A' for Active; 'I' for Inactive)
REMARK    1  A    between atoms: C_3  and  C_20
REMARK    2  A    between atoms: C_4  and  O_16
REMARK    3  A    between atoms: C_13  and  O_18
REMARK    4  A    between atoms: C_21  and  C_25
REMARK    5  A    between atoms: C_26  and  O_36
REMARK                            x       y       z     vdW  Elec       q    Type
REMARK                         _______ _______ _______ _____ _____    ______ ____
ROOT
ATOM      1  O   UNL     1      55.955  68.031  84.673  0.00  0.00    +0.000 OA
ATOM      2  C   UNL     1      57.545  70.084  84.452  0.00  0.00    +0.000 C 
ATOM      3  C   UNL     1      57.759  71.522  84.928  0.00  0.00    +0.000 C 
ATOM      4  C   UNL     1      57.633  71.848  86.405  0.00  0.00    +0.000 C 
ATOM      5  C   UNL     1      56.375  69.271  85.163  0.00  0.00    +0.000 C 
ATOM      6  C   UNL     1      57.096  70.052  83.051  0.00  0.00    +0.000 C 
ATOM      7  C   UNL     1      56.770  70.858  87.024  0.00  0.00    +0.000 C 
ATOM      8  C   UNL     1      56.123  69.616  86.506  0.00  0.00    +0.000 C 
ATOM      9  C   UNL     1      58.862  69.279  84.605  0.00  0.00    +0.000 C 
ATOM     10  C   UNL     1      56.096  69.365  82.156  0.00  0.00    +0.000 C 
ATOM     11  C   UNL     1      54.759  67.953  83.816  0.00  0.00    +0.000 C 
ATOM     12  C   UNL     1      58.994  72.000  87.077  0.00  0.00    +0.000 C 
ATOM     13  C   UNL     1      55.056  68.427  82.354  0.00  0.00    +0.000 C 
ATOM     14  C   UNL     1      54.363  66.452  83.788  0.00  0.00    +0.000 C 
ATOM     15  C   UNL     1      53.596  68.817  84.396  0.00  0.00    +0.000 C 
ENDROOT
BRANCH   4  16
ATOM     16  O   UNL     1      57.016  73.113  86.540  0.00  0.00    +0.000 OA
ATOM     17  H   UNL     1      57.459  73.608  85.826  0.00  0.00    +0.000 HD
ENDBRANCH   4  16
BRANCH  13  18
ATOM     18  O   UNL     1      54.202  68.134  81.298  0.00  0.00    +0.000 OA
ATOM     19  H   UNL     1      53.337  68.572  81.387  0.00  0.00    +0.000 HD
ENDBRANCH  13  18
BRANCH   3  20
ATOM     20  C   UNL     1      58.138  72.556  84.004  0.00  0.00    +0.000 C 
ATOM     21  C   UNL     1      58.527  73.639  82.992  0.00  0.00    +0.000 C 
BRANCH  21  25
ATOM     22  C   UNL     1      58.540  74.396  80.524  0.00  0.00    +0.000 A 
ATOM     23  C   UNL     1      58.884  75.523  79.474  0.00  0.00    +0.000 A 
ATOM     24  C   UNL     1      57.901  73.014  80.085  0.00  0.00    +0.000 C 
ATOM     25  C   UNL     1      58.853  74.633  82.018  0.00  0.00    +0.000 A 
ATOM     26  C   UNL     1      58.637  75.511  77.948  0.00  0.00    +0.000 C 
ATOM     27  C   UNL     1      57.768  73.105  78.628  0.00  0.00    +0.000 C 
ATOM     28  C   UNL     1      58.092  74.201  77.649  0.00  0.00    +0.000 C 
ATOM     29  C   UNL     1      59.528  76.622  80.113  0.00  0.00    +0.000 A 
ATOM     30  C   UNL     1      59.510  75.871  82.520  0.00  0.00    +0.000 A 
ATOM     31  C   UNL     1      56.497  72.864  80.719  0.00  0.00    +0.000 C 
ATOM     32  C   UNL     1      58.858  71.855  80.436  0.00  0.00    +0.000 C 
ATOM     33  C   UNL     1      59.793  76.722  81.586  0.00  0.00    +0.000 A 
ATOM     34  C   UNL     1      57.728  76.656  77.524  0.00  0.00    +0.000 C 
ATOM     35  C   UNL     1      59.726  76.239  83.959  0.00  0.00    +0.000 C 
BRANCH  26  36
ATOM     36  O   UNL     1      59.857  75.680  77.273  0.00  0.00    +0.000 OA
ATOM     37  H   UNL     1      60.266  76.387  77.805  0.00  0.00    +0.000 HD
ENDBRANCH  26  36
ENDBRANCH  21  25
ENDBRANCH   3  20
TORSDOF 5
ENDMDL
MODEL 6
REMARK VINA RESULT:      -6.5     24.249     27.026
REMARK  Name = 44234954_SipholenolL.pdbqt.pdb
REMARK  5 active torsions:
REMARK  status: ('A' for Active; 'I' for Inactive)
REMARK    1  A    between atoms: C_3  and  C_20
REMARK    2  A    between atoms: C_4  and  O_16
REMARK    3  A    between atoms: C_13  and  O_18
REMARK    4  A    between atoms: C_21  and  C_25
REMARK    5  A    between atoms: C_26  and  O_36
REMARK                            x       y       z     vdW  Elec       q    Type
REMARK                         _______ _______ _______ _____ _____    ______ ____
ROOT
ATOM      1  O   UNL     1      72.674  51.536  66.103  0.00  0.00    +0.000 OA
ATOM      2  C   UNL     1      70.910  53.185  65.122  0.00  0.00    +0.000 C 
ATOM      3  C   UNL     1      70.528  53.956  63.856  0.00  0.00    +0.000 C 
ATOM      4  C   UNL     1      70.526  53.243  62.517  0.00  0.00    +0.000 C 
ATOM      5  C   UNL     1      72.105  52.142  64.978  0.00  0.00    +0.000 C 
ATOM      6  C   UNL     1      71.450  54.089  66.149  0.00  0.00    +0.000 C 
ATOM      7  C   UNL     1      71.438  52.117  62.593  0.00  0.00    +0.000 C 
ATOM      8  C   UNL     1      72.234  51.535  63.713  0.00  0.00    +0.000 C 
ATOM      9  C   UNL     1      69.670  52.435  65.674  0.00  0.00    +0.000 C 
ATOM     10  C   UNL     1      72.568  54.184  67.157  0.00  0.00    +0.000 C 
ATOM     11  C   UNL     1      73.924  52.074  66.666  0.00  0.00    +0.000 C 
ATOM     12  C   UNL     1      69.116  52.878  62.064  0.00  0.00    +0.000 C 
ATOM     13  C   UNL     1      73.678  53.377  67.497  0.00  0.00    +0.000 C 
ATOM     14  C   UNL     1      74.465  50.968  67.613  0.00  0.00    +0.000 C 
ATOM     15  C   UNL     1      74.958  52.386  65.540  0.00  0.00    +0.000 C 
ENDROOT
BRANCH   4  16
ATOM     16  O   UNL     1      71.007  54.131  61.528  0.00  0.00    +0.000 OA
ATOM     17  H   UNL     1      70.747  53.658  60.716  0.00  0.00    +0.000 HD
ENDBRANCH   4  16
BRANCH  13  18
ATOM     18  O   UNL     1      74.623  53.872  68.388  0.00  0.00    +0.000 OA
ATOM     19  H   UNL     1      74.219  54.228  69.198  0.00  0.00    +0.000 HD
ENDBRANCH  13  18
BRANCH   3  20
ATOM     20  C   UNL     1      70.111  55.330  63.929  0.00  0.00    +0.000 C 
ATOM     21  C   UNL     1      69.698  56.804  63.993  0.00  0.00    +0.000 C 
BRANCH  21  25
ATOM     22  C   UNL     1      69.896  59.114  65.130  0.00  0.00    +0.000 A 
ATOM     23  C   UNL     1      69.518  60.646  65.119  0.00  0.00    +0.000 A 
ATOM     24  C   UNL     1      70.806  58.488  66.268  0.00  0.00    +0.000 C 
ATOM     25  C   UNL     1      69.350  58.190  64.020  0.00  0.00    +0.000 A 
ATOM     26  C   UNL     1      69.968  61.747  66.106  0.00  0.00    +0.000 C 
ATOM     27  C   UNL     1      71.118  59.608  67.161  0.00  0.00    +0.000 C 
ATOM     28  C   UNL     1      70.755  61.068  67.118  0.00  0.00    +0.000 C 
ATOM     29  C   UNL     1      68.622  60.932  64.047  0.00  0.00    +0.000 A 
ATOM     30  C   UNL     1      68.437  58.671  62.945  0.00  0.00    +0.000 A 
ATOM     31  C   UNL     1      72.117  57.947  65.648  0.00  0.00    +0.000 C 
ATOM     32  C   UNL     1      70.012  57.421  67.051  0.00  0.00    +0.000 C 
ATOM     33  C   UNL     1      68.147  59.930  63.036  0.00  0.00    +0.000 A 
ATOM     34  C   UNL     1      70.726  62.857  65.392  0.00  0.00    +0.000 C 
ATOM     35  C   UNL     1      67.971  57.879  61.759  0.00  0.00    +0.000 C 
BRANCH  26  36
ATOM     36  O   UNL     1      68.839  62.334  66.701  0.00  0.00    +0.000 OA
ATOM     37  H   UNL     1      68.359  61.544  67.008  0.00  0.00    +0.000 HD
ENDBRANCH  26  36
ENDBRANCH  21  25
ENDBRANCH   3  20
TORSDOF 5
ENDMDL
MODEL 7
REMARK VINA RESULT:      -6.5     18.178     23.260
REMARK  Name = 44234954_SipholenolL.pdbqt.pdb
REMARK  5 active torsions:
REMARK  status: ('A' for Active; 'I' for Inactive)
REMARK    1  A    between atoms: C_3  and  C_20
REMARK    2  A    between atoms: C_4  and  O_16
REMARK    3  A    between atoms: C_13  and  O_18
REMARK    4  A    between atoms: C_21  and  C_25
REMARK    5  A    between atoms: C_26  and  O_36
REMARK                            x       y       z     vdW  Elec       q    Type
REMARK                         _______ _______ _______ _____ _____    ______ ____
ROOT
ATOM      1  O   UNL     1      57.838  67.614  68.265  0.00  0.00    +0.000 OA
ATOM      2  C   UNL     1      59.982  68.678  67.234  0.00  0.00    +0.000 C 
ATOM      3  C   UNL     1      61.262  68.348  66.464  0.00  0.00    +0.000 C 
ATOM      4  C   UNL     1      61.191  67.445  65.246  0.00  0.00    +0.000 C 
ATOM      5  C   UNL     1      58.938  67.490  67.410  0.00  0.00    +0.000 C 
ATOM      6  C   UNL     1      60.278  69.000  68.639  0.00  0.00    +0.000 C 
ATOM      7  C   UNL     1      60.020  66.597  65.369  0.00  0.00    +0.000 C 
ATOM      8  C   UNL     1      58.911  66.543  66.366  0.00  0.00    +0.000 C 
ATOM      9  C   UNL     1      59.255  69.871  66.559  0.00  0.00    +0.000 C 
ATOM     10  C   UNL     1      59.776  68.730  70.035  0.00  0.00    +0.000 C 
ATOM     11  C   UNL     1      57.901  67.043  69.621  0.00  0.00    +0.000 C 
ATOM     12  C   UNL     1      61.258  68.235  63.942  0.00  0.00    +0.000 C 
ATOM     13  C   UNL     1      58.751  67.930  70.591  0.00  0.00    +0.000 C 
ATOM     14  C   UNL     1      56.433  67.007  70.128  0.00  0.00    +0.000 C 
ATOM     15  C   UNL     1      58.508  65.605  69.597  0.00  0.00    +0.000 C 
ENDROOT
BRANCH   4  16
ATOM     16  O   UNL     1      62.334  66.615  65.228  0.00  0.00    +0.000 OA
ATOM     17  H   UNL     1      61.987  65.837  64.754  0.00  0.00    +0.000 HD
ENDBRANCH   4  16
BRANCH  13  18
ATOM     18  O   UNL     1      58.680  67.788  71.971  0.00  0.00    +0.000 OA
ATOM     19  H   UNL     1      57.798  68.002  72.322  0.00  0.00    +0.000 HD
ENDBRANCH  13  18
BRANCH   3  20
ATOM     20  C   UNL     1      62.520  68.932  66.842  0.00  0.00    +0.000 C 
ATOM     21  C   UNL     1      63.872  69.522  67.255  0.00  0.00    +0.000 C 
BRANCH  21  25
ATOM     22  C   UNL     1      66.445  69.318  67.177  0.00  0.00    +0.000 A 
ATOM     23  C   UNL     1      67.846  69.913  67.594  0.00  0.00    +0.000 A 
ATOM     24  C   UNL     1      66.324  67.996  66.311  0.00  0.00    +0.000 C 
ATOM     25  C   UNL     1      65.153  70.026  67.641  0.00  0.00    +0.000 A 
ATOM     26  C   UNL     1      69.252  69.389  67.224  0.00  0.00    +0.000 C 
ATOM     27  C   UNL     1      67.708  67.572  66.074  0.00  0.00    +0.000 C 
ATOM     28  C   UNL     1      69.031  68.168  66.473  0.00  0.00    +0.000 C 
ATOM     29  C   UNL     1      67.676  71.047  68.440  0.00  0.00    +0.000 A 
ATOM     30  C   UNL     1      65.162  71.236  68.509  0.00  0.00    +0.000 A 
ATOM     31  C   UNL     1      65.650  68.320  64.956  0.00  0.00    +0.000 C 
ATOM     32  C   UNL     1      65.589  66.903  67.116  0.00  0.00    +0.000 C 
ATOM     33  C   UNL     1      66.351  71.631  68.836  0.00  0.00    +0.000 A 
ATOM     34  C   UNL     1      70.051  70.435  66.459  0.00  0.00    +0.000 C 
ATOM     35  C   UNL     1      63.968  72.060  68.893  0.00  0.00    +0.000 C 
BRANCH  26  36
ATOM     36  O   UNL     1      69.969  69.098  68.396  0.00  0.00    +0.000 OA
ATOM     37  H   UNL     1      70.405  68.263  68.145  0.00  0.00    +0.000 HD
ENDBRANCH  26  36
ENDBRANCH  21  25
ENDBRANCH   3  20
TORSDOF 5
ENDMDL
MODEL 8
REMARK VINA RESULT:      -6.4     18.198     23.864
REMARK  Name = 44234954_SipholenolL.pdbqt.pdb
REMARK  5 active torsions:
REMARK  status: ('A' for Active; 'I' for Inactive)
REMARK    1  A    between atoms: C_3  and  C_20
REMARK    2  A    between atoms: C_4  and  O_16
REMARK    3  A    between atoms: C_13  and  O_18
REMARK    4  A    between atoms: C_21  and  C_25
REMARK    5  A    between atoms: C_26  and  O_36
REMARK                            x       y       z     vdW  Elec       q    Type
REMARK                         _______ _______ _______ _____ _____    ______ ____
ROOT
ATOM      1  O   UNL     1      59.040  66.832  67.866  0.00  0.00    +0.000 OA
ATOM      2  C   UNL     1      60.841  68.545  67.082  0.00  0.00    +0.000 C 
ATOM      3  C   UNL     1      62.278  68.660  66.569  0.00  0.00    +0.000 C 
ATOM      4  C   UNL     1      62.754  67.735  65.463  0.00  0.00    +0.000 C 
ATOM      5  C   UNL     1      60.256  67.071  67.219  0.00  0.00    +0.000 C 
ATOM      6  C   UNL     1      60.735  69.017  68.471  0.00  0.00    +0.000 C 
ATOM      7  C   UNL     1      61.947  66.530  65.490  0.00  0.00    +0.000 C 
ATOM      8  C   UNL     1      60.756  66.129  66.296  0.00  0.00    +0.000 C 
ATOM      9  C   UNL     1      59.891  69.364  66.170  0.00  0.00    +0.000 C 
ATOM     10  C   UNL     1      60.102  68.651  69.789  0.00  0.00    +0.000 C 
ATOM     11  C   UNL     1      59.037  66.386  69.270  0.00  0.00    +0.000 C 
ATOM     12  C   UNL     1      62.792  68.435  64.108  0.00  0.00    +0.000 C 
ATOM     13  C   UNL     1      59.329  67.564  70.259  0.00  0.00    +0.000 C 
ATOM     14  C   UNL     1      57.604  65.850  69.535  0.00  0.00    +0.000 C 
ATOM     15  C   UNL     1      60.094  65.262  69.504  0.00  0.00    +0.000 C 
ENDROOT
BRANCH   4  16
ATOM     16  O   UNL     1      64.095  67.371  65.722  0.00  0.00    +0.000 OA
ATOM     17  H   UNL     1      64.049  67.177  66.677  0.00  0.00    +0.000 HD
ENDBRANCH   4  16
BRANCH  13  18
ATOM     18  O   UNL     1      59.051  67.471  71.617  0.00  0.00    +0.000 OA
ATOM     19  H   UNL     1      58.440  66.741  71.822  0.00  0.00    +0.000 HD
ENDBRANCH  13  18
BRANCH   3  20
ATOM     20  C   UNL     1      63.162  69.673  67.076  0.00  0.00    +0.000 C 
ATOM     21  C   UNL     1      64.094  70.775  67.591  0.00  0.00    +0.000 C 
BRANCH  21  25
ATOM     22  C   UNL     1      64.328  73.189  68.475  0.00  0.00    +0.000 A 
ATOM     23  C   UNL     1      65.279  74.334  68.999  0.00  0.00    +0.000 A 
ATOM     24  C   UNL     1      62.762  73.398  68.352  0.00  0.00    +0.000 C 
ATOM     25  C   UNL     1      64.937  71.836  68.046  0.00  0.00    +0.000 A 
ATOM     26  C   UNL     1      64.889  75.744  69.500  0.00  0.00    +0.000 C 
ATOM     27  C   UNL     1      62.527  74.774  68.800  0.00  0.00    +0.000 C 
ATOM     28  C   UNL     1      63.455  75.843  69.311  0.00  0.00    +0.000 C 
ATOM     29  C   UNL     1      66.643  73.924  68.927  0.00  0.00    +0.000 A 
ATOM     30  C   UNL     1      66.402  71.567  68.064  0.00  0.00    +0.000 A 
ATOM     31  C   UNL     1      62.030  72.419  69.302  0.00  0.00    +0.000 C 
ATOM     32  C   UNL     1      62.325  73.262  66.878  0.00  0.00    +0.000 C 
ATOM     33  C   UNL     1      67.109  72.573  68.469  0.00  0.00    +0.000 A 
ATOM     34  C   UNL     1      65.327  75.961  70.942  0.00  0.00    +0.000 C 
ATOM     35  C   UNL     1      67.063  70.247  67.795  0.00  0.00    +0.000 C 
BRANCH  26  36
ATOM     36  O   UNL     1      65.537  76.716  68.721  0.00  0.00    +0.000 OA
ATOM     37  H   UNL     1      66.436  76.343  68.669  0.00  0.00    +0.000 HD
ENDBRANCH  26  36
ENDBRANCH  21  25
ENDBRANCH   3  20
TORSDOF 5
ENDMDL
MODEL 9
REMARK VINA RESULT:      -6.4     25.987     28.534
REMARK  Name = 44234954_SipholenolL.pdbqt.pdb
REMARK  5 active torsions:
REMARK  status: ('A' for Active; 'I' for Inactive)
REMARK    1  A    between atoms: C_3  and  C_20
REMARK    2  A    between atoms: C_4  and  O_16
REMARK    3  A    between atoms: C_13  and  O_18
REMARK    4  A    between atoms: C_21  and  C_25
REMARK    5  A    between atoms: C_26  and  O_36
REMARK                            x       y       z     vdW  Elec       q    Type
REMARK                         _______ _______ _______ _____ _____    ______ ____
ROOT
ATOM      1  O   UNL     1      57.352  52.312  56.501  0.00  0.00    +0.000 OA
ATOM      2  C   UNL     1      59.629  51.279  55.768  0.00  0.00    +0.000 C 
ATOM      3  C   UNL     1      60.358  49.950  55.557  0.00  0.00    +0.000 C 
ATOM      4  C   UNL     1      59.669  48.830  54.800  0.00  0.00    +0.000 C 
ATOM      5  C   UNL     1      58.073  51.187  56.089  0.00  0.00    +0.000 C 
ATOM      6  C   UNL     1      60.122  51.968  56.970  0.00  0.00    +0.000 C 
ATOM      7  C   UNL     1      58.233  49.013  54.911  0.00  0.00    +0.000 C 
ATOM      8  C   UNL     1      57.396  50.092  55.514  0.00  0.00    +0.000 C 
ATOM      9  C   UNL     1      59.818  52.184  54.523  0.00  0.00    +0.000 C 
ATOM     10  C   UNL     1      59.624  52.730  58.173  0.00  0.00    +0.000 C 
ATOM     11  C   UNL     1      57.087  52.524  57.934  0.00  0.00    +0.000 C 
ATOM     12  C   UNL     1      60.176  48.711  53.366  0.00  0.00    +0.000 C 
ATOM     13  C   UNL     1      58.350  53.060  58.688  0.00  0.00    +0.000 C 
ATOM     14  C   UNL     1      55.968  53.598  57.998  0.00  0.00    +0.000 C 
ATOM     15  C   UNL     1      56.619  51.202  58.619  0.00  0.00    +0.000 C 
ENDROOT
BRANCH   4  16
ATOM     16  O   UNL     1      60.002  47.599  55.408  0.00  0.00    +0.000 OA
ATOM     17  H   UNL     1      59.276  47.512  56.053  0.00  0.00    +0.000 HD
ENDBRANCH   4  16
BRANCH  13  18
ATOM     18  O   UNL     1      58.262  53.646  59.945  0.00  0.00    +0.000 OA
ATOM     19  H   UNL     1      59.050  53.475  60.491  0.00  0.00    +0.000 HD
ENDBRANCH  13  18
BRANCH   3  20
ATOM     20  C   UNL     1      61.710  49.771  56.013  0.00  0.00    +0.000 C 
ATOM     21  C   UNL     1      63.161  49.577  56.464  0.00  0.00    +0.000 C 
BRANCH  21  25
ATOM     22  C   UNL     1      65.195  50.385  57.834  0.00  0.00    +0.000 A 
ATOM     23  C   UNL     1      66.700  50.158  58.252  0.00  0.00    +0.000 A 
ATOM     24  C   UNL     1      64.350  51.605  58.391  0.00  0.00    +0.000 C 
ATOM     25  C   UNL     1      64.530  49.409  56.839  0.00  0.00    +0.000 A 
ATOM     26  C   UNL     1      67.549  50.987  59.243  0.00  0.00    +0.000 C 
ATOM     27  C   UNL     1      65.272  52.336  59.265  0.00  0.00    +0.000 C 
ATOM     28  C   UNL     1      66.703  52.089  59.659  0.00  0.00    +0.000 C 
ATOM     29  C   UNL     1      67.254  49.051  57.546  0.00  0.00    +0.000 A 
ATOM     30  C   UNL     1      65.260  48.272  56.212  0.00  0.00    +0.000 A 
ATOM     31  C   UNL     1      63.161  51.075  59.230  0.00  0.00    +0.000 C 
ATOM     32  C   UNL     1      63.918  52.522  57.228  0.00  0.00    +0.000 C 
ATOM     33  C   UNL     1      66.498  48.185  56.581  0.00  0.00    +0.000 A 
ATOM     34  C   UNL     1      68.044  50.132  60.401  0.00  0.00    +0.000 C 
ATOM     35  C   UNL     1      64.660  47.203  55.346  0.00  0.00    +0.000 C 
BRANCH  26  36
ATOM     36  O   UNL     1      68.685  51.487  58.584  0.00  0.00    +0.000 OA
ATOM     37  H   UNL     1      68.487  52.442  58.573  0.00  0.00    +0.000 HD
ENDBRANCH  26  36
ENDBRANCH  21  25
ENDBRANCH   3  20
TORSDOF 5
ENDMDL
