MODEL 1
REMARK VINA RESULT:      -5.2      0.000      0.000
REMARK  Name = 442793_6gingerol.pdbqt.pdb
REMARK  7 active torsions:
REMARK  status: ('A' for Active; 'I' for Inactive)
REMARK    1  A    between atoms: C_1  and  C_3
REMARK    2  A    between atoms: C_5  and  O_6
REMARK    3  A    between atoms: C_5  and  C_8
REMARK    4  A    between atoms: C_9  and  C_10
REMARK    5  A    between atoms: C_13  and  C_14
REMARK    6  A    between atoms: C_17  and  O_20
REMARK    7  A    between atoms: C_19  and  O_22
REMARK                            x       y       z     vdW  Elec       q    Type
REMARK                         _______ _______ _______ _____ _____    ______ ____
ROOT
ATOM      1  C   UNL     1      59.226  36.853  65.707  0.00  0.00    +0.000 C 
ATOM      2  C   UNL     1      60.043  37.714  66.679  0.00  0.00    +0.000 C 
ENDROOT
BRANCH   2   3
ATOM      3  C   UNL     1      60.801  38.511  67.583  0.00  0.00    +0.000 A 
ATOM      4  C   UNL     1      60.195  39.030  68.725  0.00  0.00    +0.000 A 
ATOM      5  C   UNL     1      62.143  38.770  67.322  0.00  0.00    +0.000 A 
ATOM      6  C   UNL     1      60.926  39.815  69.622  0.00  0.00    +0.000 A 
ATOM      7  C   UNL     1      62.884  39.550  68.206  0.00  0.00    +0.000 A 
ATOM      8  C   UNL     1      62.273  40.068  69.348  0.00  0.00    +0.000 A 
BRANCH   6   9
ATOM      9  O   UNL     1      60.409  40.366  70.769  0.00  0.00    +0.000 OA
ATOM     10  C   UNL     1      60.077  39.454  71.783  0.00  0.00    +0.000 C 
ENDBRANCH   6   9
BRANCH   8  11
ATOM     11  O   UNL     1      63.006  40.834  70.213  0.00  0.00    +0.000 OA
ATOM     12  H   UNL     1      63.114  40.344  71.049  0.00  0.00    +0.000 HD
ENDBRANCH   8  11
ENDBRANCH   2   3
BRANCH   1  14
ATOM     13  O   UNL     1      58.988  35.117  64.198  0.00  0.00    +0.000 OA
ATOM     14  C   UNL     1      58.459  36.041  64.796  0.00  0.00    +0.000 C 
ATOM     15  C   UNL     1      57.066  36.329  64.594  0.00  0.00    +0.000 C 
ATOM     16  C   UNL     1      55.697  36.609  64.391  0.00  0.00    +0.000 C 
BRANCH  16  17
ATOM     17  O   UNL     1      55.092  37.476  65.269  0.00  0.00    +0.000 OA
ATOM     18  H   UNL     1      55.744  38.004  65.762  0.00  0.00    +0.000 HD
ENDBRANCH  16  17
BRANCH  16  19
ATOM     19  C   UNL     1      54.930  36.051  63.340  0.00  0.00    +0.000 C 
ATOM     20  C   UNL     1      54.108  35.442  62.199  0.00  0.00    +0.000 C 
BRANCH  20  21
ATOM     21  C   UNL     1      53.291  34.832  61.055  0.00  0.00    +0.000 C 
ATOM     22  C   UNL     1      52.476  34.223  59.910  0.00  0.00    +0.000 C 
ATOM     23  C   UNL     1      51.667  33.614  58.760  0.00  0.00    +0.000 C 
ENDBRANCH  20  21
ENDBRANCH  16  19
ENDBRANCH   1  14
TORSDOF 7
ENDMDL
MODEL 2
REMARK VINA RESULT:      -5.1     15.484     18.271
REMARK  Name = 442793_6gingerol.pdbqt.pdb
REMARK  7 active torsions:
REMARK  status: ('A' for Active; 'I' for Inactive)
REMARK    1  A    between atoms: C_1  and  C_3
REMARK    2  A    between atoms: C_5  and  O_6
REMARK    3  A    between atoms: C_5  and  C_8
REMARK    4  A    between atoms: C_9  and  C_10
REMARK    5  A    between atoms: C_13  and  C_14
REMARK    6  A    between atoms: C_17  and  O_20
REMARK    7  A    between atoms: C_19  and  O_22
REMARK                            x       y       z     vdW  Elec       q    Type
REMARK                         _______ _______ _______ _____ _____    ______ ____
ROOT
ATOM      1  C   UNL     1      58.705  51.811  58.719  0.00  0.00    +0.000 C 
ATOM      2  C   UNL     1      57.233  51.410  58.556  0.00  0.00    +0.000 C 
ENDROOT
BRANCH   2   3
ATOM      3  C   UNL     1      55.867  51.039  58.405  0.00  0.00    +0.000 A 
ATOM      4  C   UNL     1      54.867  51.842  58.951  0.00  0.00    +0.000 A 
ATOM      5  C   UNL     1      55.534  49.878  57.714  0.00  0.00    +0.000 A 
ATOM      6  C   UNL     1      53.521  51.491  58.813  0.00  0.00    +0.000 A 
ATOM      7  C   UNL     1      54.197  49.517  57.568  0.00  0.00    +0.000 A 
ATOM      8  C   UNL     1      53.200  50.322  58.117  0.00  0.00    +0.000 A 
BRANCH   6   9
ATOM      9  O   UNL     1      52.474  52.222  59.319  0.00  0.00    +0.000 OA
ATOM     10  C   UNL     1      52.259  53.471  58.716  0.00  0.00    +0.000 C 
ENDBRANCH   6   9
BRANCH   8  11
ATOM     11  O   UNL     1      51.889  49.961  57.970  0.00  0.00    +0.000 OA
ATOM     12  H   UNL     1      51.475  49.922  58.852  0.00  0.00    +0.000 HD
ENDBRANCH   8  11
ENDBRANCH   2   3
BRANCH   1  14
ATOM     13  O   UNL     1      60.418  53.363  58.779  0.00  0.00    +0.000 OA
ATOM     14  C   UNL     1      60.086  52.191  58.874  0.00  0.00    +0.000 C 
ATOM     15  C   UNL     1      61.072  51.181  59.139  0.00  0.00    +0.000 C 
ATOM     16  C   UNL     1      62.045  50.191  59.398  0.00  0.00    +0.000 C 
BRANCH  16  17
ATOM     17  O   UNL     1      61.596  48.942  59.754  0.00  0.00    +0.000 OA
ATOM     18  H   UNL     1      62.304  48.276  59.706  0.00  0.00    +0.000 HD
ENDBRANCH  16  17
BRANCH  16  19
ATOM     19  C   UNL     1      63.440  50.419  59.307  0.00  0.00    +0.000 C 
ATOM     20  C   UNL     1      64.949  50.667  59.218  0.00  0.00    +0.000 C 
BRANCH  20  21
ATOM     21  C   UNL     1      66.458  50.918  59.136  0.00  0.00    +0.000 C 
ATOM     22  C   UNL     1      67.967  51.167  59.054  0.00  0.00    +0.000 C 
ATOM     23  C   UNL     1      69.478  51.408  58.974  0.00  0.00    +0.000 C 
ENDBRANCH  20  21
ENDBRANCH  16  19
ENDBRANCH   1  14
TORSDOF 7
ENDMDL
MODEL 3
REMARK VINA RESULT:      -5.1     15.445     18.156
REMARK  Name = 442793_6gingerol.pdbqt.pdb
REMARK  7 active torsions:
REMARK  status: ('A' for Active; 'I' for Inactive)
REMARK    1  A    between atoms: C_1  and  C_3
REMARK    2  A    between atoms: C_5  and  O_6
REMARK    3  A    between atoms: C_5  and  C_8
REMARK    4  A    between atoms: C_9  and  C_10
REMARK    5  A    between atoms: C_13  and  C_14
REMARK    6  A    between atoms: C_17  and  O_20
REMARK    7  A    between atoms: C_19  and  O_22
REMARK                            x       y       z     vdW  Elec       q    Type
REMARK                         _______ _______ _______ _____ _____    ______ ____
ROOT
ATOM      1  C   UNL     1      59.111  52.302  58.976  0.00  0.00    +0.000 C 
ATOM      2  C   UNL     1      57.586  52.151  58.895  0.00  0.00    +0.000 C 
ENDROOT
BRANCH   2   3
ATOM      3  C   UNL     1      56.171  52.013  58.818  0.00  0.00    +0.000 A 
ATOM      4  C   UNL     1      55.612  50.788  58.457  0.00  0.00    +0.000 A 
ATOM      5  C   UNL     1      55.351  53.101  59.102  0.00  0.00    +0.000 A 
ATOM      6  C   UNL     1      54.225  50.638  58.376  0.00  0.00    +0.000 A 
ATOM      7  C   UNL     1      53.968  52.965  59.026  0.00  0.00    +0.000 A 
ATOM      8  C   UNL     1      53.412  51.739  58.665  0.00  0.00    +0.000 A 
BRANCH   6   9
ATOM      9  O   UNL     1      53.591  49.470  58.029  0.00  0.00    +0.000 OA
ATOM     10  C   UNL     1      54.352  48.573  57.262  0.00  0.00    +0.000 C 
ENDBRANCH   6   9
BRANCH   8  11
ATOM     11  O   UNL     1      52.053  51.612  58.592  0.00  0.00    +0.000 OA
ATOM     12  H   UNL     1      51.794  51.552  57.653  0.00  0.00    +0.000 HD
ENDBRANCH   8  11
ENDBRANCH   2   3
BRANCH   1  14
ATOM     13  O   UNL     1      61.058  53.549  58.951  0.00  0.00    +0.000 OA
ATOM     14  C   UNL     1      60.543  52.446  59.050  0.00  0.00    +0.000 C 
ATOM     15  C   UNL     1      61.361  51.280  59.238  0.00  0.00    +0.000 C 
ATOM     16  C   UNL     1      62.170  50.138  59.422  0.00  0.00    +0.000 C 
BRANCH  16  17
ATOM     17  O   UNL     1      61.543  48.971  59.787  0.00  0.00    +0.000 OA
ATOM     18  H   UNL     1      61.483  48.880  60.754  0.00  0.00    +0.000 HD
ENDBRANCH  16  17
BRANCH  16  19
ATOM     19  C   UNL     1      63.576  50.136  59.248  0.00  0.00    +0.000 C 
ATOM     20  C   UNL     1      65.096  50.127  59.052  0.00  0.00    +0.000 C 
BRANCH  20  21
ATOM     21  C   UNL     1      66.614  50.114  58.852  0.00  0.00    +0.000 C 
ATOM     22  C   UNL     1      68.133  50.102  58.651  0.00  0.00    +0.000 C 
ATOM     23  C   UNL     1      69.652  50.098  58.450  0.00  0.00    +0.000 C 
ENDBRANCH  20  21
ENDBRANCH  16  19
ENDBRANCH   1  14
TORSDOF 7
ENDMDL
MODEL 4
REMARK VINA RESULT:      -5.1     18.348     22.026
REMARK  Name = 442793_6gingerol.pdbqt.pdb
REMARK  7 active torsions:
REMARK  status: ('A' for Active; 'I' for Inactive)
REMARK    1  A    between atoms: C_1  and  C_3
REMARK    2  A    between atoms: C_5  and  O_6
REMARK    3  A    between atoms: C_5  and  C_8
REMARK    4  A    between atoms: C_9  and  C_10
REMARK    5  A    between atoms: C_13  and  C_14
REMARK    6  A    between atoms: C_17  and  O_20
REMARK    7  A    between atoms: C_19  and  O_22
REMARK                            x       y       z     vdW  Elec       q    Type
REMARK                         _______ _______ _______ _____ _____    ______ ____
ROOT
ATOM      1  C   UNL     1      70.221  55.377  64.980  0.00  0.00    +0.000 C 
ATOM      2  C   UNL     1      69.871  56.847  65.239  0.00  0.00    +0.000 C 
ENDROOT
BRANCH   2   3
ATOM      3  C   UNL     1      69.543  58.212  65.478  0.00  0.00    +0.000 A 
ATOM      4  C   UNL     1      69.876  58.802  66.696  0.00  0.00    +0.000 A 
ATOM      5  C   UNL     1      68.891  58.952  64.495  0.00  0.00    +0.000 A 
ATOM      6  C   UNL     1      69.560  60.141  66.946  0.00  0.00    +0.000 A 
ATOM      7  C   UNL     1      68.571  60.287  64.731  0.00  0.00    +0.000 A 
ATOM      8  C   UNL     1      68.905  60.873  65.951  0.00  0.00    +0.000 A 
BRANCH   6   9
ATOM      9  O   UNL     1      69.849  60.800  68.116  0.00  0.00    +0.000 OA
ATOM     10  C   UNL     1      71.201  61.119  68.313  0.00  0.00    +0.000 C 
ENDBRANCH   6   9
BRANCH   8  11
ATOM     11  O   UNL     1      68.588  62.184  66.176  0.00  0.00    +0.000 OA
ATOM     12  H   UNL     1      69.387  62.651  66.483  0.00  0.00    +0.000 HD
ENDBRANCH   8  11
ENDBRANCH   2   3
BRANCH   1  14
ATOM     13  O   UNL     1      71.370  53.422  65.434  0.00  0.00    +0.000 OA
ATOM     14  C   UNL     1      70.548  53.994  64.735  0.00  0.00    +0.000 C 
ATOM     15  C   UNL     1      69.901  53.295  63.660  0.00  0.00    +0.000 C 
ATOM     16  C   UNL     1      69.269  52.604  62.603  0.00  0.00    +0.000 C 
BRANCH  16  17
ATOM     17  O   UNL     1      68.176  53.200  62.022  0.00  0.00    +0.000 OA
ATOM     18  H   UNL     1      67.738  53.822  62.628  0.00  0.00    +0.000 HD
ENDBRANCH  16  17
BRANCH  16  19
ATOM     19  C   UNL     1      69.702  51.345  62.119  0.00  0.00    +0.000 C 
ATOM     20  C   UNL     1      70.165  49.979  61.603  0.00  0.00    +0.000 C 
BRANCH  20  21
ATOM     21  C   UNL     1      70.625  48.610  61.091  0.00  0.00    +0.000 C 
ATOM     22  C   UNL     1      71.085  47.240  60.582  0.00  0.00    +0.000 C 
ATOM     23  C   UNL     1      71.544  45.868  60.079  0.00  0.00    +0.000 C 
ENDBRANCH  20  21
ENDBRANCH  16  19
ENDBRANCH   1  14
TORSDOF 7
ENDMDL
MODEL 5
REMARK VINA RESULT:      -5.0      3.065     11.552
REMARK  Name = 442793_6gingerol.pdbqt.pdb
REMARK  7 active torsions:
REMARK  status: ('A' for Active; 'I' for Inactive)
REMARK    1  A    between atoms: C_1  and  C_3
REMARK    2  A    between atoms: C_5  and  O_6
REMARK    3  A    between atoms: C_5  and  C_8
REMARK    4  A    between atoms: C_9  and  C_10
REMARK    5  A    between atoms: C_13  and  C_14
REMARK    6  A    between atoms: C_17  and  O_20
REMARK    7  A    between atoms: C_19  and  O_22
REMARK                            x       y       z     vdW  Elec       q    Type
REMARK                         _______ _______ _______ _____ _____    ______ ____
ROOT
ATOM      1  C   UNL     1      54.703  36.112  63.311  0.00  0.00    +0.000 C 
ATOM      2  C   UNL     1      53.845  35.475  62.210  0.00  0.00    +0.000 C 
ENDROOT
BRANCH   2   3
ATOM      3  C   UNL     1      53.050  34.887  61.187  0.00  0.00    +0.000 A 
ATOM      4  C   UNL     1      52.234  35.691  60.393  0.00  0.00    +0.000 A 
ATOM      5  C   UNL     1      53.089  33.510  60.982  0.00  0.00    +0.000 A 
ATOM      6  C   UNL     1      51.446  35.128  59.385  0.00  0.00    +0.000 A 
ATOM      7  C   UNL     1      52.310  32.936  59.981  0.00  0.00    +0.000 A 
ATOM      8  C   UNL     1      51.494  33.745  59.190  0.00  0.00    +0.000 A 
BRANCH   6   9
ATOM      9  O   UNL     1      50.615  35.846  58.560  0.00  0.00    +0.000 OA
ATOM     10  C   UNL     1      51.237  36.841  57.791  0.00  0.00    +0.000 C 
ENDBRANCH   6   9
BRANCH   8  11
ATOM     11  O   UNL     1      50.732  33.174  58.209  0.00  0.00    +0.000 OA
ATOM     12  H   UNL     1      50.932  32.220  58.172  0.00  0.00    +0.000 HD
ENDBRANCH   8  11
ENDBRANCH   2   3
BRANCH   1  14
ATOM     13  O   UNL     1      55.014  37.496  65.137  0.00  0.00    +0.000 OA
ATOM     14  C   UNL     1      55.510  36.712  64.344  0.00  0.00    +0.000 C 
ATOM     15  C   UNL     1      56.906  36.382  64.431  0.00  0.00    +0.000 C 
ATOM     16  C   UNL     1      58.278  36.062  64.520  0.00  0.00    +0.000 C 
BRANCH  16  17
ATOM     17  O   UNL     1      58.727  34.992  63.785  0.00  0.00    +0.000 OA
ATOM     18  H   UNL     1      59.698  34.925  63.799  0.00  0.00    +0.000 HD
ENDBRANCH  16  17
BRANCH  16  19
ATOM     19  C   UNL     1      59.201  36.783  65.316  0.00  0.00    +0.000 C 
ATOM     20  C   UNL     1      60.197  37.571  66.174  0.00  0.00    +0.000 C 
BRANCH  20  21
ATOM     21  C   UNL     1      61.191  38.364  67.028  0.00  0.00    +0.000 C 
ATOM     22  C   UNL     1      62.188  39.156  67.881  0.00  0.00    +0.000 C 
ATOM     23  C   UNL     1      63.189  39.948  68.728  0.00  0.00    +0.000 C 
ENDBRANCH  20  21
ENDBRANCH  16  19
ENDBRANCH   1  14
TORSDOF 7
ENDMDL
MODEL 6
REMARK VINA RESULT:      -5.0     24.849     28.706
REMARK  Name = 442793_6gingerol.pdbqt.pdb
REMARK  7 active torsions:
REMARK  status: ('A' for Active; 'I' for Inactive)
REMARK    1  A    between atoms: C_1  and  C_3
REMARK    2  A    between atoms: C_5  and  O_6
REMARK    3  A    between atoms: C_5  and  C_8
REMARK    4  A    between atoms: C_9  and  C_10
REMARK    5  A    between atoms: C_13  and  C_14
REMARK    6  A    between atoms: C_17  and  O_20
REMARK    7  A    between atoms: C_19  and  O_22
REMARK                            x       y       z     vdW  Elec       q    Type
REMARK                         _______ _______ _______ _____ _____    ______ ____
ROOT
ATOM      1  C   UNL     1      67.339  63.815  65.553  0.00  0.00    +0.000 C 
ATOM      2  C   UNL     1      66.964  65.220  66.043  0.00  0.00    +0.000 C 
ENDROOT
BRANCH   2   3
ATOM      3  C   UNL     1      66.614  66.524  66.496  0.00  0.00    +0.000 A 
ATOM      4  C   UNL     1      67.616  67.439  66.815  0.00  0.00    +0.000 A 
ATOM      5  C   UNL     1      65.274  66.880  66.619  0.00  0.00    +0.000 A 
ATOM      6  C   UNL     1      67.289  68.722  67.262  0.00  0.00    +0.000 A 
ATOM      7  C   UNL     1      64.934  68.155  67.062  0.00  0.00    +0.000 A 
ATOM      8  C   UNL     1      65.939  69.068  67.381  0.00  0.00    +0.000 A 
BRANCH   6   9
ATOM      9  O   UNL     1      68.210  69.684  67.598  0.00  0.00    +0.000 OA
ATOM     10  C   UNL     1      69.211  69.277  68.494  0.00  0.00    +0.000 C 
ENDBRANCH   6   9
BRANCH   8  11
ATOM     11  O   UNL     1      65.598  70.318  67.816  0.00  0.00    +0.000 OA
ATOM     12  H   UNL     1      66.414  70.837  67.947  0.00  0.00    +0.000 HD
ENDBRANCH   8  11
ENDBRANCH   2   3
BRANCH   1  14
ATOM     13  O   UNL     1      67.227  62.067  64.044  0.00  0.00    +0.000 OA
ATOM     14  C   UNL     1      67.690  62.496  65.090  0.00  0.00    +0.000 C 
ATOM     15  C   UNL     1      68.586  61.689  65.870  0.00  0.00    +0.000 C 
ATOM     16  C   UNL     1      69.464  60.890  66.634  0.00  0.00    +0.000 C 
BRANCH  16  17
ATOM     17  O   UNL     1      70.155  61.505  67.650  0.00  0.00    +0.000 OA
ATOM     18  H   UNL     1      70.108  62.474  67.584  0.00  0.00    +0.000 HD
ENDBRANCH  16  17
BRANCH  16  19
ATOM     19  C   UNL     1      69.663  59.506  66.409  0.00  0.00    +0.000 C 
ATOM     20  C   UNL     1      69.885  58.008  66.171  0.00  0.00    +0.000 C 
BRANCH  20  21
ATOM     21  C   UNL     1      70.113  56.512  65.937  0.00  0.00    +0.000 C 
ATOM     22  C   UNL     1      70.339  55.015  65.704  0.00  0.00    +0.000 C 
ATOM     23  C   UNL     1      70.559  53.516  65.474  0.00  0.00    +0.000 C 
ENDBRANCH  20  21
ENDBRANCH  16  19
ENDBRANCH   1  14
TORSDOF 7
ENDMDL
MODEL 7
REMARK VINA RESULT:      -5.0     24.717     28.545
REMARK  Name = 442793_6gingerol.pdbqt.pdb
REMARK  7 active torsions:
REMARK  status: ('A' for Active; 'I' for Inactive)
REMARK    1  A    between atoms: C_1  and  C_3
REMARK    2  A    between atoms: C_5  and  O_6
REMARK    3  A    between atoms: C_5  and  C_8
REMARK    4  A    between atoms: C_9  and  C_10
REMARK    5  A    between atoms: C_13  and  C_14
REMARK    6  A    between atoms: C_17  and  O_20
REMARK    7  A    between atoms: C_19  and  O_22
REMARK                            x       y       z     vdW  Elec       q    Type
REMARK                         _______ _______ _______ _____ _____    ______ ____
ROOT
ATOM      1  C   UNL     1      67.298  63.865  65.541  0.00  0.00    +0.000 C 
ATOM      2  C   UNL     1      66.967  65.295  65.986  0.00  0.00    +0.000 C 
ENDROOT
BRANCH   2   3
ATOM      3  C   UNL     1      66.662  66.624  66.397  0.00  0.00    +0.000 A 
ATOM      4  C   UNL     1      65.422  66.906  66.967  0.00  0.00    +0.000 A 
ATOM      5  C   UNL     1      67.602  67.636  66.227  0.00  0.00    +0.000 A 
ATOM      6  C   UNL     1      65.107  68.206  67.375  0.00  0.00    +0.000 A 
ATOM      7  C   UNL     1      67.302  68.936  66.629  0.00  0.00    +0.000 A 
ATOM      8  C   UNL     1      66.060  69.214  67.199  0.00  0.00    +0.000 A 
BRANCH   6   9
ATOM      9  O   UNL     1      63.911  68.571  67.943  0.00  0.00    +0.000 OA
ATOM     10  C   UNL     1      62.866  67.646  67.802  0.00  0.00    +0.000 C 
ENDBRANCH   6   9
BRANCH   8  11
ATOM     11  O   UNL     1      65.772  70.491  67.591  0.00  0.00    +0.000 OA
ATOM     12  H   UNL     1      64.900  70.740  67.231  0.00  0.00    +0.000 HD
ENDBRANCH   8  11
ENDBRANCH   2   3
BRANCH   1  14
ATOM     13  O   UNL     1      67.058  62.037  64.145  0.00  0.00    +0.000 OA
ATOM     14  C   UNL     1      67.610  62.522  65.121  0.00  0.00    +0.000 C 
ATOM     15  C   UNL     1      68.575  61.757  65.860  0.00  0.00    +0.000 C 
ATOM     16  C   UNL     1      69.520  60.999  66.585  0.00  0.00    +0.000 C 
BRANCH  16  17
ATOM     17  O   UNL     1      70.297  61.667  67.501  0.00  0.00    +0.000 OA
ATOM     18  H   UNL     1      69.782  62.322  68.003  0.00  0.00    +0.000 HD
ENDBRANCH  16  17
BRANCH  16  19
ATOM     19  C   UNL     1      69.703  59.605  66.418  0.00  0.00    +0.000 C 
ATOM     20  C   UNL     1      69.903  58.097  66.228  0.00  0.00    +0.000 C 
BRANCH  20  21
ATOM     21  C   UNL     1      70.104  56.592  66.031  0.00  0.00    +0.000 C 
ATOM     22  C   UNL     1      70.303  55.085  65.834  0.00  0.00    +0.000 C 
ATOM     23  C   UNL     1      70.496  53.579  65.632  0.00  0.00    +0.000 C 
ENDBRANCH  20  21
ENDBRANCH  16  19
ENDBRANCH   1  14
TORSDOF 7
ENDMDL
MODEL 8
REMARK VINA RESULT:      -4.9     15.849     19.023
REMARK  Name = 442793_6gingerol.pdbqt.pdb
REMARK  7 active torsions:
REMARK  status: ('A' for Active; 'I' for Inactive)
REMARK    1  A    between atoms: C_1  and  C_3
REMARK    2  A    between atoms: C_5  and  O_6
REMARK    3  A    between atoms: C_5  and  C_8
REMARK    4  A    between atoms: C_9  and  C_10
REMARK    5  A    between atoms: C_13  and  C_14
REMARK    6  A    between atoms: C_17  and  O_20
REMARK    7  A    between atoms: C_19  and  O_22
REMARK                            x       y       z     vdW  Elec       q    Type
REMARK                         _______ _______ _______ _____ _____    ______ ____
ROOT
ATOM      1  C   UNL     1      50.761  48.506  56.699  0.00  0.00    +0.000 C 
ATOM      2  C   UNL     1      49.317  48.006  56.836  0.00  0.00    +0.000 C 
ENDROOT
BRANCH   2   3
ATOM      3  C   UNL     1      47.977  47.541  56.964  0.00  0.00    +0.000 A 
ATOM      4  C   UNL     1      47.016  48.352  57.564  0.00  0.00    +0.000 A 
ATOM      5  C   UNL     1      47.633  46.278  56.491  0.00  0.00    +0.000 A 
ATOM      6  C   UNL     1      45.697  47.909  57.699  0.00  0.00    +0.000 A 
ATOM      7  C   UNL     1      46.322  45.824  56.618  0.00  0.00    +0.000 A 
ATOM      8  C   UNL     1      45.364  46.638  57.220  0.00  0.00    +0.000 A 
BRANCH   6   9
ATOM      9  O   UNL     1      44.688  48.641  58.277  0.00  0.00    +0.000 OA
ATOM     10  C   UNL     1      44.268  49.768  57.555  0.00  0.00    +0.000 C 
ENDBRANCH   6   9
BRANCH   8  11
ATOM     11  O   UNL     1      44.079  46.186  57.341  0.00  0.00    +0.000 OA
ATOM     12  H   UNL     1      44.072  45.221  57.197  0.00  0.00    +0.000 HD
ENDBRANCH   8  11
ENDBRANCH   2   3
BRANCH   1  14
ATOM     13  O   UNL     1      52.814  48.598  55.640  0.00  0.00    +0.000 OA
ATOM     14  C   UNL     1      52.118  48.972  56.572  0.00  0.00    +0.000 C 
ATOM     15  C   UNL     1      52.648  49.879  57.551  0.00  0.00    +0.000 C 
ATOM     16  C   UNL     1      53.175  50.769  58.513  0.00  0.00    +0.000 C 
BRANCH  16  17
ATOM     17  O   UNL     1      52.288  51.359  59.380  0.00  0.00    +0.000 OA
ATOM     18  H   UNL     1      51.664  50.713  59.755  0.00  0.00    +0.000 HD
ENDBRANCH  16  17
BRANCH  16  19
ATOM     19  C   UNL     1      54.553  51.076  58.626  0.00  0.00    +0.000 C 
ATOM     20  C   UNL     1      56.043  51.406  58.758  0.00  0.00    +0.000 C 
BRANCH  20  21
ATOM     21  C   UNL     1      57.533  51.735  58.897  0.00  0.00    +0.000 C 
ATOM     22  C   UNL     1      59.022  52.066  59.035  0.00  0.00    +0.000 C 
ATOM     23  C   UNL     1      60.510  52.403  59.178  0.00  0.00    +0.000 C 
ENDBRANCH  20  21
ENDBRANCH  16  19
ENDBRANCH   1  14
TORSDOF 7
ENDMDL
MODEL 9
REMARK VINA RESULT:      -4.9     10.942     13.460
REMARK  Name = 442793_6gingerol.pdbqt.pdb
REMARK  7 active torsions:
REMARK  status: ('A' for Active; 'I' for Inactive)
REMARK    1  A    between atoms: C_1  and  C_3
REMARK    2  A    between atoms: C_5  and  O_6
REMARK    3  A    between atoms: C_5  and  C_8
REMARK    4  A    between atoms: C_9  and  C_10
REMARK    5  A    between atoms: C_13  and  C_14
REMARK    6  A    between atoms: C_17  and  O_20
REMARK    7  A    between atoms: C_19  and  O_22
REMARK                            x       y       z     vdW  Elec       q    Type
REMARK                         _______ _______ _______ _____ _____    ______ ____
ROOT
ATOM      1  C   UNL     1      49.673  35.914  61.314  0.00  0.00    +0.000 C 
ATOM      2  C   UNL     1      50.380  35.715  59.967  0.00  0.00    +0.000 C 
ENDROOT
BRANCH   2   3
ATOM      3  C   UNL     1      51.034  35.528  58.716  0.00  0.00    +0.000 A 
ATOM      4  C   UNL     1      51.534  34.273  58.375  0.00  0.00    +0.000 A 
ATOM      5  C   UNL     1      51.173  36.600  57.838  0.00  0.00    +0.000 A 
ATOM      6  C   UNL     1      52.179  34.074  57.151  0.00  0.00    +0.000 A 
ATOM      7  C   UNL     1      51.813  36.416  56.615  0.00  0.00    +0.000 A 
ATOM      8  C   UNL     1      52.312  35.158  56.279  0.00  0.00    +0.000 A 
BRANCH   6   9
ATOM      9  O   UNL     1      52.701  32.872  56.737  0.00  0.00    +0.000 OA
ATOM     10  C   UNL     1      53.237  32.063  57.750  0.00  0.00    +0.000 C 
ENDBRANCH   6   9
BRANCH   8  11
ATOM     11  O   UNL     1      52.940  34.984  55.076  0.00  0.00    +0.000 OA
ATOM     12  H   UNL     1      53.845  35.342  55.142  0.00  0.00    +0.000 HD
ENDBRANCH   8  11
ENDBRANCH   2   3
BRANCH   1  14
ATOM     13  O   UNL     1      49.602  35.895  63.625  0.00  0.00    +0.000 OA
ATOM     14  C   UNL     1      49.007  36.100  62.578  0.00  0.00    +0.000 C 
ATOM     15  C   UNL     1      47.635  36.525  62.598  0.00  0.00    +0.000 C 
ATOM     16  C   UNL     1      46.286  36.941  62.623  0.00  0.00    +0.000 C 
BRANCH  16  17
ATOM     17  O   UNL     1      45.746  37.406  61.449  0.00  0.00    +0.000 OA
ATOM     18  H   UNL     1      45.072  36.801  61.095  0.00  0.00    +0.000 HD
ENDBRANCH  16  17
BRANCH  16  19
ATOM     19  C   UNL     1      45.474  36.900  63.783  0.00  0.00    +0.000 C 
ATOM     20  C   UNL     1      44.597  36.865  65.039  0.00  0.00    +0.000 C 
BRANCH  20  21
ATOM     21  C   UNL     1      43.723  36.836  66.296  0.00  0.00    +0.000 C 
ATOM     22  C   UNL     1      42.851  36.807  67.555  0.00  0.00    +0.000 C 
ATOM     23  C   UNL     1      41.984  36.781  68.818  0.00  0.00    +0.000 C 
ENDBRANCH  20  21
ENDBRANCH  16  19
ENDBRANCH   1  14
TORSDOF 7
ENDMDL
