MODEL 1
REMARK VINA RESULT:      -7.3      0.000      0.000
REMARK  Name = 44423609_SipholenoneA.pdbqt.pdb
REMARK  4 active torsions:
REMARK  status: ('A' for Active; 'I' for Inactive)
REMARK    1  A    between atoms: C_3  and  C_19
REMARK    2  A    between atoms: C_5  and  O_17
REMARK    3  A    between atoms: C_20  and  C_24
REMARK    4  A    between atoms: C_25  and  O_35
REMARK                            x       y       z     vdW  Elec       q    Type
REMARK                         _______ _______ _______ _____ _____    ______ ____
ROOT
ATOM      1  O   UNL     1      56.646  70.173  81.314  0.00  0.00    +0.000 OA
ATOM      2  O   UNL     1      58.024  70.225  84.748  0.00  0.00    +0.000 OA
ATOM      3  C   UNL     1      57.469  73.721  79.782  0.00  0.00    +0.000 C 
ATOM      4  C   UNL     1      57.738  72.323  80.335  0.00  0.00    +0.000 C 
ATOM      5  C   UNL     1      56.262  73.971  78.893  0.00  0.00    +0.000 C 
ATOM      6  C   UNL     1      56.494  71.388  80.636  0.00  0.00    +0.000 C 
ATOM      7  C   UNL     1      55.342  72.858  79.026  0.00  0.00    +0.000 C 
ATOM      8  C   UNL     1      55.358  71.602  79.831  0.00  0.00    +0.000 C 
ATOM      9  C   UNL     1      58.356  72.403  81.669  0.00  0.00    +0.000 C 
ATOM     10  C   UNL     1      58.685  71.557  79.370  0.00  0.00    +0.000 C 
ATOM     11  C   UNL     1      55.589  75.303  79.244  0.00  0.00    +0.000 C 
ATOM     12  C   UNL     1      58.344  71.693  83.006  0.00  0.00    +0.000 C 
ATOM     13  C   UNL     1      56.400  70.104  82.759  0.00  0.00    +0.000 C 
ATOM     14  C   UNL     1      57.646  70.602  83.647  0.00  0.00    +0.000 C 
ATOM     15  C   UNL     1      56.112  68.594  83.042  0.00  0.00    +0.000 C 
ATOM     16  C   UNL     1      55.127  70.947  83.141  0.00  0.00    +0.000 C 
ENDROOT
BRANCH   5  17
ATOM     17  O   UNL     1      56.675  74.089  77.555  0.00  0.00    +0.000 OA
ATOM     18  H   UNL     1      57.210  74.903  77.594  0.00  0.00    +0.000 HD
ENDBRANCH   5  17
BRANCH   3  19
ATOM     19  C   UNL     1      58.492  74.729  79.889  0.00  0.00    +0.000 C 
ATOM     20  C   UNL     1      59.577  75.804  79.992  0.00  0.00    +0.000 C 
BRANCH  20  24
ATOM     21  C   UNL     1      61.060  78.616  78.240  0.00  0.00    +0.000 C 
ATOM     22  C   UNL     1      61.435  77.244  78.853  0.00  0.00    +0.000 C 
ATOM     23  C   UNL     1      61.198  79.952  78.923  0.00  0.00    +0.000 C 
ATOM     24  C   UNL     1      60.599  76.808  80.080  0.00  0.00    +0.000 C 
ATOM     25  C   UNL     1      60.775  81.105  78.011  0.00  0.00    +0.000 C 
ATOM     26  C   UNL     1      60.586  78.881  76.923  0.00  0.00    +0.000 C 
ATOM     27  C   UNL     1      60.432  80.371  76.800  0.00  0.00    +0.000 C 
ATOM     28  C   UNL     1      61.151  79.908  80.332  0.00  0.00    +0.000 C 
ATOM     29  C   UNL     1      60.777  77.494  81.361  0.00  0.00    +0.000 C 
ATOM     30  C   UNL     1      61.289  76.153  77.723  0.00  0.00    +0.000 C 
ATOM     31  C   UNL     1      62.956  77.270  79.230  0.00  0.00    +0.000 C 
ATOM     32  C   UNL     1      60.973  78.774  81.306  0.00  0.00    +0.000 C 
ATOM     33  C   UNL     1      61.866  82.154  77.873  0.00  0.00    +0.000 C 
ATOM     34  C   UNL     1      60.332  76.930  82.685  0.00  0.00    +0.000 C 
BRANCH  25  35
ATOM     35  O   UNL     1      59.640  81.753  78.531  0.00  0.00    +0.000 OA
ATOM     36  H   UNL     1      59.939  82.679  78.519  0.00  0.00    +0.000 HD
ENDBRANCH  25  35
ENDBRANCH  20  24
ENDBRANCH   3  19
TORSDOF 4
ENDMDL
MODEL 2
REMARK VINA RESULT:      -6.9     27.352     30.857
REMARK  Name = 44423609_SipholenoneA.pdbqt.pdb
REMARK  4 active torsions:
REMARK  status: ('A' for Active; 'I' for Inactive)
REMARK    1  A    between atoms: C_3  and  C_19
REMARK    2  A    between atoms: C_5  and  O_17
REMARK    3  A    between atoms: C_20  and  C_24
REMARK    4  A    between atoms: C_25  and  O_35
REMARK                            x       y       z     vdW  Elec       q    Type
REMARK                         _______ _______ _______ _____ _____    ______ ____
ROOT
ATOM      1  O   UNL     1      62.015  59.516  59.716  0.00  0.00    +0.000 OA
ATOM      2  O   UNL     1      63.700  60.249  56.503  0.00  0.00    +0.000 OA
ATOM      3  C   UNL     1      61.702  55.580  59.881  0.00  0.00    +0.000 C 
ATOM      4  C   UNL     1      62.389  56.945  59.868  0.00  0.00    +0.000 C 
ATOM      5  C   UNL     1      60.382  55.397  60.610  0.00  0.00    +0.000 C 
ATOM      6  C   UNL     1      61.475  58.240  59.911  0.00  0.00    +0.000 C 
ATOM      7  C   UNL     1      59.808  56.702  60.877  0.00  0.00    +0.000 C 
ATOM      8  C   UNL     1      60.242  58.097  60.576  0.00  0.00    +0.000 C 
ATOM      9  C   UNL     1      63.107  57.153  58.599  0.00  0.00    +0.000 C 
ATOM     10  C   UNL     1      63.393  57.032  61.052  0.00  0.00    +0.000 C 
ATOM     11  C   UNL     1      59.426  54.516  59.800  0.00  0.00    +0.000 C 
ATOM     12  C   UNL     1      63.429  58.249  57.606  0.00  0.00    +0.000 C 
ATOM     13  C   UNL     1      61.957  60.141  58.390  0.00  0.00    +0.000 C 
ATOM     14  C   UNL     1      63.117  59.643  57.393  0.00  0.00    +0.000 C 
ATOM     15  C   UNL     1      62.108  61.672  58.664  0.00  0.00    +0.000 C 
ATOM     16  C   UNL     1      60.556  59.879  57.720  0.00  0.00    +0.000 C 
ENDROOT
BRANCH   5  17
ATOM     17  O   UNL     1      60.600  54.717  61.821  0.00  0.00    +0.000 OA
ATOM     18  H   UNL     1      61.394  55.173  62.153  0.00  0.00    +0.000 HD
ENDBRANCH   5  17
BRANCH   3  19
ATOM     19  C   UNL     1      62.430  54.422  59.428  0.00  0.00    +0.000 C 
ATOM     20  C   UNL     1      63.206  53.198  58.936  0.00  0.00    +0.000 C 
BRANCH  20  24
ATOM     21  C   UNL     1      66.540  51.883  58.364  0.00  0.00    +0.000 C 
ATOM     22  C   UNL     1      65.215  52.174  57.617  0.00  0.00    +0.000 C 
ATOM     23  C   UNL     1      66.946  50.555  58.950  0.00  0.00    +0.000 C 
ATOM     24  C   UNL     1      63.926  52.050  58.466  0.00  0.00    +0.000 C 
ATOM     25  C   UNL     1      68.339  50.611  59.579  0.00  0.00    +0.000 C 
ATOM     26  C   UNL     1      67.633  52.772  58.579  0.00  0.00    +0.000 C 
ATOM     27  C   UNL     1      68.701  51.994  59.295  0.00  0.00    +0.000 C 
ATOM     28  C   UNL     1      65.875  49.709  59.306  0.00  0.00    +0.000 C 
ATOM     29  C   UNL     1      63.463  50.728  58.892  0.00  0.00    +0.000 C 
ATOM     30  C   UNL     1      65.300  53.637  57.033  0.00  0.00    +0.000 C 
ATOM     31  C   UNL     1      65.127  51.222  56.376  0.00  0.00    +0.000 C 
ATOM     32  C   UNL     1      64.380  49.877  59.230  0.00  0.00    +0.000 C 
ATOM     33  C   UNL     1      69.264  49.547  59.014  0.00  0.00    +0.000 C 
ATOM     34  C   UNL     1      62.062  50.442  59.367  0.00  0.00    +0.000 C 
BRANCH  25  35
ATOM     35  O   UNL     1      68.261  50.399  60.967  0.00  0.00    +0.000 OA
ATOM     36  H   UNL     1      69.200  50.473  61.214  0.00  0.00    +0.000 HD
ENDBRANCH  25  35
ENDBRANCH  20  24
ENDBRANCH   3  19
TORSDOF 4
ENDMDL
MODEL 3
REMARK VINA RESULT:      -6.7     14.269     17.635
REMARK  Name = 44423609_SipholenoneA.pdbqt.pdb
REMARK  4 active torsions:
REMARK  status: ('A' for Active; 'I' for Inactive)
REMARK    1  A    between atoms: C_3  and  C_19
REMARK    2  A    between atoms: C_5  and  O_17
REMARK    3  A    between atoms: C_20  and  C_24
REMARK    4  A    between atoms: C_25  and  O_35
REMARK                            x       y       z     vdW  Elec       q    Type
REMARK                         _______ _______ _______ _____ _____    ______ ____
ROOT
ATOM      1  O   UNL     1      48.942  62.325  76.569  0.00  0.00    +0.000 OA
ATOM      2  O   UNL     1      51.902  64.394  75.760  0.00  0.00    +0.000 OA
ATOM      3  C   UNL     1      50.304  59.321  78.745  0.00  0.00    +0.000 C 
ATOM      4  C   UNL     1      49.943  60.763  78.394  0.00  0.00    +0.000 C 
ATOM      5  C   UNL     1      49.395  58.181  78.316  0.00  0.00    +0.000 C 
ATOM      6  C   UNL     1      49.145  61.027  77.050  0.00  0.00    +0.000 C 
ATOM      7  C   UNL     1      48.485  58.664  77.295  0.00  0.00    +0.000 C 
ATOM      8  C   UNL     1      48.299  59.984  76.626  0.00  0.00    +0.000 C 
ATOM      9  C   UNL     1      51.159  61.560  78.157  0.00  0.00    +0.000 C 
ATOM     10  C   UNL     1      49.130  61.392  79.561  0.00  0.00    +0.000 C 
ATOM     11  C   UNL     1      50.214  56.984  77.821  0.00  0.00    +0.000 C 
ATOM     12  C   UNL     1      51.672  62.671  77.266  0.00  0.00    +0.000 C 
ATOM     13  C   UNL     1      49.838  62.876  75.547  0.00  0.00    +0.000 C 
ATOM     14  C   UNL     1      51.215  63.456  76.143  0.00  0.00    +0.000 C 
ATOM     15  C   UNL     1      49.018  64.028  74.877  0.00  0.00    +0.000 C 
ATOM     16  C   UNL     1      50.168  61.787  74.459  0.00  0.00    +0.000 C 
ENDROOT
BRANCH   5  17
ATOM     17  O   UNL     1      48.665  57.716  79.423  0.00  0.00    +0.000 OA
ATOM     18  H   UNL     1      47.776  57.621  79.036  0.00  0.00    +0.000 HD
ENDBRANCH   5  17
BRANCH   3  19
ATOM     19  C   UNL     1      51.358  59.070  79.694  0.00  0.00    +0.000 C 
ATOM     20  C   UNL     1      52.476  58.816  80.708  0.00  0.00    +0.000 C 
BRANCH  20  24
ATOM     21  C   UNL     1      55.076  60.461  82.635  0.00  0.00    +0.000 C 
ATOM     22  C   UNL     1      54.881  59.338  81.586  0.00  0.00    +0.000 C 
ATOM     23  C   UNL     1      55.157  60.267  84.127  0.00  0.00    +0.000 C 
ATOM     24  C   UNL     1      53.530  58.585  81.654  0.00  0.00    +0.000 C 
ATOM     25  C   UNL     1      55.397  61.586  84.862  0.00  0.00    +0.000 C 
ATOM     26  C   UNL     1      55.278  61.851  82.395  0.00  0.00    +0.000 C 
ATOM     27  C   UNL     1      55.479  62.505  83.733  0.00  0.00    +0.000 C 
ATOM     28  C   UNL     1      54.498  59.119  84.614  0.00  0.00    +0.000 C 
ATOM     29  C   UNL     1      53.264  57.672  82.767  0.00  0.00    +0.000 C 
ATOM     30  C   UNL     1      55.032  59.982  80.154  0.00  0.00    +0.000 C 
ATOM     31  C   UNL     1      56.063  58.320  81.725  0.00  0.00    +0.000 C 
ATOM     32  C   UNL     1      53.704  58.038  83.930  0.00  0.00    +0.000 C 
ATOM     33  C   UNL     1      56.618  61.524  85.764  0.00  0.00    +0.000 C 
ATOM     34  C   UNL     1      52.192  56.613  82.747  0.00  0.00    +0.000 C 
BRANCH  25  35
ATOM     35  O   UNL     1      54.295  61.905  85.676  0.00  0.00    +0.000 OA
ATOM     36  H   UNL     1      53.945  62.683  85.209  0.00  0.00    +0.000 HD
ENDBRANCH  25  35
ENDBRANCH  20  24
ENDBRANCH   3  19
TORSDOF 4
ENDMDL
MODEL 4
REMARK VINA RESULT:      -6.6     20.399     23.391
REMARK  Name = 44423609_SipholenoneA.pdbqt.pdb
REMARK  4 active torsions:
REMARK  status: ('A' for Active; 'I' for Inactive)
REMARK    1  A    between atoms: C_3  and  C_19
REMARK    2  A    between atoms: C_5  and  O_17
REMARK    3  A    between atoms: C_20  and  C_24
REMARK    4  A    between atoms: C_25  and  O_35
REMARK                            x       y       z     vdW  Elec       q    Type
REMARK                         _______ _______ _______ _____ _____    ______ ____
ROOT
ATOM      1  O   UNL     1      77.867  66.499  72.251  0.00  0.00    +0.000 OA
ATOM      2  O   UNL     1      74.683  64.866  71.309  0.00  0.00    +0.000 OA
ATOM      3  C   UNL     1      78.406  65.661  76.075  0.00  0.00    +0.000 C 
ATOM      4  C   UNL     1      78.291  65.404  74.573  0.00  0.00    +0.000 C 
ATOM      5  C   UNL     1      79.085  66.922  76.583  0.00  0.00    +0.000 C 
ATOM      6  C   UNL     1      78.162  66.657  73.610  0.00  0.00    +0.000 C 
ATOM      7  C   UNL     1      79.194  67.870  75.492  0.00  0.00    +0.000 C 
ATOM      8  C   UNL     1      78.778  67.841  74.059  0.00  0.00    +0.000 C 
ATOM      9  C   UNL     1      77.044  64.685  74.263  0.00  0.00    +0.000 C 
ATOM     10  C   UNL     1      79.508  64.562  74.097  0.00  0.00    +0.000 C 
ATOM     11  C   UNL     1      78.320  67.515  77.771  0.00  0.00    +0.000 C 
ATOM     12  C   UNL     1      75.964  64.623  73.205  0.00  0.00    +0.000 C 
ATOM     13  C   UNL     1      76.485  66.638  71.780  0.00  0.00    +0.000 C 
ATOM     14  C   UNL     1      75.599  65.311  71.988  0.00  0.00    +0.000 C 
ATOM     15  C   UNL     1      76.613  66.961  70.256  0.00  0.00    +0.000 C 
ATOM     16  C   UNL     1      75.777  67.846  72.500  0.00  0.00    +0.000 C 
ENDROOT
BRANCH   5  17
ATOM     17  O   UNL     1      80.366  66.606  77.069  0.00  0.00    +0.000 OA
ATOM     18  H   UNL     1      80.511  65.732  76.664  0.00  0.00    +0.000 HD
ENDBRANCH   5  17
BRANCH   3  19
ATOM     19  C   UNL     1      78.105  64.595  76.996  0.00  0.00    +0.000 C 
ATOM     20  C   UNL     1      77.774  63.461  77.969  0.00  0.00    +0.000 C 
BRANCH  20  24
ATOM     21  C   UNL     1      78.112  62.392  81.421  0.00  0.00    +0.000 C 
ATOM     22  C   UNL     1      78.444  61.933  79.979  0.00  0.00    +0.000 C 
ATOM     23  C   UNL     1      76.897  61.987  82.215  0.00  0.00    +0.000 C 
ATOM     24  C   UNL     1      77.456  62.402  78.884  0.00  0.00    +0.000 C 
ATOM     25  C   UNL     1      76.907  62.590  83.621  0.00  0.00    +0.000 C 
ATOM     26  C   UNL     1      78.902  63.211  82.278  0.00  0.00    +0.000 C 
ATOM     27  C   UNL     1      78.175  63.310  83.589  0.00  0.00    +0.000 C 
ATOM     28  C   UNL     1      75.774  61.627  81.442  0.00  0.00    +0.000 C 
ATOM     29  C   UNL     1      76.113  61.823  78.821  0.00  0.00    +0.000 C 
ATOM     30  C   UNL     1      79.887  62.462  79.623  0.00  0.00    +0.000 C 
ATOM     31  C   UNL     1      78.545  60.370  79.969  0.00  0.00    +0.000 C 
ATOM     32  C   UNL     1      75.537  61.579  79.956  0.00  0.00    +0.000 C 
ATOM     33  C   UNL     1      76.766  61.529  84.699  0.00  0.00    +0.000 C 
ATOM     34  C   UNL     1      75.222  61.897  77.608  0.00  0.00    +0.000 C 
BRANCH  25  35
ATOM     35  O   UNL     1      75.836  63.488  83.780  0.00  0.00    +0.000 OA
ATOM     36  H   UNL     1      75.993  63.797  84.689  0.00  0.00    +0.000 HD
ENDBRANCH  25  35
ENDBRANCH  20  24
ENDBRANCH   3  19
TORSDOF 4
ENDMDL
MODEL 5
REMARK VINA RESULT:      -6.6     27.828     31.392
REMARK  Name = 44423609_SipholenoneA.pdbqt.pdb
REMARK  4 active torsions:
REMARK  status: ('A' for Active; 'I' for Inactive)
REMARK    1  A    between atoms: C_3  and  C_19
REMARK    2  A    between atoms: C_5  and  O_17
REMARK    3  A    between atoms: C_20  and  C_24
REMARK    4  A    between atoms: C_25  and  O_35
REMARK                            x       y       z     vdW  Elec       q    Type
REMARK                         _______ _______ _______ _____ _____    ______ ____
ROOT
ATOM      1  O   UNL     1      62.113  59.445  59.776  0.00  0.00    +0.000 OA
ATOM      2  O   UNL     1      64.053  59.955  56.666  0.00  0.00    +0.000 OA
ATOM      3  C   UNL     1      61.718  55.532  60.156  0.00  0.00    +0.000 C 
ATOM      4  C   UNL     1      62.428  56.884  60.114  0.00  0.00    +0.000 C 
ATOM      5  C   UNL     1      60.343  55.411  60.790  0.00  0.00    +0.000 C 
ATOM      6  C   UNL     1      61.536  58.191  60.006  0.00  0.00    +0.000 C 
ATOM      7  C   UNL     1      59.772  56.737  60.931  0.00  0.00    +0.000 C 
ATOM      8  C   UNL     1      60.253  58.106  60.580  0.00  0.00    +0.000 C 
ATOM      9  C   UNL     1      63.245  57.003  58.895  0.00  0.00    +0.000 C 
ATOM     10  C   UNL     1      63.338  57.032  61.365  0.00  0.00    +0.000 C 
ATOM     11  C   UNL     1      59.436  54.494  59.962  0.00  0.00    +0.000 C 
ATOM     12  C   UNL     1      63.662  58.031  57.864  0.00  0.00    +0.000 C 
ATOM     13  C   UNL     1      62.168  59.987  58.413  0.00  0.00    +0.000 C 
ATOM     14  C   UNL     1      63.392  59.413  57.543  0.00  0.00    +0.000 C 
ATOM     15  C   UNL     1      62.325  61.531  58.605  0.00  0.00    +0.000 C 
ATOM     16  C   UNL     1      60.819  59.702  57.653  0.00  0.00    +0.000 C 
ENDROOT
BRANCH   5  17
ATOM     17  O   UNL     1      60.454  54.805  62.053  0.00  0.00    +0.000 OA
ATOM     18  H   UNL     1      61.383  54.511  62.040  0.00  0.00    +0.000 HD
ENDBRANCH   5  17
BRANCH   3  19
ATOM     19  C   UNL     1      62.458  54.339  59.833  0.00  0.00    +0.000 C 
ATOM     20  C   UNL     1      63.255  53.078  59.490  0.00  0.00    +0.000 C 
BRANCH  20  24
ATOM     21  C   UNL     1      63.301  50.160  57.332  0.00  0.00    +0.000 C 
ATOM     22  C   UNL     1      63.323  50.551  58.830  0.00  0.00    +0.000 C 
ATOM     23  C   UNL     1      64.511  49.859  56.484  0.00  0.00    +0.000 C 
ATOM     24  C   UNL     1      64.006  51.900  59.160  0.00  0.00    +0.000 C 
ATOM     25  C   UNL     1      64.123  49.464  55.058  0.00  0.00    +0.000 C 
ATOM     26  C   UNL     1      62.162  49.950  56.502  0.00  0.00    +0.000 C 
ATOM     27  C   UNL     1      62.670  49.525  55.153  0.00  0.00    +0.000 C 
ATOM     28  C   UNL     1      65.705  50.474  56.912  0.00  0.00    +0.000 C 
ATOM     29  C   UNL     1      65.461  52.024  59.048  0.00  0.00    +0.000 C 
ATOM     30  C   UNL     1      61.830  50.599  59.339  0.00  0.00    +0.000 C 
ATOM     31  C   UNL     1      64.013  49.397  59.633  0.00  0.00    +0.000 C 
ATOM     32  C   UNL     1      66.017  51.399  58.058  0.00  0.00    +0.000 C 
ATOM     33  C   UNL     1      64.713  48.123  54.656  0.00  0.00    +0.000 C 
ATOM     34  C   UNL     1      66.263  53.122  59.697  0.00  0.00    +0.000 C 
BRANCH  25  35
ATOM     35  O   UNL     1      64.595  50.417  54.138  0.00  0.00    +0.000 OA
ATOM     36  H   UNL     1      64.122  50.142  53.333  0.00  0.00    +0.000 HD
ENDBRANCH  25  35
ENDBRANCH  20  24
ENDBRANCH   3  19
TORSDOF 4
ENDMDL
MODEL 6
REMARK VINA RESULT:      -6.2      3.139      5.493
REMARK  Name = 44423609_SipholenoneA.pdbqt.pdb
REMARK  4 active torsions:
REMARK  status: ('A' for Active; 'I' for Inactive)
REMARK    1  A    between atoms: C_3  and  C_19
REMARK    2  A    between atoms: C_5  and  O_17
REMARK    3  A    between atoms: C_20  and  C_24
REMARK    4  A    between atoms: C_25  and  O_35
REMARK                            x       y       z     vdW  Elec       q    Type
REMARK                         _______ _______ _______ _____ _____    ______ ____
ROOT
ATOM      1  O   UNL     1      57.396  74.685  85.931  0.00  0.00    +0.000 OA
ATOM      2  O   UNL     1      57.728  71.032  85.447  0.00  0.00    +0.000 OA
ATOM      3  C   UNL     1      59.036  76.338  82.739  0.00  0.00    +0.000 C 
ATOM      4  C   UNL     1      58.022  75.536  83.553  0.00  0.00    +0.000 C 
ATOM      5  C   UNL     1      59.647  77.604  83.315  0.00  0.00    +0.000 C 
ATOM      6  C   UNL     1      58.165  75.539  85.132  0.00  0.00    +0.000 C 
ATOM      7  C   UNL     1      59.412  77.630  84.746  0.00  0.00    +0.000 C 
ATOM      8  C   UNL     1      58.734  76.698  85.693  0.00  0.00    +0.000 C 
ATOM      9  C   UNL     1      58.146  74.097  83.265  0.00  0.00    +0.000 C 
ATOM     10  C   UNL     1      56.584  76.012  83.205  0.00  0.00    +0.000 C 
ATOM     11  C   UNL     1      61.142  77.688  82.988  0.00  0.00    +0.000 C 
ATOM     12  C   UNL     1      58.061  72.755  83.960  0.00  0.00    +0.000 C 
ATOM     13  C   UNL     1      57.957  73.411  86.393  0.00  0.00    +0.000 C 
ATOM     14  C   UNL     1      57.875  72.238  85.295  0.00  0.00    +0.000 C 
ATOM     15  C   UNL     1      57.103  73.030  87.647  0.00  0.00    +0.000 C 
ATOM     16  C   UNL     1      59.456  73.597  86.835  0.00  0.00    +0.000 C 
ENDROOT
BRANCH   5  17
ATOM     17  O   UNL     1      59.058  78.730  82.715  0.00  0.00    +0.000 OA
ATOM     18  H   UNL     1      59.806  79.082  82.200  0.00  0.00    +0.000 HD
ENDBRANCH   5  17
BRANCH   3  19
ATOM     19  C   UNL     1      59.210  76.038  81.340  0.00  0.00    +0.000 C 
ATOM     20  C   UNL     1      59.407  75.714  79.857  0.00  0.00    +0.000 C 
BRANCH  20  24
ATOM     21  C   UNL     1      57.702  75.495  76.660  0.00  0.00    +0.000 C 
ATOM     22  C   UNL     1      58.550  74.640  77.635  0.00  0.00    +0.000 C 
ATOM     23  C   UNL     1      58.228  76.245  75.464  0.00  0.00    +0.000 C 
ATOM     24  C   UNL     1      59.599  75.417  78.467  0.00  0.00    +0.000 C 
ATOM     25  C   UNL     1      57.108  76.948  74.695  0.00  0.00    +0.000 C 
ATOM     26  C   UNL     1      56.289  75.678  76.666  0.00  0.00    +0.000 C 
ATOM     27  C   UNL     1      55.951  76.538  75.481  0.00  0.00    +0.000 C 
ATOM     28  C   UNL     1      59.583  76.624  75.548  0.00  0.00    +0.000 C 
ATOM     29  C   UNL     1      60.792  75.955  77.810  0.00  0.00    +0.000 C 
ATOM     30  C   UNL     1      57.561  73.908  78.622  0.00  0.00    +0.000 C 
ATOM     31  C   UNL     1      59.255  73.507  76.816  0.00  0.00    +0.000 C 
ATOM     32  C   UNL     1      60.625  76.439  76.619  0.00  0.00    +0.000 C 
ATOM     33  C   UNL     1      57.092  76.560  73.226  0.00  0.00    +0.000 C 
ATOM     34  C   UNL     1      62.040  76.371  78.544  0.00  0.00    +0.000 C 
BRANCH  25  35
ATOM     35  O   UNL     1      57.272  78.344  74.753  0.00  0.00    +0.000 OA
ATOM     36  H   UNL     1      58.201  78.405  75.037  0.00  0.00    +0.000 HD
ENDBRANCH  25  35
ENDBRANCH  20  24
ENDBRANCH   3  19
TORSDOF 4
ENDMDL
MODEL 7
REMARK VINA RESULT:      -6.1     37.377     40.133
REMARK  Name = 44423609_SipholenoneA.pdbqt.pdb
REMARK  4 active torsions:
REMARK  status: ('A' for Active; 'I' for Inactive)
REMARK    1  A    between atoms: C_3  and  C_19
REMARK    2  A    between atoms: C_5  and  O_17
REMARK    3  A    between atoms: C_20  and  C_24
REMARK    4  A    between atoms: C_25  and  O_35
REMARK                            x       y       z     vdW  Elec       q    Type
REMARK                         _______ _______ _______ _____ _____    ______ ____
ROOT
ATOM      1  O   UNL     1      62.690  38.517  71.472  0.00  0.00    +0.000 OA
ATOM      2  O   UNL     1      61.449  35.731  73.568  0.00  0.00    +0.000 OA
ATOM      3  C   UNL     1      60.898  38.101  67.976  0.00  0.00    +0.000 C 
ATOM      4  C   UNL     1      61.032  38.378  69.472  0.00  0.00    +0.000 C 
ATOM      5  C   UNL     1      61.967  38.586  67.011  0.00  0.00    +0.000 C 
ATOM      6  C   UNL     1      62.490  38.453  70.089  0.00  0.00    +0.000 C 
ATOM      7  C   UNL     1      63.156  38.934  67.764  0.00  0.00    +0.000 C 
ATOM      8  C   UNL     1      63.503  38.895  69.215  0.00  0.00    +0.000 C 
ATOM      9  C   UNL     1      60.454  37.275  70.258  0.00  0.00    +0.000 C 
ATOM     10  C   UNL     1      60.298  39.703  69.822  0.00  0.00    +0.000 C 
ATOM     11  C   UNL     1      62.265  37.526  65.945  0.00  0.00    +0.000 C 
ATOM     12  C   UNL     1      60.695  36.499  71.535  0.00  0.00    +0.000 C 
ATOM     13  C   UNL     1      62.987  37.294  72.227  0.00  0.00    +0.000 C 
ATOM     14  C   UNL     1      61.679  36.430  72.590  0.00  0.00    +0.000 C 
ATOM     15  C   UNL     1      63.680  37.792  73.536  0.00  0.00    +0.000 C 
ATOM     16  C   UNL     1      63.996  36.387  71.429  0.00  0.00    +0.000 C 
ENDROOT
BRANCH   5  17
ATOM     17  O   UNL     1      61.499  39.713  66.313  0.00  0.00    +0.000 OA
ATOM     18  H   UNL     1      60.732  39.338  65.843  0.00  0.00    +0.000 HD
ENDBRANCH   5  17
BRANCH   3  19
ATOM     19  C   UNL     1      59.644  37.614  67.460  0.00  0.00    +0.000 C 
ATOM     20  C   UNL     1      58.313  37.086  66.919  0.00  0.00    +0.000 C 
BRANCH  20  24
ATOM     21  C   UNL     1      54.728  37.049  67.491  0.00  0.00    +0.000 C 
ATOM     22  C   UNL     1      55.935  36.089  67.338  0.00  0.00    +0.000 C 
ATOM     23  C   UNL     1      53.778  37.448  66.392  0.00  0.00    +0.000 C 
ATOM     24  C   UNL     1      57.070  36.583  66.408  0.00  0.00    +0.000 C 
ATOM     25  C   UNL     1      52.674  38.376  66.902  0.00  0.00    +0.000 C 
ATOM     26  C   UNL     1      54.256  37.671  68.682  0.00  0.00    +0.000 C 
ATOM     27  C   UNL     1      53.024  38.450  68.315  0.00  0.00    +0.000 C 
ATOM     28  C   UNL     1      54.313  37.383  65.089  0.00  0.00    +0.000 C 
ATOM     29  C   UNL     1      56.852  36.633  64.961  0.00  0.00    +0.000 C 
ATOM     30  C   UNL     1      56.531  35.829  68.775  0.00  0.00    +0.000 C 
ATOM     31  C   UNL     1      55.404  34.703  66.837  0.00  0.00    +0.000 C 
ATOM     32  C   UNL     1      55.674  37.003  64.568  0.00  0.00    +0.000 C 
ATOM     33  C   UNL     1      51.287  37.844  66.582  0.00  0.00    +0.000 C 
ATOM     34  C   UNL     1      57.964  36.713  63.947  0.00  0.00    +0.000 C 
BRANCH  25  35
ATOM     35  O   UNL     1      52.781  39.644  66.302  0.00  0.00    +0.000 OA
ATOM     36  H   UNL     1      51.847  39.827  66.100  0.00  0.00    +0.000 HD
ENDBRANCH  25  35
ENDBRANCH  20  24
ENDBRANCH   3  19
TORSDOF 4
ENDMDL
MODEL 8
REMARK VINA RESULT:      -6.1      1.755      2.726
REMARK  Name = 44423609_SipholenoneA.pdbqt.pdb
REMARK  4 active torsions:
REMARK  status: ('A' for Active; 'I' for Inactive)
REMARK    1  A    between atoms: C_3  and  C_19
REMARK    2  A    between atoms: C_5  and  O_17
REMARK    3  A    between atoms: C_20  and  C_24
REMARK    4  A    between atoms: C_25  and  O_35
REMARK                            x       y       z     vdW  Elec       q    Type
REMARK                         _______ _______ _______ _____ _____    ______ ____
ROOT
ATOM      1  O   UNL     1      56.984  70.570  81.234  0.00  0.00    +0.000 OA
ATOM      2  O   UNL     1      58.144  71.317  84.668  0.00  0.00    +0.000 OA
ATOM      3  C   UNL     1      57.290  73.969  79.242  0.00  0.00    +0.000 C 
ATOM      4  C   UNL     1      57.756  72.725  79.996  0.00  0.00    +0.000 C 
ATOM      5  C   UNL     1      56.109  73.887  78.290  0.00  0.00    +0.000 C 
ATOM      6  C   UNL     1      56.670  71.639  80.387  0.00  0.00    +0.000 C 
ATOM      7  C   UNL     1      55.380  72.660  78.550  0.00  0.00    +0.000 C 
ATOM      8  C   UNL     1      55.560  71.545  79.525  0.00  0.00    +0.000 C 
ATOM      9  C   UNL     1      58.279  73.087  81.324  0.00  0.00    +0.000 C 
ATOM     10  C   UNL     1      58.869  72.010  79.179  0.00  0.00    +0.000 C 
ATOM     11  C   UNL     1      55.207  75.118  78.428  0.00  0.00    +0.000 C 
ATOM     12  C   UNL     1      58.311  72.572  82.747  0.00  0.00    +0.000 C 
ATOM     13  C   UNL     1      56.674  70.655  82.666  0.00  0.00    +0.000 C 
ATOM     14  C   UNL     1      57.769  71.473  83.513  0.00  0.00    +0.000 C 
ATOM     15  C   UNL     1      56.625  69.169  83.151  0.00  0.00    +0.000 C 
ATOM     16  C   UNL     1      55.260  71.310  82.885  0.00  0.00    +0.000 C 
ENDROOT
BRANCH   5  17
ATOM     17  O   UNL     1      56.570  73.894  76.962  0.00  0.00    +0.000 OA
ATOM     18  H   UNL     1      57.518  73.709  77.091  0.00  0.00    +0.000 HD
ENDBRANCH   5  17
BRANCH   3  19
ATOM     19  C   UNL     1      58.125  75.143  79.238  0.00  0.00    +0.000 C 
ATOM     20  C   UNL     1      59.011  76.391  79.222  0.00  0.00    +0.000 C 
BRANCH  20  24
ATOM     21  C   UNL     1      59.534  79.634  80.767  0.00  0.00    +0.000 C 
ATOM     22  C   UNL     1      59.280  78.985  79.384  0.00  0.00    +0.000 C 
ATOM     23  C   UNL     1      60.883  80.000  81.332  0.00  0.00    +0.000 C 
ATOM     24  C   UNL     1      59.848  77.557  79.200  0.00  0.00    +0.000 C 
ATOM     25  C   UNL     1      60.765  80.663  82.705  0.00  0.00    +0.000 C 
ATOM     26  C   UNL     1      58.566  80.061  81.721  0.00  0.00    +0.000 C 
ATOM     27  C   UNL     1      59.316  80.682  82.865  0.00  0.00    +0.000 C 
ATOM     28  C   UNL     1      61.963  79.242  80.832  0.00  0.00    +0.000 C 
ATOM     29  C   UNL     1      61.295  77.360  79.090  0.00  0.00    +0.000 C 
ATOM     30  C   UNL     1      57.721  78.946  79.147  0.00  0.00    +0.000 C 
ATOM     31  C   UNL     1      59.858  79.933  78.279  0.00  0.00    +0.000 C 
ATOM     32  C   UNL     1      62.036  78.111  79.842  0.00  0.00    +0.000 C 
ATOM     33  C   UNL     1      61.462  82.013  82.749  0.00  0.00    +0.000 C 
ATOM     34  C   UNL     1      61.933  76.115  78.530  0.00  0.00    +0.000 C 
BRANCH  25  35
ATOM     35  O   UNL     1      61.358  79.858  83.694  0.00  0.00    +0.000 OA
ATOM     36  H   UNL     1      61.346  80.466  84.453  0.00  0.00    +0.000 HD
ENDBRANCH  25  35
ENDBRANCH  20  24
ENDBRANCH   3  19
TORSDOF 4
ENDMDL
MODEL 9
REMARK VINA RESULT:      -6.1     15.985     19.160
REMARK  Name = 44423609_SipholenoneA.pdbqt.pdb
REMARK  4 active torsions:
REMARK  status: ('A' for Active; 'I' for Inactive)
REMARK    1  A    between atoms: C_3  and  C_19
REMARK    2  A    between atoms: C_5  and  O_17
REMARK    3  A    between atoms: C_20  and  C_24
REMARK    4  A    between atoms: C_25  and  O_35
REMARK                            x       y       z     vdW  Elec       q    Type
REMARK                         _______ _______ _______ _____ _____    ______ ____
ROOT
ATOM      1  O   UNL     1      65.971  66.272  62.030  0.00  0.00    +0.000 OA
ATOM      2  O   UNL     1      67.556  63.339  63.636  0.00  0.00    +0.000 OA
ATOM      3  C   UNL     1      62.271  66.376  63.414  0.00  0.00    +0.000 C 
ATOM      4  C   UNL     1      63.796  66.467  63.445  0.00  0.00    +0.000 C 
ATOM      5  C   UNL     1      61.499  66.907  62.218  0.00  0.00    +0.000 C 
ATOM      6  C   UNL     1      64.576  66.383  62.068  0.00  0.00    +0.000 C 
ATOM      7  C   UNL     1      62.418  67.093  61.111  0.00  0.00    +0.000 C 
ATOM      8  C   UNL     1      63.882  66.863  60.940  0.00  0.00    +0.000 C 
ATOM      9  C   UNL     1      64.371  65.316  64.162  0.00  0.00    +0.000 C 
ATOM     10  C   UNL     1      64.222  67.784  64.154  0.00  0.00    +0.000 C 
ATOM     11  C   UNL     1      60.351  65.963  61.845  0.00  0.00    +0.000 C 
ATOM     12  C   UNL     1      65.562  64.383  64.108  0.00  0.00    +0.000 C 
ATOM     13  C   UNL     1      66.597  64.954  61.881  0.00  0.00    +0.000 C 
ATOM     14  C   UNL     1      66.703  64.133  63.260  0.00  0.00    +0.000 C 
ATOM     15  C   UNL     1      68.028  65.253  61.325  0.00  0.00    +0.000 C 
ATOM     16  C   UNL     1      65.811  64.088  60.827  0.00  0.00    +0.000 C 
ENDROOT
BRANCH   5  17
ATOM     17  O   UNL     1      60.898  68.133  62.549  0.00  0.00    +0.000 OA
ATOM     18  H   UNL     1      61.657  68.622  62.917  0.00  0.00    +0.000 HD
ENDBRANCH   5  17
BRANCH   3  19
ATOM     19  C   UNL     1      61.563  66.028  64.619  0.00  0.00    +0.000 C 
ATOM     20  C   UNL     1      60.821  65.658  65.906  0.00  0.00    +0.000 C 
BRANCH  20  24
ATOM     21  C   UNL     1      59.392  67.015  68.954  0.00  0.00    +0.000 C 
ATOM     22  C   UNL     1      60.438  65.981  68.470  0.00  0.00    +0.000 C 
ATOM     23  C   UNL     1      57.963  66.712  69.326  0.00  0.00    +0.000 C 
ATOM     24  C   UNL     1      60.131  65.303  67.113  0.00  0.00    +0.000 C 
ATOM     25  C   UNL     1      57.222  67.962  69.805  0.00  0.00    +0.000 C 
ATOM     26  C   UNL     1      59.590  68.404  69.200  0.00  0.00    +0.000 C 
ATOM     27  C   UNL     1      58.289  68.951  69.717  0.00  0.00    +0.000 C 
ATOM     28  C   UNL     1      57.415  65.572  68.703  0.00  0.00    +0.000 C 
ATOM     29  C   UNL     1      59.040  64.330  67.018  0.00  0.00    +0.000 C 
ATOM     30  C   UNL     1      61.832  66.713  68.369  0.00  0.00    +0.000 C 
ATOM     31  C   UNL     1      60.607  64.890  69.582  0.00  0.00    +0.000 C 
ATOM     32  C   UNL     1      57.977  64.588  67.712  0.00  0.00    +0.000 C 
ATOM     33  C   UNL     1      56.600  67.767  71.177  0.00  0.00    +0.000 C 
ATOM     34  C   UNL     1      58.895  63.338  65.893  0.00  0.00    +0.000 C 
BRANCH  25  35
ATOM     35  O   UNL     1      56.178  68.284  68.918  0.00  0.00    +0.000 OA
ATOM     36  H   UNL     1      56.409  69.203  68.695  0.00  0.00    +0.000 HD
ENDBRANCH  25  35
ENDBRANCH  20  24
ENDBRANCH   3  19
TORSDOF 4
ENDMDL
