MODEL 1
REMARK VINA RESULT:      -5.2      0.000      0.000
REMARK  Name = 445154_Resveratrol.pdbqt.pdb
REMARK  5 active torsions:
REMARK  status: ('A' for Active; 'I' for Inactive)
REMARK    1  A    between atoms: C_1  and  C_11
REMARK    2  A    between atoms: C_4  and  O_7
REMARK    3  A    between atoms: C_5  and  O_9
REMARK    4  A    between atoms: C_12  and  C_13
REMARK    5  A    between atoms: C_18  and  O_19
REMARK                            x       y       z     vdW  Elec       q    Type
REMARK                         _______ _______ _______ _____ _____    ______ ____
ROOT
ATOM      1  C   UNL     1      70.338  55.045  64.722  0.00  0.00    +0.000 A 
ATOM      2  C   UNL     1      70.562  54.204  65.811  0.00  0.00    +0.000 A 
ATOM      3  C   UNL     1      70.487  54.565  63.422  0.00  0.00    +0.000 A 
ATOM      4  C   UNL     1      70.861  53.238  63.221  0.00  0.00    +0.000 A 
ATOM      5  C   UNL     1      70.936  52.882  65.589  0.00  0.00    +0.000 A 
ATOM      6  C   UNL     1      71.087  52.388  64.298  0.00  0.00    +0.000 A 
ENDROOT
BRANCH   4   7
ATOM      7  O   UNL     1      71.013  52.740  61.959  0.00  0.00    +0.000 OA
ATOM      8  H   UNL     1      70.344  53.155  61.386  0.00  0.00    +0.000 HD
ENDBRANCH   4   7
BRANCH   5   9
ATOM      9  O   UNL     1      71.150  52.077  66.671  0.00  0.00    +0.000 OA
ATOM     10  H   UNL     1      70.554  52.368  67.384  0.00  0.00    +0.000 HD
ENDBRANCH   5   9
BRANCH   1  11
ATOM     11  C   UNL     1      69.956  56.402  64.937  0.00  0.00    +0.000 C 
ATOM     12  C   UNL     1      69.635  57.546  65.117  0.00  0.00    +0.000 C 
BRANCH  12  13
ATOM     13  C   UNL     1      69.253  58.903  65.331  0.00  0.00    +0.000 A 
ATOM     14  C   UNL     1      69.649  59.562  66.495  0.00  0.00    +0.000 A 
ATOM     15  C   UNL     1      68.484  59.568  64.377  0.00  0.00    +0.000 A 
ATOM     16  C   UNL     1      69.278  60.886  66.706  0.00  0.00    +0.000 A 
ATOM     17  C   UNL     1      68.110  60.893  64.584  0.00  0.00    +0.000 A 
ATOM     18  C   UNL     1      68.510  61.542  65.748  0.00  0.00    +0.000 A 
BRANCH  18  19
ATOM     19  O   UNL     1      68.131  62.840  65.929  0.00  0.00    +0.000 OA
ATOM     20  H   UNL     1      67.876  62.957  66.860  0.00  0.00    +0.000 HD
ENDBRANCH  18  19
ENDBRANCH  12  13
ENDBRANCH   1  11
TORSDOF 5
ENDMDL
MODEL 2
REMARK VINA RESULT:      -5.2      1.177      7.463
REMARK  Name = 445154_Resveratrol.pdbqt.pdb
REMARK  5 active torsions:
REMARK  status: ('A' for Active; 'I' for Inactive)
REMARK    1  A    between atoms: C_1  and  C_11
REMARK    2  A    between atoms: C_4  and  O_7
REMARK    3  A    between atoms: C_5  and  O_9
REMARK    4  A    between atoms: C_12  and  C_13
REMARK    5  A    between atoms: C_18  and  O_19
REMARK                            x       y       z     vdW  Elec       q    Type
REMARK                         _______ _______ _______ _____ _____    ______ ____
ROOT
ATOM      1  C   UNL     1      69.380  58.820  65.495  0.00  0.00    +0.000 A 
ATOM      2  C   UNL     1      69.713  59.346  66.743  0.00  0.00    +0.000 A 
ATOM      3  C   UNL     1      68.749  59.620  64.542  0.00  0.00    +0.000 A 
ATOM      4  C   UNL     1      68.455  60.946  64.848  0.00  0.00    +0.000 A 
ATOM      5  C   UNL     1      69.410  60.673  67.028  0.00  0.00    +0.000 A 
ATOM      6  C   UNL     1      68.782  61.484  66.088  0.00  0.00    +0.000 A 
ENDROOT
BRANCH   4   7
ATOM      7  O   UNL     1      67.838  61.752  63.935  0.00  0.00    +0.000 OA
ATOM      8  H   UNL     1      68.318  61.677  63.091  0.00  0.00    +0.000 HD
ENDBRANCH   4   7
BRANCH   5   9
ATOM      9  O   UNL     1      69.746  61.166  68.256  0.00  0.00    +0.000 OA
ATOM     10  H   UNL     1      68.964  61.094  68.833  0.00  0.00    +0.000 HD
ENDBRANCH   5   9
BRANCH   1  11
ATOM     11  C   UNL     1      69.684  57.461  65.190  0.00  0.00    +0.000 C 
ATOM     12  C   UNL     1      69.939  56.315  64.933  0.00  0.00    +0.000 C 
BRANCH  12  13
ATOM     13  C   UNL     1      70.243  54.956  64.628  0.00  0.00    +0.000 A 
ATOM     14  C   UNL     1      70.603  54.077  65.650  0.00  0.00    +0.000 A 
ATOM     15  C   UNL     1      70.180  54.508  63.308  0.00  0.00    +0.000 A 
ATOM     16  C   UNL     1      70.899  52.750  65.354  0.00  0.00    +0.000 A 
ATOM     17  C   UNL     1      70.476  53.182  63.009  0.00  0.00    +0.000 A 
ATOM     18  C   UNL     1      70.834  52.313  64.034  0.00  0.00    +0.000 A 
BRANCH  18  19
ATOM     19  O   UNL     1      71.120  51.017  63.716  0.00  0.00    +0.000 OA
ATOM     20  H   UNL     1      70.348  50.469  63.944  0.00  0.00    +0.000 HD
ENDBRANCH  18  19
ENDBRANCH  12  13
ENDBRANCH   1  11
TORSDOF 5
ENDMDL
MODEL 3
REMARK VINA RESULT:      -5.1     13.460     17.163
REMARK  Name = 445154_Resveratrol.pdbqt.pdb
REMARK  5 active torsions:
REMARK  status: ('A' for Active; 'I' for Inactive)
REMARK    1  A    between atoms: C_1  and  C_11
REMARK    2  A    between atoms: C_4  and  O_7
REMARK    3  A    between atoms: C_5  and  O_9
REMARK    4  A    between atoms: C_12  and  C_13
REMARK    5  A    between atoms: C_18  and  O_19
REMARK                            x       y       z     vdW  Elec       q    Type
REMARK                         _______ _______ _______ _____ _____    ______ ____
ROOT
ATOM      1  C   UNL     1      69.659  38.613  62.723  0.00  0.00    +0.000 A 
ATOM      2  C   UNL     1      68.758  38.610  63.788  0.00  0.00    +0.000 A 
ATOM      3  C   UNL     1      70.136  37.409  62.206  0.00  0.00    +0.000 A 
ATOM      4  C   UNL     1      69.706  36.206  62.760  0.00  0.00    +0.000 A 
ATOM      5  C   UNL     1      68.341  37.398  64.327  0.00  0.00    +0.000 A 
ATOM      6  C   UNL     1      68.807  36.189  63.821  0.00  0.00    +0.000 A 
ENDROOT
BRANCH   4   7
ATOM      7  O   UNL     1      70.156  35.014  62.273  0.00  0.00    +0.000 OA
ATOM      8  H   UNL     1      70.710  34.596  62.957  0.00  0.00    +0.000 HD
ENDBRANCH   4   7
BRANCH   5   9
ATOM      9  O   UNL     1      67.458  37.420  65.369  0.00  0.00    +0.000 OA
ATOM     10  H   UNL     1      67.956  37.626  66.180  0.00  0.00    +0.000 HD
ENDBRANCH   5   9
BRANCH   1  11
ATOM     11  C   UNL     1      70.095  39.849  62.162  0.00  0.00    +0.000 C 
ATOM     12  C   UNL     1      70.462  40.891  61.690  0.00  0.00    +0.000 C 
BRANCH  12  13
ATOM     13  C   UNL     1      70.899  42.127  61.129  0.00  0.00    +0.000 A 
ATOM     14  C   UNL     1      71.970  42.145  60.236  0.00  0.00    +0.000 A 
ATOM     15  C   UNL     1      70.255  43.314  61.475  0.00  0.00    +0.000 A 
ATOM     16  C   UNL     1      72.398  43.350  59.687  0.00  0.00    +0.000 A 
ATOM     17  C   UNL     1      70.680  44.522  60.928  0.00  0.00    +0.000 A 
ATOM     18  C   UNL     1      71.750  44.530  60.038  0.00  0.00    +0.000 A 
BRANCH  18  19
ATOM     19  O   UNL     1      72.148  45.726  59.516  0.00  0.00    +0.000 OA
ATOM     20  H   UNL     1      72.588  46.235  60.219  0.00  0.00    +0.000 HD
ENDBRANCH  18  19
ENDBRANCH  12  13
ENDBRANCH   1  11
TORSDOF 5
ENDMDL
MODEL 4
REMARK VINA RESULT:      -5.1     13.404     17.171
REMARK  Name = 445154_Resveratrol.pdbqt.pdb
REMARK  5 active torsions:
REMARK  status: ('A' for Active; 'I' for Inactive)
REMARK    1  A    between atoms: C_1  and  C_11
REMARK    2  A    between atoms: C_4  and  O_7
REMARK    3  A    between atoms: C_5  and  O_9
REMARK    4  A    between atoms: C_12  and  C_13
REMARK    5  A    between atoms: C_18  and  O_19
REMARK                            x       y       z     vdW  Elec       q    Type
REMARK                         _______ _______ _______ _____ _____    ______ ____
ROOT
ATOM      1  C   UNL     1      69.674  38.670  62.660  0.00  0.00    +0.000 A 
ATOM      2  C   UNL     1      70.143  37.470  62.128  0.00  0.00    +0.000 A 
ATOM      3  C   UNL     1      68.778  38.661  63.729  0.00  0.00    +0.000 A 
ATOM      4  C   UNL     1      68.358  37.445  64.260  0.00  0.00    +0.000 A 
ATOM      5  C   UNL     1      69.710  36.265  62.672  0.00  0.00    +0.000 A 
ATOM      6  C   UNL     1      68.817  36.240  63.739  0.00  0.00    +0.000 A 
ENDROOT
BRANCH   4   7
ATOM      7  O   UNL     1      67.482  37.406  65.306  0.00  0.00    +0.000 OA
ATOM      8  H   UNL     1      66.765  36.788  65.079  0.00  0.00    +0.000 HD
ENDBRANCH   4   7
BRANCH   5   9
ATOM      9  O   UNL     1      70.183  35.102  62.135  0.00  0.00    +0.000 OA
ATOM     10  H   UNL     1      69.513  34.764  61.514  0.00  0.00    +0.000 HD
ENDBRANCH   5   9
BRANCH   1  11
ATOM     11  C   UNL     1      70.110  39.912  62.110  0.00  0.00    +0.000 C 
ATOM     12  C   UNL     1      70.476  40.958  61.647  0.00  0.00    +0.000 C 
BRANCH  12  13
ATOM     13  C   UNL     1      70.911  42.200  61.098  0.00  0.00    +0.000 A 
ATOM     14  C   UNL     1      70.254  43.381  61.443  0.00  0.00    +0.000 A 
ATOM     15  C   UNL     1      71.992  42.231  60.217  0.00  0.00    +0.000 A 
ATOM     16  C   UNL     1      70.678  44.594  60.909  0.00  0.00    +0.000 A 
ATOM     17  C   UNL     1      72.418  43.442  59.681  0.00  0.00    +0.000 A 
ATOM     18  C   UNL     1      71.757  44.615  60.030  0.00  0.00    +0.000 A 
BRANCH  18  19
ATOM     19  O   UNL     1      72.193  45.790  59.492  0.00  0.00    +0.000 OA
ATOM     20  H   UNL     1      71.416  46.341  59.290  0.00  0.00    +0.000 HD
ENDBRANCH  18  19
ENDBRANCH  12  13
ENDBRANCH   1  11
TORSDOF 5
ENDMDL
MODEL 5
REMARK VINA RESULT:      -5.0     28.256     29.588
REMARK  Name = 445154_Resveratrol.pdbqt.pdb
REMARK  5 active torsions:
REMARK  status: ('A' for Active; 'I' for Inactive)
REMARK    1  A    between atoms: C_1  and  C_11
REMARK    2  A    between atoms: C_4  and  O_7
REMARK    3  A    between atoms: C_5  and  O_9
REMARK    4  A    between atoms: C_12  and  C_13
REMARK    5  A    between atoms: C_18  and  O_19
REMARK                            x       y       z     vdW  Elec       q    Type
REMARK                         _______ _______ _______ _____ _____    ______ ____
ROOT
ATOM      1  C   UNL     1      51.246  34.866  59.065  0.00  0.00    +0.000 A 
ATOM      2  C   UNL     1      50.923  33.688  58.393  0.00  0.00    +0.000 A 
ATOM      3  C   UNL     1      52.440  35.530  58.784  0.00  0.00    +0.000 A 
ATOM      4  C   UNL     1      53.305  35.007  57.828  0.00  0.00    +0.000 A 
ATOM      5  C   UNL     1      51.803  33.182  57.441  0.00  0.00    +0.000 A 
ATOM      6  C   UNL     1      52.997  33.833  57.149  0.00  0.00    +0.000 A 
ENDROOT
BRANCH   4   7
ATOM      7  O   UNL     1      54.480  35.636  57.532  0.00  0.00    +0.000 OA
ATOM      8  H   UNL     1      55.052  35.596  58.319  0.00  0.00    +0.000 HD
ENDBRANCH   4   7
BRANCH   5   9
ATOM      9  O   UNL     1      51.466  32.027  56.795  0.00  0.00    +0.000 OA
ATOM     10  H   UNL     1      51.878  32.045  55.913  0.00  0.00    +0.000 HD
ENDBRANCH   5   9
BRANCH   1  11
ATOM     11  C   UNL     1      50.354  35.395  60.044  0.00  0.00    +0.000 C 
ATOM     12  C   UNL     1      49.602  35.840  60.869  0.00  0.00    +0.000 C 
BRANCH  12  13
ATOM     13  C   UNL     1      48.711  36.369  61.849  0.00  0.00    +0.000 A 
ATOM     14  C   UNL     1      49.067  36.346  63.197  0.00  0.00    +0.000 A 
ATOM     15  C   UNL     1      47.485  36.907  61.456  0.00  0.00    +0.000 A 
ATOM     16  C   UNL     1      48.199  36.862  64.155  0.00  0.00    +0.000 A 
ATOM     17  C   UNL     1      46.614  37.423  62.411  0.00  0.00    +0.000 A 
ATOM     18  C   UNL     1      46.978  37.397  63.754  0.00  0.00    +0.000 A 
BRANCH  18  19
ATOM     19  O   UNL     1      46.108  37.909  64.671  0.00  0.00    +0.000 OA
ATOM     20  H   UNL     1      46.411  37.648  65.558  0.00  0.00    +0.000 HD
ENDBRANCH  18  19
ENDBRANCH  12  13
ENDBRANCH   1  11
TORSDOF 5
ENDMDL
MODEL 6
REMARK VINA RESULT:      -4.9     26.521     28.132
REMARK  Name = 445154_Resveratrol.pdbqt.pdb
REMARK  5 active torsions:
REMARK  status: ('A' for Active; 'I' for Inactive)
REMARK    1  A    between atoms: C_1  and  C_11
REMARK    2  A    between atoms: C_4  and  O_7
REMARK    3  A    between atoms: C_5  and  O_9
REMARK    4  A    between atoms: C_12  and  C_13
REMARK    5  A    between atoms: C_18  and  O_19
REMARK                            x       y       z     vdW  Elec       q    Type
REMARK                         _______ _______ _______ _____ _____    ______ ____
ROOT
ATOM      1  C   UNL     1      52.716  35.465  58.830  0.00  0.00    +0.000 A 
ATOM      2  C   UNL     1      51.767  36.437  58.517  0.00  0.00    +0.000 A 
ATOM      3  C   UNL     1      53.260  34.667  57.824  0.00  0.00    +0.000 A 
ATOM      4  C   UNL     1      52.849  34.851  56.506  0.00  0.00    +0.000 A 
ATOM      5  C   UNL     1      51.369  36.605  57.195  0.00  0.00    +0.000 A 
ATOM      6  C   UNL     1      51.904  35.818  56.180  0.00  0.00    +0.000 A 
ENDROOT
BRANCH   4   7
ATOM      7  O   UNL     1      53.366  34.085  55.501  0.00  0.00    +0.000 OA
ATOM      8  H   UNL     1      54.325  34.001  55.647  0.00  0.00    +0.000 HD
ENDBRANCH   4   7
BRANCH   5   9
ATOM      9  O   UNL     1      50.439  37.563  56.912  0.00  0.00    +0.000 OA
ATOM     10  H   UNL     1      50.907  38.341  56.559  0.00  0.00    +0.000 HD
ENDBRANCH   5   9
BRANCH   1  11
ATOM     11  C   UNL     1      53.131  35.283  60.182  0.00  0.00    +0.000 C 
ATOM     12  C   UNL     1      53.481  35.128  61.321  0.00  0.00    +0.000 C 
BRANCH  12  13
ATOM     13  C   UNL     1      53.897  34.946  62.672  0.00  0.00    +0.000 A 
ATOM     14  C   UNL     1      54.357  33.699  63.096  0.00  0.00    +0.000 A 
ATOM     15  C   UNL     1      53.843  36.014  63.567  0.00  0.00    +0.000 A 
ATOM     16  C   UNL     1      54.764  33.519  64.414  0.00  0.00    +0.000 A 
ATOM     17  C   UNL     1      54.248  35.838  64.887  0.00  0.00    +0.000 A 
ATOM     18  C   UNL     1      54.706  34.591  65.301  0.00  0.00    +0.000 A 
BRANCH  18  19
ATOM     19  O   UNL     1      55.098  34.443  66.599  0.00  0.00    +0.000 OA
ATOM     20  H   UNL     1      56.019  34.128  66.605  0.00  0.00    +0.000 HD
ENDBRANCH  18  19
ENDBRANCH  12  13
ENDBRANCH   1  11
TORSDOF 5
ENDMDL
MODEL 7
REMARK VINA RESULT:      -4.9     23.591     26.718
REMARK  Name = 445154_Resveratrol.pdbqt.pdb
REMARK  5 active torsions:
REMARK  status: ('A' for Active; 'I' for Inactive)
REMARK    1  A    between atoms: C_1  and  C_11
REMARK    2  A    between atoms: C_4  and  O_7
REMARK    3  A    between atoms: C_5  and  O_9
REMARK    4  A    between atoms: C_12  and  C_13
REMARK    5  A    between atoms: C_18  and  O_19
REMARK                            x       y       z     vdW  Elec       q    Type
REMARK                         _______ _______ _______ _____ _____    ______ ____
ROOT
ATOM      1  C   UNL     1      76.291  79.518  78.342  0.00  0.00    +0.000 A 
ATOM      2  C   UNL     1      76.062  80.752  78.950  0.00  0.00    +0.000 A 
ATOM      3  C   UNL     1      76.813  78.457  79.082  0.00  0.00    +0.000 A 
ATOM      4  C   UNL     1      77.102  78.640  80.432  0.00  0.00    +0.000 A 
ATOM      5  C   UNL     1      76.358  80.914  80.300  0.00  0.00    +0.000 A 
ATOM      6  C   UNL     1      76.878  79.865  81.051  0.00  0.00    +0.000 A 
ENDROOT
BRANCH   4   7
ATOM      7  O   UNL     1      77.612  77.620  81.180  0.00  0.00    +0.000 OA
ATOM      8  H   UNL     1      78.492  77.888  81.501  0.00  0.00    +0.000 HD
ENDBRANCH   4   7
BRANCH   5   9
ATOM      9  O   UNL     1      76.126  82.131  80.874  0.00  0.00    +0.000 OA
ATOM     10  H   UNL     1      75.293  82.481  80.510  0.00  0.00    +0.000 HD
ENDBRANCH   5   9
BRANCH   1  11
ATOM     11  C   UNL     1      75.993  79.339  76.959  0.00  0.00    +0.000 C 
ATOM     12  C   UNL     1      75.741  79.188  75.794  0.00  0.00    +0.000 C 
BRANCH  12  13
ATOM     13  C   UNL     1      75.442  79.010  74.411  0.00  0.00    +0.000 A 
ATOM     14  C   UNL     1      76.320  78.294  73.597  0.00  0.00    +0.000 A 
ATOM     15  C   UNL     1      74.274  79.552  73.876  0.00  0.00    +0.000 A 
ATOM     16  C   UNL     1      76.030  78.118  72.248  0.00  0.00    +0.000 A 
ATOM     17  C   UNL     1      73.980  79.378  72.527  0.00  0.00    +0.000 A 
ATOM     18  C   UNL     1      74.861  78.663  71.722  0.00  0.00    +0.000 A 
BRANCH  18  19
ATOM     19  O   UNL     1      74.552  78.506  70.403  0.00  0.00    +0.000 OA
ATOM     20  H   UNL     1      74.049  79.287  70.112  0.00  0.00    +0.000 HD
ENDBRANCH  18  19
ENDBRANCH  12  13
ENDBRANCH   1  11
TORSDOF 5
ENDMDL
MODEL 8
REMARK VINA RESULT:      -4.9     28.166     29.598
REMARK  Name = 445154_Resveratrol.pdbqt.pdb
REMARK  5 active torsions:
REMARK  status: ('A' for Active; 'I' for Inactive)
REMARK    1  A    between atoms: C_1  and  C_11
REMARK    2  A    between atoms: C_4  and  O_7
REMARK    3  A    between atoms: C_5  and  O_9
REMARK    4  A    between atoms: C_12  and  C_13
REMARK    5  A    between atoms: C_18  and  O_19
REMARK                            x       y       z     vdW  Elec       q    Type
REMARK                         _______ _______ _______ _____ _____    ______ ____
ROOT
ATOM      1  C   UNL     1      50.840  35.918  59.584  0.00  0.00    +0.000 A 
ATOM      2  C   UNL     1      50.801  36.961  58.660  0.00  0.00    +0.000 A 
ATOM      3  C   UNL     1      51.705  34.841  59.391  0.00  0.00    +0.000 A 
ATOM      4  C   UNL     1      52.527  34.816  58.268  0.00  0.00    +0.000 A 
ATOM      5  C   UNL     1      51.631  36.917  57.544  0.00  0.00    +0.000 A 
ATOM      6  C   UNL     1      52.499  35.850  57.338  0.00  0.00    +0.000 A 
ENDROOT
BRANCH   4   7
ATOM      7  O   UNL     1      53.383  33.775  58.053  0.00  0.00    +0.000 OA
ATOM      8  H   UNL     1      53.216  33.099  58.734  0.00  0.00    +0.000 HD
ENDBRANCH   4   7
BRANCH   5   9
ATOM      9  O   UNL     1      51.576  37.949  56.652  0.00  0.00    +0.000 OA
ATOM     10  H   UNL     1      51.509  37.570  55.758  0.00  0.00    +0.000 HD
ENDBRANCH   5   9
BRANCH   1  11
ATOM     11  C   UNL     1      49.994  35.951  60.732  0.00  0.00    +0.000 C 
ATOM     12  C   UNL     1      49.280  35.979  61.698  0.00  0.00    +0.000 C 
BRANCH  12  13
ATOM     13  C   UNL     1      48.433  36.012  62.844  0.00  0.00    +0.000 A 
ATOM     14  C   UNL     1      47.698  37.161  63.133  0.00  0.00    +0.000 A 
ATOM     15  C   UNL     1      48.342  34.895  63.675  0.00  0.00    +0.000 A 
ATOM     16  C   UNL     1      46.870  37.196  64.251  0.00  0.00    +0.000 A 
ATOM     17  C   UNL     1      47.515  34.925  64.794  0.00  0.00    +0.000 A 
ATOM     18  C   UNL     1      46.786  36.076  65.074  0.00  0.00    +0.000 A 
BRANCH  18  19
ATOM     19  O   UNL     1      45.983  36.083  66.177  0.00  0.00    +0.000 OA
ATOM     20  H   UNL     1      45.242  35.472  66.018  0.00  0.00    +0.000 HD
ENDBRANCH  18  19
ENDBRANCH  12  13
ENDBRANCH   1  11
TORSDOF 5
ENDMDL
MODEL 9
REMARK VINA RESULT:      -4.9     12.092     14.779
REMARK  Name = 445154_Resveratrol.pdbqt.pdb
REMARK  5 active torsions:
REMARK  status: ('A' for Active; 'I' for Inactive)
REMARK    1  A    between atoms: C_1  and  C_11
REMARK    2  A    between atoms: C_4  and  O_7
REMARK    3  A    between atoms: C_5  and  O_9
REMARK    4  A    between atoms: C_12  and  C_13
REMARK    5  A    between atoms: C_18  and  O_19
REMARK                            x       y       z     vdW  Elec       q    Type
REMARK                         _______ _______ _______ _____ _____    ______ ____
ROOT
ATOM      1  C   UNL     1      60.814  67.262  69.048  0.00  0.00    +0.000 A 
ATOM      2  C   UNL     1      59.965  66.406  68.349  0.00  0.00    +0.000 A 
ATOM      3  C   UNL     1      60.401  67.830  70.253  0.00  0.00    +0.000 A 
ATOM      4  C   UNL     1      59.134  67.534  70.750  0.00  0.00    +0.000 A 
ATOM      5  C   UNL     1      58.703  66.124  68.863  0.00  0.00    +0.000 A 
ATOM      6  C   UNL     1      58.277  66.682  70.063  0.00  0.00    +0.000 A 
ENDROOT
BRANCH   4   7
ATOM      7  O   UNL     1      58.703  68.076  71.927  0.00  0.00    +0.000 OA
ATOM      8  H   UNL     1      58.281  67.370  72.449  0.00  0.00    +0.000 HD
ENDBRANCH   4   7
BRANCH   5   9
ATOM      9  O   UNL     1      57.889  65.283  68.160  0.00  0.00    +0.000 OA
ATOM     10  H   UNL     1      58.440  64.794  67.523  0.00  0.00    +0.000 HD
ENDBRANCH   5   9
BRANCH   1  11
ATOM     11  C   UNL     1      62.109  67.560  68.532  0.00  0.00    +0.000 C 
ATOM     12  C   UNL     1      63.201  67.810  68.096  0.00  0.00    +0.000 C 
BRANCH  12  13
ATOM     13  C   UNL     1      64.496  68.108  67.578  0.00  0.00    +0.000 A 
ATOM     14  C   UNL     1      65.435  67.088  67.427  0.00  0.00    +0.000 A 
ATOM     15  C   UNL     1      64.820  69.418  67.225  0.00  0.00    +0.000 A 
ATOM     16  C   UNL     1      66.699  67.376  66.921  0.00  0.00    +0.000 A 
ATOM     17  C   UNL     1      66.083  69.710  66.720  0.00  0.00    +0.000 A 
ATOM     18  C   UNL     1      67.014  68.686  66.572  0.00  0.00    +0.000 A 
BRANCH  18  19
ATOM     19  O   UNL     1      68.246  68.997  66.075  0.00  0.00    +0.000 OA
ATOM     20  H   UNL     1      68.917  68.556  66.624  0.00  0.00    +0.000 HD
ENDBRANCH  18  19
ENDBRANCH  12  13
ENDBRANCH   1  11
TORSDOF 5
ENDMDL
