MODEL 1
REMARK VINA RESULT:      -7.4      0.000      0.000
REMARK  Name = 448438_Violaxanthin.pdbqt.pdb
REMARK  16 active torsions:
REMARK  status: ('A' for Active; 'I' for Inactive)
REMARK    1  A    between atoms: C_1  and  C_5
REMARK    2  A    between atoms: C_2  and  C_27
REMARK    3  A    between atoms: C_3  and  C_5
REMARK    4  A    between atoms: C_3  and  C_7
REMARK    5  A    between atoms: C_6  and  C_10
REMARK    6  A    between atoms: C_8  and  C_10
REMARK    7  A    between atoms: C_8  and  C_12
REMARK    8  A    between atoms: C_11  and  C_14
REMARK    9  A    between atoms: C_19  and  O_23
REMARK   10  A    between atoms: C_25  and  C_27
REMARK   11  A    between atoms: C_25  and  C_29
REMARK   12  A    between atoms: C_28  and  C_32
REMARK   13  A    between atoms: C_30  and  C_32
REMARK   14  A    between atoms: C_30  and  C_34
REMARK   15  A    between atoms: C_33  and  C_36
REMARK   16  A    between atoms: C_41  and  O_45
REMARK                            x       y       z     vdW  Elec       q    Type
REMARK                         _______ _______ _______ _____ _____    ______ ____
ROOT
ATOM      1  C   UNL     1      66.877  64.713  65.834  0.00  0.00    +0.000 C 
ATOM      2  C   UNL     1      67.281  63.619  65.553  0.00  0.00    +0.000 C 
ENDROOT
BRANCH   2   3
ATOM      3  C   UNL     1      67.795  62.220  65.192  0.00  0.00    +0.000 C 
BRANCH   3   4
ATOM      4  C   UNL     1      68.229  61.037  64.889  0.00  0.00    +0.000 C 
ATOM      5  C   UNL     1      69.335  60.420  65.692  0.00  0.00    +0.000 C 
BRANCH   4   7
ATOM      6  C   UNL     1      67.264  59.783  62.806  0.00  0.00    +0.000 C 
ATOM      7  C   UNL     1      67.707  60.359  63.763  0.00  0.00    +0.000 C 
BRANCH   6   8
ATOM      8  C   UNL     1      66.700  59.047  61.584  0.00  0.00    +0.000 C 
BRANCH   8   9
ATOM      9  C   UNL     1      66.226  58.425  60.549  0.00  0.00    +0.000 C 
ATOM     10  C   UNL     1      67.075  58.255  59.327  0.00  0.00    +0.000 C 
BRANCH   9  12
ATOM     11  C   UNL     1      63.876  57.275  60.674  0.00  0.00    +0.000 C 
ATOM     12  C   UNL     1      64.955  57.803  60.622  0.00  0.00    +0.000 C 
BRANCH  11  14
ATOM     13  O   UNL     1      61.553  57.628  61.032  0.00  0.00    +0.000 OA
ATOM     14  C   UNL     1      62.569  56.636  60.713  0.00  0.00    +0.000 C 
ATOM     15  C   UNL     1      61.476  57.079  59.717  0.00  0.00    +0.000 C 
ATOM     16  C   UNL     1      62.415  55.236  61.398  0.00  0.00    +0.000 C 
ATOM     17  C   UNL     1      60.354  56.211  59.561  0.00  0.00    +0.000 C 
ATOM     18  C   UNL     1      61.083  54.721  61.051  0.00  0.00    +0.000 C 
ATOM     19  C   UNL     1      60.005  55.004  60.189  0.00  0.00    +0.000 C 
ATOM     20  C   UNL     1      61.722  58.109  58.612  0.00  0.00    +0.000 C 
ATOM     21  C   UNL     1      63.515  54.338  60.781  0.00  0.00    +0.000 C 
ATOM     22  C   UNL     1      62.602  55.463  62.913  0.00  0.00    +0.000 C 
BRANCH  19  23
ATOM     23  O   UNL     1      58.714  54.713  60.509  0.00  0.00    +0.000 OA
ATOM     24  H   UNL     1      58.085  54.977  59.813  0.00  0.00    +0.000 HD
ENDBRANCH  19  23
ENDBRANCH  11  14
ENDBRANCH   9  12
ENDBRANCH   8   9
ENDBRANCH   6   8
ENDBRANCH   4   7
ENDBRANCH   3   4
ENDBRANCH   2   3
BRANCH   1  25
ATOM     25  C   UNL     1      66.362  66.111  66.195  0.00  0.00    +0.000 C 
BRANCH  25  26
ATOM     26  C   UNL     1      65.927  67.293  66.499  0.00  0.00    +0.000 C 
ATOM     27  C   UNL     1      66.744  68.502  66.152  0.00  0.00    +0.000 C 
BRANCH  26  29
ATOM     28  C   UNL     1      63.606  67.574  67.671  0.00  0.00    +0.000 C 
ATOM     29  C   UNL     1      64.673  67.444  67.135  0.00  0.00    +0.000 C 
BRANCH  28  30
ATOM     30  C   UNL     1      62.241  67.743  68.351  0.00  0.00    +0.000 C 
BRANCH  30  31
ATOM     31  C   UNL     1      61.086  67.882  68.923  0.00  0.00    +0.000 C 
ATOM     32  C   UNL     1      60.900  68.921  69.987  0.00  0.00    +0.000 C 
BRANCH  31  34
ATOM     33  C   UNL     1      59.060  66.407  68.161  0.00  0.00    +0.000 C 
ATOM     34  C   UNL     1      59.991  67.086  68.508  0.00  0.00    +0.000 C 
BRANCH  33  36
ATOM     35  O   UNL     1      57.691  65.764  66.321  0.00  0.00    +0.000 OA
ATOM     36  C   UNL     1      57.931  65.587  67.746  0.00  0.00    +0.000 C 
ATOM     37  C   UNL     1      58.143  64.468  66.705  0.00  0.00    +0.000 C 
ATOM     38  C   UNL     1      56.658  65.511  68.662  0.00  0.00    +0.000 C 
ATOM     39  C   UNL     1      57.118  63.482  66.591  0.00  0.00    +0.000 C 
ATOM     40  C   UNL     1      55.836  64.406  68.164  0.00  0.00    +0.000 C 
ATOM     41  C   UNL     1      55.883  63.340  67.245  0.00  0.00    +0.000 C 
ATOM     42  C   UNL     1      59.509  64.105  66.118  0.00  0.00    +0.000 C 
ATOM     43  C   UNL     1      55.972  66.893  68.558  0.00  0.00    +0.000 C 
ATOM     44  C   UNL     1      57.186  65.213  70.089  0.00  0.00    +0.000 C 
BRANCH  41  45
ATOM     45  O   UNL     1      55.339  62.126  67.539  0.00  0.00    +0.000 OA
ATOM     46  H   UNL     1      55.765  61.704  68.308  0.00  0.00    +0.000 HD
ENDBRANCH  41  45
ENDBRANCH  33  36
ENDBRANCH  31  34
ENDBRANCH  30  31
ENDBRANCH  28  30
ENDBRANCH  26  29
ENDBRANCH  25  26
ENDBRANCH   1  25
TORSDOF 16
ENDMDL
MODEL 2
REMARK VINA RESULT:      -7.3      0.832     11.553
REMARK  Name = 448438_Violaxanthin.pdbqt.pdb
REMARK  16 active torsions:
REMARK  status: ('A' for Active; 'I' for Inactive)
REMARK    1  A    between atoms: C_1  and  C_5
REMARK    2  A    between atoms: C_2  and  C_27
REMARK    3  A    between atoms: C_3  and  C_5
REMARK    4  A    between atoms: C_3  and  C_7
REMARK    5  A    between atoms: C_6  and  C_10
REMARK    6  A    between atoms: C_8  and  C_10
REMARK    7  A    between atoms: C_8  and  C_12
REMARK    8  A    between atoms: C_11  and  C_14
REMARK    9  A    between atoms: C_19  and  O_23
REMARK   10  A    between atoms: C_25  and  C_27
REMARK   11  A    between atoms: C_25  and  C_29
REMARK   12  A    between atoms: C_28  and  C_32
REMARK   13  A    between atoms: C_30  and  C_32
REMARK   14  A    between atoms: C_30  and  C_34
REMARK   15  A    between atoms: C_33  and  C_36
REMARK   16  A    between atoms: C_41  and  O_45
REMARK                            x       y       z     vdW  Elec       q    Type
REMARK                         _______ _______ _______ _____ _____    ______ ____
ROOT
ATOM      1  C   UNL     1      67.405  63.473  65.537  0.00  0.00    +0.000 C 
ATOM      2  C   UNL     1      67.115  64.600  65.831  0.00  0.00    +0.000 C 
ENDROOT
BRANCH   2   3
ATOM      3  C   UNL     1      66.747  66.040  66.207  0.00  0.00    +0.000 C 
BRANCH   3   4
ATOM      4  C   UNL     1      66.434  67.256  66.527  0.00  0.00    +0.000 C 
ATOM      5  C   UNL     1      67.454  68.347  66.397  0.00  0.00    +0.000 C 
BRANCH   4   7
ATOM      6  C   UNL     1      64.070  67.781  67.516  0.00  0.00    +0.000 C 
ATOM      7  C   UNL     1      65.156  67.540  67.062  0.00  0.00    +0.000 C 
BRANCH   6   8
ATOM      8  C   UNL     1      62.683  68.088  68.095  0.00  0.00    +0.000 C 
BRANCH   8   9
ATOM      9  C   UNL     1      61.509  68.348  68.582  0.00  0.00    +0.000 C 
ATOM     10  C   UNL     1      61.213  69.709  69.131  0.00  0.00    +0.000 C 
BRANCH   9  12
ATOM     11  C   UNL     1      59.596  66.568  68.403  0.00  0.00    +0.000 C 
ATOM     12  C   UNL     1      60.475  67.384  68.481  0.00  0.00    +0.000 C 
BRANCH  11  14
ATOM     13  O   UNL     1      58.563  64.742  69.522  0.00  0.00    +0.000 OA
ATOM     14  C   UNL     1      58.528  65.582  68.334  0.00  0.00    +0.000 C 
ATOM     15  C   UNL     1      57.418  65.586  69.407  0.00  0.00    +0.000 C 
ATOM     16  C   UNL     1      58.234  64.857  66.977  0.00  0.00    +0.000 C 
ATOM     17  C   UNL     1      56.234  64.847  69.114  0.00  0.00    +0.000 C 
ATOM     18  C   UNL     1      56.958  64.143  67.127  0.00  0.00    +0.000 C 
ATOM     19  C   UNL     1      55.872  64.045  68.019  0.00  0.00    +0.000 C 
ATOM     20  C   UNL     1      57.328  66.643  70.511  0.00  0.00    +0.000 C 
ATOM     21  C   UNL     1      58.099  65.977  65.917  0.00  0.00    +0.000 C 
ATOM     22  C   UNL     1      59.428  63.916  66.711  0.00  0.00    +0.000 C 
BRANCH  19  23
ATOM     23  O   UNL     1      55.153  62.900  68.178  0.00  0.00    +0.000 OA
ATOM     24  H   UNL     1      55.367  62.433  69.006  0.00  0.00    +0.000 HD
ENDBRANCH  19  23
ENDBRANCH  11  14
ENDBRANCH   9  12
ENDBRANCH   8   9
ENDBRANCH   6   8
ENDBRANCH   4   7
ENDBRANCH   3   4
ENDBRANCH   2   3
BRANCH   1  25
ATOM     25  C   UNL     1      67.774  62.033  65.161  0.00  0.00    +0.000 C 
BRANCH  25  26
ATOM     26  C   UNL     1      68.086  60.816  64.843  0.00  0.00    +0.000 C 
ATOM     27  C   UNL     1      69.012  60.030  65.723  0.00  0.00    +0.000 C 
BRANCH  26  29
ATOM     28  C   UNL     1      67.063  59.721  62.701  0.00  0.00    +0.000 C 
ATOM     29  C   UNL     1      67.535  60.223  63.684  0.00  0.00    +0.000 C 
BRANCH  28  30
ATOM     30  C   UNL     1      66.453  59.079  61.448  0.00  0.00    +0.000 C 
BRANCH  30  31
ATOM     31  C   UNL     1      65.934  58.536  60.391  0.00  0.00    +0.000 C 
ATOM     32  C   UNL     1      66.685  58.558  59.095  0.00  0.00    +0.000 C 
BRANCH  31  34
ATOM     33  C   UNL     1      63.615  57.327  60.553  0.00  0.00    +0.000 C 
ATOM     34  C   UNL     1      64.679  57.883  60.475  0.00  0.00    +0.000 C 
BRANCH  33  36
ATOM     35  O   UNL     1      61.293  57.625  60.988  0.00  0.00    +0.000 OA
ATOM     36  C   UNL     1      62.328  56.656  60.652  0.00  0.00    +0.000 C 
ATOM     37  C   UNL     1      61.187  57.047  59.689  0.00  0.00    +0.000 C 
ATOM     38  C   UNL     1      62.238  55.265  61.376  0.00  0.00    +0.000 C 
ATOM     39  C   UNL     1      60.085  56.147  59.586  0.00  0.00    +0.000 C 
ATOM     40  C   UNL     1      60.923  54.702  61.063  0.00  0.00    +0.000 C 
ATOM     41  C   UNL     1      59.803  54.937  60.242  0.00  0.00    +0.000 C 
ATOM     42  C   UNL     1      61.345  58.066  58.558  0.00  0.00    +0.000 C 
ATOM     43  C   UNL     1      62.453  55.550  62.880  0.00  0.00    +0.000 C 
ATOM     44  C   UNL     1      63.372  54.403  60.764  0.00  0.00    +0.000 C 
BRANCH  41  45
ATOM     45  O   UNL     1      59.136  53.912  59.644  0.00  0.00    +0.000 OA
ATOM     46  H   UNL     1      58.303  53.693  60.101  0.00  0.00    +0.000 HD
ENDBRANCH  41  45
ENDBRANCH  33  36
ENDBRANCH  31  34
ENDBRANCH  30  31
ENDBRANCH  28  30
ENDBRANCH  26  29
ENDBRANCH  25  26
ENDBRANCH   1  25
TORSDOF 16
ENDMDL
MODEL 3
REMARK VINA RESULT:      -6.9      4.389      5.716
REMARK  Name = 448438_Violaxanthin.pdbqt.pdb
REMARK  16 active torsions:
REMARK  status: ('A' for Active; 'I' for Inactive)
REMARK    1  A    between atoms: C_1  and  C_5
REMARK    2  A    between atoms: C_2  and  C_27
REMARK    3  A    between atoms: C_3  and  C_5
REMARK    4  A    between atoms: C_3  and  C_7
REMARK    5  A    between atoms: C_6  and  C_10
REMARK    6  A    between atoms: C_8  and  C_10
REMARK    7  A    between atoms: C_8  and  C_12
REMARK    8  A    between atoms: C_11  and  C_14
REMARK    9  A    between atoms: C_19  and  O_23
REMARK   10  A    between atoms: C_25  and  C_27
REMARK   11  A    between atoms: C_25  and  C_29
REMARK   12  A    between atoms: C_28  and  C_32
REMARK   13  A    between atoms: C_30  and  C_32
REMARK   14  A    between atoms: C_30  and  C_34
REMARK   15  A    between atoms: C_33  and  C_36
REMARK   16  A    between atoms: C_41  and  O_45
REMARK                            x       y       z     vdW  Elec       q    Type
REMARK                         _______ _______ _______ _____ _____    ______ ____
ROOT
ATOM      1  C   UNL     1      66.858  64.853  65.434  0.00  0.00    +0.000 C 
ATOM      2  C   UNL     1      67.039  63.879  64.757  0.00  0.00    +0.000 C 
ENDROOT
BRANCH   2   3
ATOM      3  C   UNL     1      67.268  62.636  63.890  0.00  0.00    +0.000 C 
BRANCH   3   4
ATOM      4  C   UNL     1      67.462  61.584  63.159  0.00  0.00    +0.000 C 
ATOM      5  C   UNL     1      66.950  61.550  61.750  0.00  0.00    +0.000 C 
BRANCH   4   7
ATOM      6  C   UNL     1      68.630  59.478  64.180  0.00  0.00    +0.000 C 
ATOM      7  C   UNL     1      68.094  60.445  63.711  0.00  0.00    +0.000 C 
BRANCH   6   8
ATOM      8  C   UNL     1      69.313  58.243  64.780  0.00  0.00    +0.000 C 
BRANCH   8   9
ATOM      9  C   UNL     1      69.894  57.198  65.285  0.00  0.00    +0.000 C 
ATOM     10  C   UNL     1      70.411  57.237  66.690  0.00  0.00    +0.000 C 
BRANCH   9  12
ATOM     11  C   UNL     1      69.958  54.955  63.935  0.00  0.00    +0.000 C 
ATOM     12  C   UNL     1      69.926  55.987  64.551  0.00  0.00    +0.000 C 
BRANCH  11  14
ATOM     13  O   UNL     1      71.103  52.883  63.720  0.00  0.00    +0.000 OA
ATOM     14  C   UNL     1      70.011  53.696  63.207  0.00  0.00    +0.000 C 
ATOM     15  C   UNL     1      69.795  52.369  63.965  0.00  0.00    +0.000 C 
ATOM     16  C   UNL     1      69.813  53.694  61.653  0.00  0.00    +0.000 C 
ATOM     17  C   UNL     1      69.516  51.213  63.177  0.00  0.00    +0.000 C 
ATOM     18  C   UNL     1      69.641  52.296  61.233  0.00  0.00    +0.000 C 
ATOM     19  C   UNL     1      69.437  51.018  61.788  0.00  0.00    +0.000 C 
ATOM     20  C   UNL     1      69.433  52.307  65.452  0.00  0.00    +0.000 C 
ATOM     21  C   UNL     1      68.516  54.496  61.389  0.00  0.00    +0.000 C 
ATOM     22  C   UNL     1      71.067  54.359  61.047  0.00  0.00    +0.000 C 
BRANCH  19  23
ATOM     23  O   UNL     1      69.898  49.879  61.200  0.00  0.00    +0.000 OA
ATOM     24  H   UNL     1      70.834  49.942  60.939  0.00  0.00    +0.000 HD
ENDBRANCH  19  23
ENDBRANCH  11  14
ENDBRANCH   9  12
ENDBRANCH   8   9
ENDBRANCH   6   8
ENDBRANCH   4   7
ENDBRANCH   3   4
ENDBRANCH   2   3
BRANCH   1  25
ATOM     25  C   UNL     1      66.627  66.097  66.302  0.00  0.00    +0.000 C 
BRANCH  25  26
ATOM     26  C   UNL     1      66.433  67.148  67.035  0.00  0.00    +0.000 C 
ATOM     27  C   UNL     1      67.598  67.996  67.445  0.00  0.00    +0.000 C 
BRANCH  26  29
ATOM     28  C   UNL     1      64.008  67.814  67.751  0.00  0.00    +0.000 C 
ATOM     29  C   UNL     1      65.122  67.507  67.424  0.00  0.00    +0.000 C 
BRANCH  28  30
ATOM     30  C   UNL     1      62.584  68.210  68.164  0.00  0.00    +0.000 C 
BRANCH  30  31
ATOM     31  C   UNL     1      61.380  68.544  68.508  0.00  0.00    +0.000 C 
ATOM     32  C   UNL     1      61.072  69.966  68.865  0.00  0.00    +0.000 C 
BRANCH  31  34
ATOM     33  C   UNL     1      59.472  66.748  68.498  0.00  0.00    +0.000 C 
ATOM     34  C   UNL     1      60.348  67.573  68.500  0.00  0.00    +0.000 C 
BRANCH  33  36
ATOM     35  O   UNL     1      58.493  64.950  69.715  0.00  0.00    +0.000 OA
ATOM     36  C   UNL     1      58.410  65.753  68.503  0.00  0.00    +0.000 C 
ATOM     37  C   UNL     1      57.340  65.783  69.614  0.00  0.00    +0.000 C 
ATOM     38  C   UNL     1      58.075  64.979  67.178  0.00  0.00    +0.000 C 
ATOM     39  C   UNL     1      56.148  65.031  69.392  0.00  0.00    +0.000 C 
ATOM     40  C   UNL     1      56.802  64.288  67.394  0.00  0.00    +0.000 C 
ATOM     41  C   UNL     1      55.750  64.206  68.327  0.00  0.00    +0.000 C 
ATOM     42  C   UNL     1      57.276  66.861  70.700  0.00  0.00    +0.000 C 
ATOM     43  C   UNL     1      59.266  64.026  66.925  0.00  0.00    +0.000 C 
ATOM     44  C   UNL     1      57.939  66.067  66.082  0.00  0.00    +0.000 C 
BRANCH  41  45
ATOM     45  O   UNL     1      54.454  64.093  67.926  0.00  0.00    +0.000 OA
ATOM     46  H   UNL     1      54.235  64.704  67.199  0.00  0.00    +0.000 HD
ENDBRANCH  41  45
ENDBRANCH  33  36
ENDBRANCH  31  34
ENDBRANCH  30  31
ENDBRANCH  28  30
ENDBRANCH  26  29
ENDBRANCH  25  26
ENDBRANCH   1  25
TORSDOF 16
ENDMDL
MODEL 4
REMARK VINA RESULT:      -6.8      9.114     15.191
REMARK  Name = 448438_Violaxanthin.pdbqt.pdb
REMARK  16 active torsions:
REMARK  status: ('A' for Active; 'I' for Inactive)
REMARK    1  A    between atoms: C_1  and  C_5
REMARK    2  A    between atoms: C_2  and  C_27
REMARK    3  A    between atoms: C_3  and  C_5
REMARK    4  A    between atoms: C_3  and  C_7
REMARK    5  A    between atoms: C_6  and  C_10
REMARK    6  A    between atoms: C_8  and  C_10
REMARK    7  A    between atoms: C_8  and  C_12
REMARK    8  A    between atoms: C_11  and  C_14
REMARK    9  A    between atoms: C_19  and  O_23
REMARK   10  A    between atoms: C_25  and  C_27
REMARK   11  A    between atoms: C_25  and  C_29
REMARK   12  A    between atoms: C_28  and  C_32
REMARK   13  A    between atoms: C_30  and  C_32
REMARK   14  A    between atoms: C_30  and  C_34
REMARK   15  A    between atoms: C_33  and  C_36
REMARK   16  A    between atoms: C_41  and  O_45
REMARK                            x       y       z     vdW  Elec       q    Type
REMARK                         _______ _______ _______ _____ _____    ______ ____
ROOT
ATOM      1  C   UNL     1      64.950  47.379  55.596  0.00  0.00    +0.000 C 
ATOM      2  C   UNL     1      64.009  46.891  55.034  0.00  0.00    +0.000 C 
ENDROOT
BRANCH   2   3
ATOM      3  C   UNL     1      62.808  46.264  54.316  0.00  0.00    +0.000 C 
BRANCH   3   4
ATOM      4  C   UNL     1      61.792  45.735  53.711  0.00  0.00    +0.000 C 
ATOM      5  C   UNL     1      62.014  44.753  52.600  0.00  0.00    +0.000 C 
BRANCH   4   7
ATOM      6  C   UNL     1      59.363  46.473  54.343  0.00  0.00    +0.000 C 
ATOM      7  C   UNL     1      60.478  46.134  54.053  0.00  0.00    +0.000 C 
BRANCH   6   8
ATOM      8  C   UNL     1      57.940  46.907  54.716  0.00  0.00    +0.000 C 
BRANCH   8   9
ATOM      9  C   UNL     1      56.735  47.271  55.029  0.00  0.00    +0.000 C 
ATOM     10  C   UNL     1      55.590  46.333  54.807  0.00  0.00    +0.000 C 
BRANCH   9  12
ATOM     11  C   UNL     1      56.333  49.549  56.258  0.00  0.00    +0.000 C 
ATOM     12  C   UNL     1      56.522  48.505  55.694  0.00  0.00    +0.000 C 
BRANCH  11  14
ATOM     13  O   UNL     1      54.839  51.389  56.443  0.00  0.00    +0.000 OA
ATOM     14  C   UNL     1      56.079  50.810  56.938  0.00  0.00    +0.000 C 
ATOM     15  C   UNL     1      54.812  50.966  57.806  0.00  0.00    +0.000 C 
ATOM     16  C   UNL     1      57.263  51.806  57.184  0.00  0.00    +0.000 C 
ATOM     17  C   UNL     1      54.779  52.068  58.710  0.00  0.00    +0.000 C 
ATOM     18  C   UNL     1      56.783  52.839  58.113  0.00  0.00    +0.000 C 
ATOM     19  C   UNL     1      55.686  53.112  58.954  0.00  0.00    +0.000 C 
ATOM     20  C   UNL     1      53.834  49.817  58.066  0.00  0.00    +0.000 C 
ATOM     21  C   UNL     1      58.389  50.974  57.844  0.00  0.00    +0.000 C 
ATOM     22  C   UNL     1      57.660  52.370  55.803  0.00  0.00    +0.000 C 
BRANCH  19  23
ATOM     23  O   UNL     1      55.263  54.379  59.220  0.00  0.00    +0.000 OA
ATOM     24  H   UNL     1      55.739  55.052  58.703  0.00  0.00    +0.000 HD
ENDBRANCH  19  23
ENDBRANCH  11  14
ENDBRANCH   9  12
ENDBRANCH   8   9
ENDBRANCH   6   8
ENDBRANCH   4   7
ENDBRANCH   3   4
ENDBRANCH   2   3
BRANCH   1  25
ATOM     25  C   UNL     1      66.152  48.005  56.314  0.00  0.00    +0.000 C 
BRANCH  25  26
ATOM     26  C   UNL     1      67.168  48.534  56.920  0.00  0.00    +0.000 C 
ATOM     27  C   UNL     1      68.531  47.931  56.757  0.00  0.00    +0.000 C 
BRANCH  26  29
ATOM     28  C   UNL     1      66.844  50.676  58.385  0.00  0.00    +0.000 C 
ATOM     29  C   UNL     1      66.995  49.692  57.713  0.00  0.00    +0.000 C 
BRANCH  28  30
ATOM     30  C   UNL     1      66.646  51.934  59.240  0.00  0.00    +0.000 C 
BRANCH  30  31
ATOM     31  C   UNL     1      66.474  52.998  59.960  0.00  0.00    +0.000 C 
ATOM     32  C   UNL     1      67.650  53.652  60.619  0.00  0.00    +0.000 C 
BRANCH  31  34
ATOM     33  C   UNL     1      64.086  54.053  60.183  0.00  0.00    +0.000 C 
ATOM     34  C   UNL     1      65.183  53.567  60.084  0.00  0.00    +0.000 C 
BRANCH  33  36
ATOM     35  O   UNL     1      62.188  54.825  58.970  0.00  0.00    +0.000 OA
ATOM     36  C   UNL     1      62.759  54.638  60.297  0.00  0.00    +0.000 C 
ATOM     37  C   UNL     1      61.532  53.854  59.784  0.00  0.00    +0.000 C 
ATOM     38  C   UNL     1      62.515  55.798  61.327  0.00  0.00    +0.000 C 
ATOM     39  C   UNL     1      60.248  54.296  60.221  0.00  0.00    +0.000 C 
ATOM     40  C   UNL     1      61.065  55.974  61.440  0.00  0.00    +0.000 C 
ATOM     41  C   UNL     1      59.858  55.370  61.038  0.00  0.00    +0.000 C 
ATOM     42  C   UNL     1      61.611  52.435  59.215  0.00  0.00    +0.000 C 
ATOM     43  C   UNL     1      63.251  57.034  60.764  0.00  0.00    +0.000 C 
ATOM     44  C   UNL     1      63.121  55.301  62.666  0.00  0.00    +0.000 C 
BRANCH  41  45
ATOM     45  O   UNL     1      58.783  55.311  61.872  0.00  0.00    +0.000 OA
ATOM     46  H   UNL     1      58.946  55.761  62.721  0.00  0.00    +0.000 HD
ENDBRANCH  41  45
ENDBRANCH  33  36
ENDBRANCH  31  34
ENDBRANCH  30  31
ENDBRANCH  28  30
ENDBRANCH  26  29
ENDBRANCH  25  26
ENDBRANCH   1  25
TORSDOF 16
ENDMDL
MODEL 5
REMARK VINA RESULT:      -6.8     11.554     20.086
REMARK  Name = 448438_Violaxanthin.pdbqt.pdb
REMARK  16 active torsions:
REMARK  status: ('A' for Active; 'I' for Inactive)
REMARK    1  A    between atoms: C_1  and  C_5
REMARK    2  A    between atoms: C_2  and  C_27
REMARK    3  A    between atoms: C_3  and  C_5
REMARK    4  A    between atoms: C_3  and  C_7
REMARK    5  A    between atoms: C_6  and  C_10
REMARK    6  A    between atoms: C_8  and  C_10
REMARK    7  A    between atoms: C_8  and  C_12
REMARK    8  A    between atoms: C_11  and  C_14
REMARK    9  A    between atoms: C_19  and  O_23
REMARK   10  A    between atoms: C_25  and  C_27
REMARK   11  A    between atoms: C_25  and  C_29
REMARK   12  A    between atoms: C_28  and  C_32
REMARK   13  A    between atoms: C_30  and  C_32
REMARK   14  A    between atoms: C_30  and  C_34
REMARK   15  A    between atoms: C_33  and  C_36
REMARK   16  A    between atoms: C_41  and  O_45
REMARK                            x       y       z     vdW  Elec       q    Type
REMARK                         _______ _______ _______ _____ _____    ______ ____
ROOT
ATOM      1  C   UNL     1      70.663  48.935  61.648  0.00  0.00    +0.000 C 
ATOM      2  C   UNL     1      70.008  49.464  60.793  0.00  0.00    +0.000 C 
ENDROOT
BRANCH   2   3
ATOM      3  C   UNL     1      69.170  50.142  59.703  0.00  0.00    +0.000 C 
BRANCH   3   4
ATOM      4  C   UNL     1      68.461  50.713  58.780  0.00  0.00    +0.000 C 
ATOM      5  C   UNL     1      69.139  51.341  57.600  0.00  0.00    +0.000 C 
BRANCH   4   7
ATOM      6  C   UNL     1      65.863  50.879  59.041  0.00  0.00    +0.000 C 
ATOM      7  C   UNL     1      67.056  50.803  58.921  0.00  0.00    +0.000 C 
BRANCH   6   8
ATOM      8  C   UNL     1      64.340  50.977  59.192  0.00  0.00    +0.000 C 
BRANCH   8   9
ATOM      9  C   UNL     1      63.052  51.057  59.319  0.00  0.00    +0.000 C 
ATOM     10  C   UNL     1      62.224  49.809  59.326  0.00  0.00    +0.000 C 
BRANCH   9  12
ATOM     11  C   UNL     1      61.925  53.374  59.788  0.00  0.00    +0.000 C 
ATOM     12  C   UNL     1      62.445  52.312  59.576  0.00  0.00    +0.000 C 
BRANCH  11  14
ATOM     13  O   UNL     1      60.934  54.774  61.435  0.00  0.00    +0.000 OA
ATOM     14  C   UNL     1      61.278  54.656  60.025  0.00  0.00    +0.000 C 
ATOM     15  C   UNL     1      61.939  55.677  60.977  0.00  0.00    +0.000 C 
ATOM     16  C   UNL     1      60.218  55.187  59.003  0.00  0.00    +0.000 C 
ATOM     17  C   UNL     1      61.466  57.021  60.913  0.00  0.00    +0.000 C 
ATOM     18  C   UNL     1      59.945  56.591  59.340  0.00  0.00    +0.000 C 
ATOM     19  C   UNL     1      60.445  57.623  60.158  0.00  0.00    +0.000 C 
ATOM     20  C   UNL     1      63.306  55.447  61.627  0.00  0.00    +0.000 C 
ATOM     21  C   UNL     1      60.884  55.089  57.609  0.00  0.00    +0.000 C 
ATOM     22  C   UNL     1      58.977  54.279  59.143  0.00  0.00    +0.000 C 
BRANCH  19  23
ATOM     23  O   UNL     1      59.649  58.596  60.682  0.00  0.00    +0.000 OA
ATOM     24  H   UNL     1      59.297  58.363  61.560  0.00  0.00    +0.000 HD
ENDBRANCH  19  23
ENDBRANCH  11  14
ENDBRANCH   9  12
ENDBRANCH   8   9
ENDBRANCH   6   8
ENDBRANCH   4   7
ENDBRANCH   3   4
ENDBRANCH   2   3
BRANCH   1  25
ATOM     25  C   UNL     1      71.500  48.258  62.739  0.00  0.00    +0.000 C 
BRANCH  25  26
ATOM     26  C   UNL     1      72.208  47.685  63.661  0.00  0.00    +0.000 C 
ATOM     27  C   UNL     1      73.420  48.378  64.210  0.00  0.00    +0.000 C 
BRANCH  26  29
ATOM     28  C   UNL     1      71.496  45.350  64.600  0.00  0.00    +0.000 C 
ATOM     29  C   UNL     1      71.824  46.422  64.167  0.00  0.00    +0.000 C 
BRANCH  28  30
ATOM     30  C   UNL     1      71.077  43.985  65.159  0.00  0.00    +0.000 C 
BRANCH  30  31
ATOM     31  C   UNL     1      70.727  42.829  65.630  0.00  0.00    +0.000 C 
ATOM     32  C   UNL     1      70.102  42.735  66.989  0.00  0.00    +0.000 C 
BRANCH  31  34
ATOM     33  C   UNL     1      71.032  40.678  64.167  0.00  0.00    +0.000 C 
ATOM     34  C   UNL     1      70.892  41.664  64.841  0.00  0.00    +0.000 C 
BRANCH  33  36
ATOM     35  O   UNL     1      71.594  38.364  64.186  0.00  0.00    +0.000 OA
ATOM     36  C   UNL     1      71.205  39.488  63.346  0.00  0.00    +0.000 C 
ATOM     37  C   UNL     1      70.304  38.258  63.586  0.00  0.00    +0.000 C 
ATOM     38  C   UNL     1      71.937  39.608  61.962  0.00  0.00    +0.000 C 
ATOM     39  C   UNL     1      70.266  37.268  62.559  0.00  0.00    +0.000 C 
ATOM     40  C   UNL     1      71.700  38.355  61.241  0.00  0.00    +0.000 C 
ATOM     41  C   UNL     1      70.941  37.172  61.331  0.00  0.00    +0.000 C 
ATOM     42  C   UNL     1      69.163  38.229  64.606  0.00  0.00    +0.000 C 
ATOM     43  C   UNL     1      73.426  39.868  62.286  0.00  0.00    +0.000 C 
ATOM     44  C   UNL     1      71.266  40.803  61.237  0.00  0.00    +0.000 C 
BRANCH  41  45
ATOM     45  O   UNL     1      70.384  36.602  60.226  0.00  0.00    +0.000 OA
ATOM     46  H   UNL     1      71.054  36.300  59.586  0.00  0.00    +0.000 HD
ENDBRANCH  41  45
ENDBRANCH  33  36
ENDBRANCH  31  34
ENDBRANCH  30  31
ENDBRANCH  28  30
ENDBRANCH  26  29
ENDBRANCH  25  26
ENDBRANCH   1  25
TORSDOF 16
ENDMDL
MODEL 6
REMARK VINA RESULT:      -6.8      6.084      9.900
REMARK  Name = 448438_Violaxanthin.pdbqt.pdb
REMARK  16 active torsions:
REMARK  status: ('A' for Active; 'I' for Inactive)
REMARK    1  A    between atoms: C_1  and  C_5
REMARK    2  A    between atoms: C_2  and  C_27
REMARK    3  A    between atoms: C_3  and  C_5
REMARK    4  A    between atoms: C_3  and  C_7
REMARK    5  A    between atoms: C_6  and  C_10
REMARK    6  A    between atoms: C_8  and  C_10
REMARK    7  A    between atoms: C_8  and  C_12
REMARK    8  A    between atoms: C_11  and  C_14
REMARK    9  A    between atoms: C_19  and  O_23
REMARK   10  A    between atoms: C_25  and  C_27
REMARK   11  A    between atoms: C_25  and  C_29
REMARK   12  A    between atoms: C_28  and  C_32
REMARK   13  A    between atoms: C_30  and  C_32
REMARK   14  A    between atoms: C_30  and  C_34
REMARK   15  A    between atoms: C_33  and  C_36
REMARK   16  A    between atoms: C_41  and  O_45
REMARK                            x       y       z     vdW  Elec       q    Type
REMARK                         _______ _______ _______ _____ _____    ______ ____
ROOT
ATOM      1  C   UNL     1      70.538  53.291  64.173  0.00  0.00    +0.000 C 
ATOM      2  C   UNL     1      70.221  52.648  63.211  0.00  0.00    +0.000 C 
ENDROOT
BRANCH   2   3
ATOM      3  C   UNL     1      69.813  51.829  61.981  0.00  0.00    +0.000 C 
BRANCH   3   4
ATOM      4  C   UNL     1      69.466  51.138  60.941  0.00  0.00    +0.000 C 
ATOM      5  C   UNL     1      70.496  50.339  60.200  0.00  0.00    +0.000 C 
BRANCH   4   7
ATOM      6  C   UNL     1      67.004  51.241  60.063  0.00  0.00    +0.000 C 
ATOM      7  C   UNL     1      68.135  51.194  60.466  0.00  0.00    +0.000 C 
BRANCH   6   8
ATOM      8  C   UNL     1      65.560  51.298  59.549  0.00  0.00    +0.000 C 
BRANCH   8   9
ATOM      9  C   UNL     1      64.338  51.347  59.117  0.00  0.00    +0.000 C 
ATOM     10  C   UNL     1      63.718  50.135  58.493  0.00  0.00    +0.000 C 
BRANCH   9  12
ATOM     11  C   UNL     1      62.889  53.485  59.552  0.00  0.00    +0.000 C 
ATOM     12  C   UNL     1      63.555  52.505  59.348  0.00  0.00    +0.000 C 
BRANCH  11  14
ATOM     13  O   UNL     1      61.424  55.094  58.597  0.00  0.00    +0.000 OA
ATOM     14  C   UNL     1      62.080  54.664  59.822  0.00  0.00    +0.000 C 
ATOM     15  C   UNL     1      60.552  54.601  59.613  0.00  0.00    +0.000 C 
ATOM     16  C   UNL     1      62.649  55.796  60.743  0.00  0.00    +0.000 C 
ATOM     17  C   UNL     1      59.775  55.641  60.206  0.00  0.00    +0.000 C 
ATOM     18  C   UNL     1      61.539  56.706  61.059  0.00  0.00    +0.000 C 
ATOM     19  C   UNL     1      60.137  56.785  60.937  0.00  0.00    +0.000 C 
ATOM     20  C   UNL     1      59.816  53.319  59.214  0.00  0.00    +0.000 C 
ATOM     21  C   UNL     1      63.146  55.090  62.028  0.00  0.00    +0.000 C 
ATOM     22  C   UNL     1      63.785  56.478  59.952  0.00  0.00    +0.000 C 
BRANCH  19  23
ATOM     23  O   UNL     1      59.478  57.966  60.787  0.00  0.00    +0.000 OA
ATOM     24  H   UNL     1      59.908  58.558  60.143  0.00  0.00    +0.000 HD
ENDBRANCH  19  23
ENDBRANCH  11  14
ENDBRANCH   9  12
ENDBRANCH   8   9
ENDBRANCH   6   8
ENDBRANCH   4   7
ENDBRANCH   3   4
ENDBRANCH   2   3
BRANCH   1  25
ATOM     25  C   UNL     1      70.945  54.111  65.404  0.00  0.00    +0.000 C 
BRANCH  25  26
ATOM     26  C   UNL     1      71.289  54.804  66.443  0.00  0.00    +0.000 C 
ATOM     27  C   UNL     1      72.175  54.193  67.487  0.00  0.00    +0.000 C 
BRANCH  26  29
ATOM     28  C   UNL     1      70.478  57.277  66.691  0.00  0.00    +0.000 C 
ATOM     29  C   UNL     1      70.851  56.141  66.579  0.00  0.00    +0.000 C 
BRANCH  28  30
ATOM     30  C   UNL     1      70.001  58.729  66.826  0.00  0.00    +0.000 C 
BRANCH  30  31
ATOM     31  C   UNL     1      69.602  59.958  66.937  0.00  0.00    +0.000 C 
ATOM     32  C   UNL     1      69.970  60.755  68.151  0.00  0.00    +0.000 C 
BRANCH  31  34
ATOM     33  C   UNL     1      68.230  61.072  65.004  0.00  0.00    +0.000 C 
ATOM     34  C   UNL     1      68.861  60.558  65.890  0.00  0.00    +0.000 C 
BRANCH  33  36
ATOM     35  O   UNL     1      66.122  62.005  64.405  0.00  0.00    +0.000 OA
ATOM     36  C   UNL     1      67.466  61.699  63.935  0.00  0.00    +0.000 C 
ATOM     37  C   UNL     1      66.939  63.138  64.117  0.00  0.00    +0.000 C 
ATOM     38  C   UNL     1      67.579  61.134  62.475  0.00  0.00    +0.000 C 
ATOM     39  C   UNL     1      66.511  63.828  62.944  0.00  0.00    +0.000 C 
ATOM     40  C   UNL     1      66.964  62.120  61.584  0.00  0.00    +0.000 C 
ATOM     41  C   UNL     1      66.442  63.428  61.599  0.00  0.00    +0.000 C 
ATOM     42  C   UNL     1      67.235  63.999  65.348  0.00  0.00    +0.000 C 
ATOM     43  C   UNL     1      66.857  59.767  62.486  0.00  0.00    +0.000 C 
ATOM     44  C   UNL     1      69.099  61.003  62.194  0.00  0.00    +0.000 C 
BRANCH  41  45
ATOM     45  O   UNL     1      66.649  64.286  60.562  0.00  0.00    +0.000 OA
ATOM     46  H   UNL     1      66.623  65.220  60.842  0.00  0.00    +0.000 HD
ENDBRANCH  41  45
ENDBRANCH  33  36
ENDBRANCH  31  34
ENDBRANCH  30  31
ENDBRANCH  28  30
ENDBRANCH  26  29
ENDBRANCH  25  26
ENDBRANCH   1  25
TORSDOF 16
ENDMDL
MODEL 7
REMARK VINA RESULT:      -6.7      4.262      6.682
REMARK  Name = 448438_Violaxanthin.pdbqt.pdb
REMARK  16 active torsions:
REMARK  status: ('A' for Active; 'I' for Inactive)
REMARK    1  A    between atoms: C_1  and  C_5
REMARK    2  A    between atoms: C_2  and  C_27
REMARK    3  A    between atoms: C_3  and  C_5
REMARK    4  A    between atoms: C_3  and  C_7
REMARK    5  A    between atoms: C_6  and  C_10
REMARK    6  A    between atoms: C_8  and  C_10
REMARK    7  A    between atoms: C_8  and  C_12
REMARK    8  A    between atoms: C_11  and  C_14
REMARK    9  A    between atoms: C_19  and  O_23
REMARK   10  A    between atoms: C_25  and  C_27
REMARK   11  A    between atoms: C_25  and  C_29
REMARK   12  A    between atoms: C_28  and  C_32
REMARK   13  A    between atoms: C_30  and  C_32
REMARK   14  A    between atoms: C_30  and  C_34
REMARK   15  A    between atoms: C_33  and  C_36
REMARK   16  A    between atoms: C_41  and  O_45
REMARK                            x       y       z     vdW  Elec       q    Type
REMARK                         _______ _______ _______ _____ _____    ______ ____
ROOT
ATOM      1  C   UNL     1      66.196  65.278  64.786  0.00  0.00    +0.000 C 
ATOM      2  C   UNL     1      66.347  64.508  63.879  0.00  0.00    +0.000 C 
ENDROOT
BRANCH   2   3
ATOM      3  C   UNL     1      66.539  63.526  62.717  0.00  0.00    +0.000 C 
BRANCH   3   4
ATOM      4  C   UNL     1      66.700  62.693  61.737  0.00  0.00    +0.000 C 
ATOM      5  C   UNL     1      66.229  63.061  60.362  0.00  0.00    +0.000 C 
BRANCH   4   7
ATOM      6  C   UNL     1      67.726  60.329  62.182  0.00  0.00    +0.000 C 
ATOM      7  C   UNL     1      67.255  61.415  61.978  0.00  0.00    +0.000 C 
BRANCH   6   8
ATOM      8  C   UNL     1      68.325  58.942  62.444  0.00  0.00    +0.000 C 
BRANCH   8   9
ATOM      9  C   UNL     1      68.830  57.768  62.667  0.00  0.00    +0.000 C 
ATOM     10  C   UNL     1      68.759  56.711  61.608  0.00  0.00    +0.000 C 
BRANCH   9  12
ATOM     11  C   UNL     1      70.160  57.324  64.880  0.00  0.00    +0.000 C 
ATOM     12  C   UNL     1      69.553  57.527  63.862  0.00  0.00    +0.000 C 
BRANCH  11  14
ATOM     13  O   UNL     1      69.985  56.432  67.076  0.00  0.00    +0.000 OA
ATOM     14  C   UNL     1      70.873  57.083  66.125  0.00  0.00    +0.000 C 
ATOM     15  C   UNL     1      71.076  55.634  66.618  0.00  0.00    +0.000 C 
ATOM     16  C   UNL     1      71.816  58.193  66.701  0.00  0.00    +0.000 C 
ATOM     17  C   UNL     1      72.055  55.429  67.634  0.00  0.00    +0.000 C 
ATOM     18  C   UNL     1      72.599  57.585  67.787  0.00  0.00    +0.000 C 
ATOM     19  C   UNL     1      72.879  56.321  68.341  0.00  0.00    +0.000 C 
ATOM     20  C   UNL     1      70.637  54.409  65.810  0.00  0.00    +0.000 C 
ATOM     21  C   UNL     1      72.748  58.606  65.535  0.00  0.00    +0.000 C 
ATOM     22  C   UNL     1      70.905  59.342  67.181  0.00  0.00    +0.000 C 
BRANCH  19  23
ATOM     23  O   UNL     1      73.156  56.143  69.662  0.00  0.00    +0.000 OA
ATOM     24  H   UNL     1      72.387  56.314  70.235  0.00  0.00    +0.000 HD
ENDBRANCH  19  23
ENDBRANCH  11  14
ENDBRANCH   9  12
ENDBRANCH   8   9
ENDBRANCH   6   8
ENDBRANCH   4   7
ENDBRANCH   3   4
ENDBRANCH   2   3
BRANCH   1  25
ATOM     25  C   UNL     1      66.004  66.261  65.948  0.00  0.00    +0.000 C 
BRANCH  25  26
ATOM     26  C   UNL     1      65.842  67.092  66.929  0.00  0.00    +0.000 C 
ATOM     27  C   UNL     1      67.028  67.805  67.506  0.00  0.00    +0.000 C 
BRANCH  26  29
ATOM     28  C   UNL     1      63.446  67.555  67.869  0.00  0.00    +0.000 C 
ATOM     29  C   UNL     1      64.547  67.344  67.436  0.00  0.00    +0.000 C 
BRANCH  28  30
ATOM     30  C   UNL     1      62.041  67.819  68.426  0.00  0.00    +0.000 C 
BRANCH  30  31
ATOM     31  C   UNL     1      60.852  68.040  68.891  0.00  0.00    +0.000 C 
ATOM     32  C   UNL     1      60.608  69.215  69.788  0.00  0.00    +0.000 C 
BRANCH  31  34
ATOM     33  C   UNL     1      58.860  66.486  68.197  0.00  0.00    +0.000 C 
ATOM     34  C   UNL     1      59.776  67.199  68.513  0.00  0.00    +0.000 C 
BRANCH  33  36
ATOM     35  O   UNL     1      57.433  65.823  66.410  0.00  0.00    +0.000 OA
ATOM     36  C   UNL     1      57.748  65.627  67.818  0.00  0.00    +0.000 C 
ATOM     37  C   UNL     1      57.956  64.539  66.745  0.00  0.00    +0.000 C 
ATOM     38  C   UNL     1      56.523  65.480  68.790  0.00  0.00    +0.000 C 
ATOM     39  C   UNL     1      56.967  63.514  66.656  0.00  0.00    +0.000 C 
ATOM     40  C   UNL     1      55.725  64.351  68.308  0.00  0.00    +0.000 C 
ATOM     41  C   UNL     1      55.772  63.307  67.364  0.00  0.00    +0.000 C 
ATOM     42  C   UNL     1      59.306  64.245  66.086  0.00  0.00    +0.000 C 
ATOM     43  C   UNL     1      55.778  66.834  68.749  0.00  0.00    +0.000 C 
ATOM     44  C   UNL     1      57.131  65.177  70.184  0.00  0.00    +0.000 C 
BRANCH  41  45
ATOM     45  O   UNL     1      55.293  62.066  67.657  0.00  0.00    +0.000 OA
ATOM     46  H   UNL     1      55.485  61.800  68.574  0.00  0.00    +0.000 HD
ENDBRANCH  41  45
ENDBRANCH  33  36
ENDBRANCH  31  34
ENDBRANCH  30  31
ENDBRANCH  28  30
ENDBRANCH  26  29
ENDBRANCH  25  26
ENDBRANCH   1  25
TORSDOF 16
ENDMDL
MODEL 8
REMARK VINA RESULT:      -6.6      4.560      7.509
REMARK  Name = 448438_Violaxanthin.pdbqt.pdb
REMARK  16 active torsions:
REMARK  status: ('A' for Active; 'I' for Inactive)
REMARK    1  A    between atoms: C_1  and  C_5
REMARK    2  A    between atoms: C_2  and  C_27
REMARK    3  A    between atoms: C_3  and  C_5
REMARK    4  A    between atoms: C_3  and  C_7
REMARK    5  A    between atoms: C_6  and  C_10
REMARK    6  A    between atoms: C_8  and  C_10
REMARK    7  A    between atoms: C_8  and  C_12
REMARK    8  A    between atoms: C_11  and  C_14
REMARK    9  A    between atoms: C_19  and  O_23
REMARK   10  A    between atoms: C_25  and  C_27
REMARK   11  A    between atoms: C_25  and  C_29
REMARK   12  A    between atoms: C_28  and  C_32
REMARK   13  A    between atoms: C_30  and  C_32
REMARK   14  A    between atoms: C_30  and  C_34
REMARK   15  A    between atoms: C_33  and  C_36
REMARK   16  A    between atoms: C_41  and  O_45
REMARK                            x       y       z     vdW  Elec       q    Type
REMARK                         _______ _______ _______ _____ _____    ______ ____
ROOT
ATOM      1  C   UNL     1      69.620  57.892  64.713  0.00  0.00    +0.000 C 
ATOM      2  C   UNL     1      69.688  56.899  64.044  0.00  0.00    +0.000 C 
ENDROOT
BRANCH   2   3
ATOM      3  C   UNL     1      69.777  55.628  63.191  0.00  0.00    +0.000 C 
BRANCH   3   4
ATOM      4  C   UNL     1      69.854  54.554  62.470  0.00  0.00    +0.000 C 
ATOM      5  C   UNL     1      71.161  53.829  62.350  0.00  0.00    +0.000 C 
BRANCH   4   7
ATOM      6  C   UNL     1      67.768  53.729  61.125  0.00  0.00    +0.000 C 
ATOM      7  C   UNL     1      68.726  54.108  61.742  0.00  0.00    +0.000 C 
BRANCH   6   8
ATOM      8  C   UNL     1      66.545  53.243  60.337  0.00  0.00    +0.000 C 
BRANCH   8   9
ATOM      9  C   UNL     1      65.512  52.829  59.672  0.00  0.00    +0.000 C 
ATOM     10  C   UNL     1      65.516  51.461  59.061  0.00  0.00    +0.000 C 
BRANCH   9  12
ATOM     11  C   UNL     1      63.345  54.299  59.596  0.00  0.00    +0.000 C 
ATOM     12  C   UNL     1      64.337  53.621  59.629  0.00  0.00    +0.000 C 
BRANCH  11  14
ATOM     13  O   UNL     1      61.365  54.895  60.768  0.00  0.00    +0.000 OA
ATOM     14  C   UNL     1      62.156  55.137  59.571  0.00  0.00    +0.000 C 
ATOM     15  C   UNL     1      61.947  56.195  60.676  0.00  0.00    +0.000 C 
ATOM     16  C   UNL     1      61.360  55.307  58.233  0.00  0.00    +0.000 C 
ATOM     17  C   UNL     1      60.970  57.204  60.428  0.00  0.00    +0.000 C 
ATOM     18  C   UNL     1      60.397  56.399  58.429  0.00  0.00    +0.000 C 
ATOM     19  C   UNL     1      60.090  57.418  59.354  0.00  0.00    +0.000 C 
ATOM     20  C   UNL     1      62.983  56.477  61.768  0.00  0.00    +0.000 C 
ATOM     21  C   UNL     1      62.407  55.702  57.163  0.00  0.00    +0.000 C 
ATOM     22  C   UNL     1      60.686  53.949  57.945  0.00  0.00    +0.000 C 
BRANCH  19  23
ATOM     23  O   UNL     1      58.823  57.875  59.549  0.00  0.00    +0.000 OA
ATOM     24  H   UNL     1      58.439  58.275  58.748  0.00  0.00    +0.000 HD
ENDBRANCH  19  23
ENDBRANCH  11  14
ENDBRANCH   9  12
ENDBRANCH   8   9
ENDBRANCH   6   8
ENDBRANCH   4   7
ENDBRANCH   3   4
ENDBRANCH   2   3
BRANCH   1  25
ATOM     25  C   UNL     1      69.531  59.163  65.567  0.00  0.00    +0.000 C 
BRANCH  25  26
ATOM     26  C   UNL     1      69.457  60.237  66.289  0.00  0.00    +0.000 C 
ATOM     27  C   UNL     1      70.229  60.328  67.571  0.00  0.00    +0.000 C 
BRANCH  26  29
ATOM     28  C   UNL     1      68.000  62.253  65.484  0.00  0.00    +0.000 C 
ATOM     29  C   UNL     1      68.670  61.328  65.855  0.00  0.00    +0.000 C 
BRANCH  28  30
ATOM     30  C   UNL     1      67.141  63.431  65.005  0.00  0.00    +0.000 C 
BRANCH  30  31
ATOM     31  C   UNL     1      66.412  64.424  64.603  0.00  0.00    +0.000 C 
ATOM     32  C   UNL     1      65.610  64.300  63.343  0.00  0.00    +0.000 C 
BRANCH  31  34
ATOM     33  C   UNL     1      66.278  66.611  66.040  0.00  0.00    +0.000 C 
ATOM     34  C   UNL     1      66.336  65.607  65.380  0.00  0.00    +0.000 C 
BRANCH  33  36
ATOM     35  O   UNL     1      66.972  67.652  68.066  0.00  0.00    +0.000 OA
ATOM     36  C   UNL     1      66.214  67.828  66.835  0.00  0.00    +0.000 C 
ATOM     37  C   UNL     1      67.510  68.603  67.150  0.00  0.00    +0.000 C 
ATOM     38  C   UNL     1      64.847  68.591  66.965  0.00  0.00    +0.000 C 
ATOM     39  C   UNL     1      67.369  69.943  67.619  0.00  0.00    +0.000 C 
ATOM     40  C   UNL     1      65.141  69.901  67.548  0.00  0.00    +0.000 C 
ATOM     41  C   UNL     1      66.233  70.721  67.894  0.00  0.00    +0.000 C 
ATOM     42  C   UNL     1      68.886  68.210  66.607  0.00  0.00    +0.000 C 
ATOM     43  C   UNL     1      63.942  67.703  67.850  0.00  0.00    +0.000 C 
ATOM     44  C   UNL     1      64.311  68.734  65.517  0.00  0.00    +0.000 C 
BRANCH  41  45
ATOM     45  O   UNL     1      66.196  72.069  67.701  0.00  0.00    +0.000 OA
ATOM     46  H   UNL     1      65.339  72.371  67.349  0.00  0.00    +0.000 HD
ENDBRANCH  41  45
ENDBRANCH  33  36
ENDBRANCH  31  34
ENDBRANCH  30  31
ENDBRANCH  28  30
ENDBRANCH  26  29
ENDBRANCH  25  26
ENDBRANCH   1  25
TORSDOF 16
ENDMDL
MODEL 9
REMARK VINA RESULT:      -6.5     22.012     28.592
REMARK  Name = 448438_Violaxanthin.pdbqt.pdb
REMARK  16 active torsions:
REMARK  status: ('A' for Active; 'I' for Inactive)
REMARK    1  A    between atoms: C_1  and  C_5
REMARK    2  A    between atoms: C_2  and  C_27
REMARK    3  A    between atoms: C_3  and  C_5
REMARK    4  A    between atoms: C_3  and  C_7
REMARK    5  A    between atoms: C_6  and  C_10
REMARK    6  A    between atoms: C_8  and  C_10
REMARK    7  A    between atoms: C_8  and  C_12
REMARK    8  A    between atoms: C_11  and  C_14
REMARK    9  A    between atoms: C_19  and  O_23
REMARK   10  A    between atoms: C_25  and  C_27
REMARK   11  A    between atoms: C_25  and  C_29
REMARK   12  A    between atoms: C_28  and  C_32
REMARK   13  A    between atoms: C_30  and  C_32
REMARK   14  A    between atoms: C_30  and  C_34
REMARK   15  A    between atoms: C_33  and  C_36
REMARK   16  A    between atoms: C_41  and  O_45
REMARK                            x       y       z     vdW  Elec       q    Type
REMARK                         _______ _______ _______ _____ _____    ______ ____
ROOT
ATOM      1  C   UNL     1      62.544  67.090  92.168  0.00  0.00    +0.000 C 
ATOM      2  C   UNL     1      61.506  67.324  91.614  0.00  0.00    +0.000 C 
ENDROOT
BRANCH   2   3
ATOM      3  C   UNL     1      60.179  67.623  90.908  0.00  0.00    +0.000 C 
BRANCH   3   4
ATOM      4  C   UNL     1      59.058  67.878  90.310  0.00  0.00    +0.000 C 
ATOM      5  C   UNL     1      57.861  67.014  90.570  0.00  0.00    +0.000 C 
BRANCH   4   7
ATOM      6  C   UNL     1      58.920  69.817  88.560  0.00  0.00    +0.000 C 
ATOM      7  C   UNL     1      58.983  68.927  89.364  0.00  0.00    +0.000 C 
BRANCH   6   8
ATOM      8  C   UNL     1      58.837  70.953  87.532  0.00  0.00    +0.000 C 
BRANCH   8   9
ATOM      9  C   UNL     1      58.764  71.914  86.665  0.00  0.00    +0.000 C 
ATOM     10  C   UNL     1      59.464  73.212  86.927  0.00  0.00    +0.000 C 
BRANCH   9  12
ATOM     11  C   UNL     1      57.586  71.494  84.363  0.00  0.00    +0.000 C 
ATOM     12  C   UNL     1      58.128  71.692  85.418  0.00  0.00    +0.000 C 
BRANCH  11  14
ATOM     13  O   UNL     1      56.533  72.491  82.479  0.00  0.00    +0.000 OA
ATOM     14  C   UNL     1      56.930  71.231  83.091  0.00  0.00    +0.000 C 
ATOM     15  C   UNL     1      57.554  71.773  81.787  0.00  0.00    +0.000 C 
ATOM     16  C   UNL     1      55.908  70.051  82.980  0.00  0.00    +0.000 C 
ATOM     17  C   UNL     1      57.081  71.213  80.563  0.00  0.00    +0.000 C 
ATOM     18  C   UNL     1      55.621  69.849  81.552  0.00  0.00    +0.000 C 
ATOM     19  C   UNL     1      56.089  70.257  80.288  0.00  0.00    +0.000 C 
ATOM     20  C   UNL     1      58.896  72.510  81.747  0.00  0.00    +0.000 C 
ATOM     21  C   UNL     1      56.626  68.809  83.563  0.00  0.00    +0.000 C 
ATOM     22  C   UNL     1      54.664  70.465  83.795  0.00  0.00    +0.000 C 
BRANCH  19  23
ATOM     23  O   UNL     1      55.273  70.368  79.203  0.00  0.00    +0.000 OA
ATOM     24  H   UNL     1      55.575  71.045  78.572  0.00  0.00    +0.000 HD
ENDBRANCH  19  23
ENDBRANCH  11  14
ENDBRANCH   9  12
ENDBRANCH   8   9
ENDBRANCH   6   8
ENDBRANCH   4   7
ENDBRANCH   3   4
ENDBRANCH   2   3
BRANCH   1  25
ATOM     25  C   UNL     1      63.872  66.791  92.876  0.00  0.00    +0.000 C 
BRANCH  25  26
ATOM     26  C   UNL     1      64.994  66.538  93.473  0.00  0.00    +0.000 C 
ATOM     27  C   UNL     1      65.373  65.120  93.779  0.00  0.00    +0.000 C 
BRANCH  26  29
ATOM     28  C   UNL     1      66.612  68.493  94.103  0.00  0.00    +0.000 C 
ATOM     29  C   UNL     1      65.869  67.595  93.812  0.00  0.00    +0.000 C 
BRANCH  28  30
ATOM     30  C   UNL     1      67.556  69.642  94.481  0.00  0.00    +0.000 C 
BRANCH  30  31
ATOM     31  C   UNL     1      68.358  70.609  94.802  0.00  0.00    +0.000 C 
ATOM     32  C   UNL     1      69.836  70.369  94.850  0.00  0.00    +0.000 C 
BRANCH  31  34
ATOM     33  C   UNL     1      67.403  73.002  95.278  0.00  0.00    +0.000 C 
ATOM     34  C   UNL     1      67.838  71.902  95.059  0.00  0.00    +0.000 C 
BRANCH  33  36
ATOM     35  O   UNL     1      67.702  74.996  96.544  0.00  0.00    +0.000 OA
ATOM     36  C   UNL     1      66.881  74.335  95.539  0.00  0.00    +0.000 C 
ATOM     37  C   UNL     1      67.757  75.569  95.239  0.00  0.00    +0.000 C 
ATOM     38  C   UNL     1      65.330  74.544  95.663  0.00  0.00    +0.000 C 
ATOM     39  C   UNL     1      67.101  76.835  95.177  0.00  0.00    +0.000 C 
ATOM     40  C   UNL     1      65.086  75.987  95.619  0.00  0.00    +0.000 C 
ATOM     41  C   UNL     1      65.759  77.200  95.375  0.00  0.00    +0.000 C 
ATOM     42  C   UNL     1      69.146  75.488  94.600  0.00  0.00    +0.000 C 
ATOM     43  C   UNL     1      64.913  73.881  96.995  0.00  0.00    +0.000 C 
ATOM     44  C   UNL     1      64.714  73.838  94.427  0.00  0.00    +0.000 C 
BRANCH  41  45
ATOM     45  O   UNL     1      65.163  78.217  94.692  0.00  0.00    +0.000 OA
ATOM     46  H   UNL     1      65.743  78.995  94.603  0.00  0.00    +0.000 HD
ENDBRANCH  41  45
ENDBRANCH  33  36
ENDBRANCH  31  34
ENDBRANCH  30  31
ENDBRANCH  28  30
ENDBRANCH  26  29
ENDBRANCH  25  26
ENDBRANCH   1  25
TORSDOF 16
ENDMDL
