MODEL 1
REMARK VINA RESULT:      -7.3      0.000      0.000
REMARK  Name = 490561_Nocardiopsis.pdbqt.pdb
REMARK  3 active torsions:
REMARK  status: ('A' for Active; 'I' for Inactive)
REMARK    1  A    between atoms: C_7  and  O_32
REMARK    2  A    between atoms: C_7  and  C_35
REMARK    3  A    between atoms: C_35  and  O_36
REMARK                            x       y       z     vdW  Elec       q    Type
REMARK                         _______ _______ _______ _____ _____    ______ ____
ROOT
ATOM      1  O   UNL     1      53.899  53.842  86.212  0.00  0.00    +0.000 OA
ATOM      2  O   UNL     1      50.808  57.906  80.674  0.00  0.00    +0.000 OA
ATOM      3  N   UNL     1      52.553  52.727  84.620  0.00  0.00    +0.000 N 
ATOM      4  N   UNL     1      54.058  55.315  84.410  0.00  0.00    +0.000 N 
ATOM      5  N   UNL     1      49.501  55.986  80.646  0.00  0.00    +0.000 N 
ATOM      6  C   UNL     1      53.644  52.531  85.596  0.00  0.00    +0.000 C 
ATOM      7  C   UNL     1      55.030  52.146  84.920  0.00  0.00    +0.000 C 
ATOM      8  C   UNL     1      54.739  54.497  85.295  0.00  0.00    +0.000 C 
ATOM      9  C   UNL     1      55.562  53.492  84.729  0.00  0.00    +0.000 C 
ATOM     10  C   UNL     1      52.193  53.828  83.884  0.00  0.00    +0.000 A 
ATOM     11  C   UNL     1      52.876  55.040  83.792  0.00  0.00    +0.000 A 
ATOM     12  C   UNL     1      51.072  53.754  83.051  0.00  0.00    +0.000 A 
ATOM     13  C   UNL     1      52.340  55.968  82.891  0.00  0.00    +0.000 A 
ATOM     14  C   UNL     1      53.217  51.599  86.778  0.00  0.00    +0.000 C 
ATOM     15  C   UNL     1      51.591  51.800  84.147  0.00  0.00    +0.000 A 
ATOM     16  C   UNL     1      54.372  56.551  83.815  0.00  0.00    +0.000 A 
ATOM     17  C   UNL     1      50.669  52.417  83.221  0.00  0.00    +0.000 A 
ATOM     18  C   UNL     1      50.504  54.675  82.161  0.00  0.00    +0.000 A 
ATOM     19  C   UNL     1      51.202  55.916  82.061  0.00  0.00    +0.000 A 
ATOM     20  C   UNL     1      53.328  56.978  82.910  0.00  0.00    +0.000 A 
ATOM     21  C   UNL     1      49.376  54.761  81.199  0.00  0.00    +0.000 C 
ATOM     22  C   UNL     1      51.459  50.436  84.460  0.00  0.00    +0.000 A 
ATOM     23  C   UNL     1      50.571  56.780  81.086  0.00  0.00    +0.000 C 
ATOM     24  C   UNL     1      55.511  57.343  84.024  0.00  0.00    +0.000 A 
ATOM     25  C   UNL     1      49.642  51.627  82.666  0.00  0.00    +0.000 A 
ATOM     26  C   UNL     1      53.499  58.206  82.241  0.00  0.00    +0.000 A 
ATOM     27  C   UNL     1      50.425  49.697  83.886  0.00  0.00    +0.000 A 
ATOM     28  C   UNL     1      49.526  50.280  83.008  0.00  0.00    +0.000 A 
ATOM     29  C   UNL     1      55.624  58.553  83.339  0.00  0.00    +0.000 A 
ATOM     30  C   UNL     1      54.637  58.980  82.463  0.00  0.00    +0.000 A 
ATOM     31  H   UNL     1      48.865  56.333  79.944  0.00  0.00    +0.000 HD
ENDROOT
BRANCH   7  32
ATOM     32  O   UNL     1      54.920  51.504  83.642  0.00  0.00    +0.000 OA
ATOM     33  H   UNL     1      55.334  50.617  83.724  0.00  0.00    +0.000 HD
ENDBRANCH   7  32
BRANCH   7  35
ATOM     34  O   UNL     1      56.543  51.868  86.763  0.00  0.00    +0.000 OA
ATOM     35  C   UNL     1      55.910  51.321  85.858  0.00  0.00    +0.000 C 
BRANCH  35  36
ATOM     36  O   UNL     1      55.832  49.985  85.580  0.00  0.00    +0.000 OA
ATOM     37  C   UNL     1      57.030  49.303  85.324  0.00  0.00    +0.000 C 
ENDBRANCH  35  36
ENDBRANCH   7  35
TORSDOF 3
ENDMDL
MODEL 2
REMARK VINA RESULT:      -7.2     27.413     30.367
REMARK  Name = 490561_Nocardiopsis.pdbqt.pdb
REMARK  3 active torsions:
REMARK  status: ('A' for Active; 'I' for Inactive)
REMARK    1  A    between atoms: C_7  and  O_32
REMARK    2  A    between atoms: C_7  and  C_35
REMARK    3  A    between atoms: C_35  and  O_36
REMARK                            x       y       z     vdW  Elec       q    Type
REMARK                         _______ _______ _______ _____ _____    ______ ____
ROOT
ATOM      1  O   UNL     1      72.349  41.798  65.897  0.00  0.00    +0.000 OA
ATOM      2  O   UNL     1      68.815  35.669  63.313  0.00  0.00    +0.000 OA
ATOM      3  N   UNL     1      71.960  41.624  63.572  0.00  0.00    +0.000 N 
ATOM      4  N   UNL     1      70.538  40.328  65.875  0.00  0.00    +0.000 N 
ATOM      5  N   UNL     1      69.823  36.488  61.388  0.00  0.00    +0.000 N 
ATOM      6  C   UNL     1      72.199  42.588  64.666  0.00  0.00    +0.000 C 
ATOM      7  C   UNL     1      70.951  43.527  64.959  0.00  0.00    +0.000 C 
ATOM      8  C   UNL     1      71.028  41.546  66.309  0.00  0.00    +0.000 C 
ATOM      9  C   UNL     1      70.281  42.696  65.956  0.00  0.00    +0.000 C 
ATOM     10  C   UNL     1      71.370  40.386  63.578  0.00  0.00    +0.000 A 
ATOM     11  C   UNL     1      70.721  39.767  64.647  0.00  0.00    +0.000 A 
ATOM     12  C   UNL     1      71.310  39.653  62.389  0.00  0.00    +0.000 A 
ATOM     13  C   UNL     1      70.121  38.537  64.357  0.00  0.00    +0.000 A 
ATOM     14  C   UNL     1      73.557  43.347  64.497  0.00  0.00    +0.000 C 
ATOM     15  C   UNL     1      72.251  41.742  62.189  0.00  0.00    +0.000 A 
ATOM     16  C   UNL     1      69.674  39.382  66.457  0.00  0.00    +0.000 A 
ATOM     17  C   UNL     1      71.891  40.543  61.468  0.00  0.00    +0.000 A 
ATOM     18  C   UNL     1      70.737  38.412  62.081  0.00  0.00    +0.000 A 
ATOM     19  C   UNL     1      70.068  37.778  63.170  0.00  0.00    +0.000 A 
ATOM     20  C   UNL     1      69.430  38.273  65.561  0.00  0.00    +0.000 A 
ATOM     21  C   UNL     1      70.548  37.521  60.909  0.00  0.00    +0.000 C 
ATOM     22  C   UNL     1      72.805  42.834  61.499  0.00  0.00    +0.000 A 
ATOM     23  C   UNL     1      69.470  36.531  62.745  0.00  0.00    +0.000 C 
ATOM     24  C   UNL     1      69.093  39.417  67.733  0.00  0.00    +0.000 A 
ATOM     25  C   UNL     1      72.126  40.498  60.079  0.00  0.00    +0.000 A 
ATOM     26  C   UNL     1      68.584  37.239  66.009  0.00  0.00    +0.000 A 
ATOM     27  C   UNL     1      73.020  42.740  60.125  0.00  0.00    +0.000 A 
ATOM     28  C   UNL     1      72.693  41.591  59.423  0.00  0.00    +0.000 A 
ATOM     29  C   UNL     1      68.269  38.362  68.126  0.00  0.00    +0.000 A 
ATOM     30  C   UNL     1      68.017  37.291  67.281  0.00  0.00    +0.000 A 
ATOM     31  H   UNL     1      69.536  35.711  60.812  0.00  0.00    +0.000 HD
ENDROOT
BRANCH   7  32
ATOM     32  O   UNL     1      70.067  43.721  63.846  0.00  0.00    +0.000 OA
ATOM     33  H   UNL     1      69.164  43.850  64.210  0.00  0.00    +0.000 HD
ENDBRANCH   7  32
BRANCH   7  35
ATOM     34  O   UNL     1      71.461  45.869  64.822  0.00  0.00    +0.000 OA
ATOM     35  C   UNL     1      71.378  44.873  65.543  0.00  0.00    +0.000 C 
BRANCH  35  36
ATOM     36  O   UNL     1      71.576  44.798  66.894  0.00  0.00    +0.000 OA
ATOM     37  C   UNL     1      72.699  45.448  67.424  0.00  0.00    +0.000 C 
ENDBRANCH  35  36
ENDBRANCH   7  35
TORSDOF 3
ENDMDL
MODEL 3
REMARK VINA RESULT:      -7.2     24.633     27.621
REMARK  Name = 490561_Nocardiopsis.pdbqt.pdb
REMARK  3 active torsions:
REMARK  status: ('A' for Active; 'I' for Inactive)
REMARK    1  A    between atoms: C_7  and  O_32
REMARK    2  A    between atoms: C_7  and  C_35
REMARK    3  A    between atoms: C_35  and  O_36
REMARK                            x       y       z     vdW  Elec       q    Type
REMARK                         _______ _______ _______ _____ _____    ______ ____
ROOT
ATOM      1  O   UNL     1      47.969  34.775  63.468  0.00  0.00    +0.000 OA
ATOM      2  O   UNL     1      55.360  36.094  62.863  0.00  0.00    +0.000 OA
ATOM      3  N   UNL     1      48.923  36.457  64.828  0.00  0.00    +0.000 N 
ATOM      4  N   UNL     1      49.864  35.313  62.218  0.00  0.00    +0.000 N 
ATOM      5  N   UNL     1      54.869  37.053  64.921  0.00  0.00    +0.000 N 
ATOM      6  C   UNL     1      47.658  36.003  64.215  0.00  0.00    +0.000 C 
ATOM      7  C   UNL     1      47.105  36.999  63.107  0.00  0.00    +0.000 C 
ATOM      8  C   UNL     1      48.483  35.237  62.243  0.00  0.00    +0.000 C 
ATOM      9  C   UNL     1      47.773  36.425  61.942  0.00  0.00    +0.000 C 
ATOM     10  C   UNL     1      50.225  36.302  64.423  0.00  0.00    +0.000 A 
ATOM     11  C   UNL     1      50.673  35.757  63.219  0.00  0.00    +0.000 A 
ATOM     12  C   UNL     1      51.253  36.802  65.227  0.00  0.00    +0.000 A 
ATOM     13  C   UNL     1      52.057  35.805  63.015  0.00  0.00    +0.000 A 
ATOM     14  C   UNL     1      46.603  35.575  65.287  0.00  0.00    +0.000 C 
ATOM     15  C   UNL     1      49.130  37.220  66.005  0.00  0.00    +0.000 A 
ATOM     16  C   UNL     1      50.817  35.082  61.208  0.00  0.00    +0.000 A 
ATOM     17  C   UNL     1      50.537  37.409  66.274  0.00  0.00    +0.000 A 
ATOM     18  C   UNL     1      52.643  36.839  65.054  0.00  0.00    +0.000 A 
ATOM     19  C   UNL     1      53.106  36.287  63.823  0.00  0.00    +0.000 A 
ATOM     20  C   UNL     1      52.157  35.349  61.681  0.00  0.00    +0.000 A 
ATOM     21  C   UNL     1      53.850  37.342  65.758  0.00  0.00    +0.000 C 
ATOM     22  C   UNL     1      48.172  37.779  66.868  0.00  0.00    +0.000 A 
ATOM     23  C   UNL     1      54.543  36.414  63.715  0.00  0.00    +0.000 C 
ATOM     24  C   UNL     1      50.592  34.636  59.897  0.00  0.00    +0.000 A 
ATOM     25  C   UNL     1      50.910  38.143  67.419  0.00  0.00    +0.000 A 
ATOM     26  C   UNL     1      53.223  35.156  60.780  0.00  0.00    +0.000 A 
ATOM     27  C   UNL     1      48.591  38.496  67.988  0.00  0.00    +0.000 A 
ATOM     28  C   UNL     1      49.937  38.671  68.266  0.00  0.00    +0.000 A 
ATOM     29  C   UNL     1      51.686  34.456  59.052  0.00  0.00    +0.000 A 
ATOM     30  C   UNL     1      52.980  34.710  59.482  0.00  0.00    +0.000 A 
ATOM     31  H   UNL     1      55.829  37.280  65.134  0.00  0.00    +0.000 HD
ENDROOT
BRANCH   7  32
ATOM     32  O   UNL     1      47.525  38.363  63.258  0.00  0.00    +0.000 OA
ATOM     33  H   UNL     1      46.857  38.926  62.808  0.00  0.00    +0.000 HD
ENDBRANCH   7  32
BRANCH   7  35
ATOM     34  O   UNL     1      44.860  37.626  63.684  0.00  0.00    +0.000 OA
ATOM     35  C   UNL     1      45.585  36.920  62.979  0.00  0.00    +0.000 C 
BRANCH  35  36
ATOM     36  O   UNL     1      45.204  36.050  61.995  0.00  0.00    +0.000 OA
ATOM     37  C   UNL     1      44.460  34.924  62.373  0.00  0.00    +0.000 C 
ENDBRANCH  35  36
ENDBRANCH   7  35
TORSDOF 3
ENDMDL
MODEL 4
REMARK VINA RESULT:      -7.1     23.531     26.867
REMARK  Name = 490561_Nocardiopsis.pdbqt.pdb
REMARK  3 active torsions:
REMARK  status: ('A' for Active; 'I' for Inactive)
REMARK    1  A    between atoms: C_7  and  O_32
REMARK    2  A    between atoms: C_7  and  C_35
REMARK    3  A    between atoms: C_35  and  O_36
REMARK                            x       y       z     vdW  Elec       q    Type
REMARK                         _______ _______ _______ _____ _____    ______ ____
ROOT
ATOM      1  O   UNL     1      64.446  73.870  67.286  0.00  0.00    +0.000 OA
ATOM      2  O   UNL     1      68.555  67.559  67.161  0.00  0.00    +0.000 OA
ATOM      3  N   UNL     1      63.459  71.873  68.080  0.00  0.00    +0.000 N 
ATOM      4  N   UNL     1      66.350  72.647  67.853  0.00  0.00    +0.000 N 
ATOM      5  N   UNL     1      66.397  66.722  67.339  0.00  0.00    +0.000 N 
ATOM      6  C   UNL     1      63.393  73.346  68.171  0.00  0.00    +0.000 C 
ATOM      7  C   UNL     1      63.783  73.905  69.607  0.00  0.00    +0.000 C 
ATOM      8  C   UNL     1      65.616  73.801  68.063  0.00  0.00    +0.000 C 
ATOM      9  C   UNL     1      65.218  74.070  69.396  0.00  0.00    +0.000 C 
ATOM     10  C   UNL     1      64.515  71.035  67.823  0.00  0.00    +0.000 A 
ATOM     11  C   UNL     1      65.859  71.386  67.701  0.00  0.00    +0.000 A 
ATOM     12  C   UNL     1      64.289  69.657  67.751  0.00  0.00    +0.000 A 
ATOM     13  C   UNL     1      66.748  70.319  67.532  0.00  0.00    +0.000 A 
ATOM     14  C   UNL     1      62.054  73.913  67.595  0.00  0.00    +0.000 C 
ATOM     15  C   UNL     1      62.434  70.913  68.274  0.00  0.00    +0.000 A 
ATOM     16  C   UNL     1      67.732  72.384  67.832  0.00  0.00    +0.000 A 
ATOM     17  C   UNL     1      62.916  69.570  68.046  0.00  0.00    +0.000 A 
ATOM     18  C   UNL     1      65.157  68.575  67.560  0.00  0.00    +0.000 A 
ATOM     19  C   UNL     1      66.534  68.928  67.438  0.00  0.00    +0.000 A 
ATOM     20  C   UNL     1      67.995  70.979  67.611  0.00  0.00    +0.000 A 
ATOM     21  C   UNL     1      65.108  67.092  67.491  0.00  0.00    +0.000 C 
ATOM     22  C   UNL     1      61.096  71.122  68.647  0.00  0.00    +0.000 A 
ATOM     23  C   UNL     1      67.355  67.746  67.293  0.00  0.00    +0.000 C 
ATOM     24  C   UNL     1      68.786  73.299  67.979  0.00  0.00    +0.000 A 
ATOM     25  C   UNL     1      62.013  68.498  68.191  0.00  0.00    +0.000 A 
ATOM     26  C   UNL     1      69.339  70.561  67.560  0.00  0.00    +0.000 A 
ATOM     27  C   UNL     1      60.240  70.028  68.775  0.00  0.00    +0.000 A 
ATOM     28  C   UNL     1      60.686  68.736  68.546  0.00  0.00    +0.000 A 
ATOM     29  C   UNL     1      70.097  72.829  67.913  0.00  0.00    +0.000 A 
ATOM     30  C   UNL     1      70.373  71.485  67.706  0.00  0.00    +0.000 A 
ATOM     31  H   UNL     1      66.680  65.756  67.261  0.00  0.00    +0.000 HD
ENDROOT
BRANCH   7  32
ATOM     32  O   UNL     1      63.575  72.985  70.689  0.00  0.00    +0.000 OA
ATOM     33  H   UNL     1      62.939  72.306  70.376  0.00  0.00    +0.000 HD
ENDBRANCH   7  32
BRANCH   7  35
ATOM     34  O   UNL     1      63.486  76.273  69.352  0.00  0.00    +0.000 OA
ATOM     35  C   UNL     1      63.100  75.239  69.902  0.00  0.00    +0.000 C 
BRANCH  35  36
ATOM     36  O   UNL     1      62.046  75.090  70.759  0.00  0.00    +0.000 OA
ATOM     37  C   UNL     1      60.933  75.922  70.574  0.00  0.00    +0.000 C 
ENDBRANCH  35  36
ENDBRANCH   7  35
TORSDOF 3
ENDMDL
MODEL 5
REMARK VINA RESULT:      -7.0     33.930     35.580
REMARK  Name = 490561_Nocardiopsis.pdbqt.pdb
REMARK  3 active torsions:
REMARK  status: ('A' for Active; 'I' for Inactive)
REMARK    1  A    between atoms: C_7  and  O_32
REMARK    2  A    between atoms: C_7  and  C_35
REMARK    3  A    between atoms: C_35  and  O_36
REMARK                            x       y       z     vdW  Elec       q    Type
REMARK                         _______ _______ _______ _____ _____    ______ ____
ROOT
ATOM      1  O   UNL     1      66.318  39.479  51.869  0.00  0.00    +0.000 OA
ATOM      2  O   UNL     1      61.339  36.316  56.552  0.00  0.00    +0.000 OA
ATOM      3  N   UNL     1      64.986  40.896  53.213  0.00  0.00    +0.000 N 
ATOM      4  N   UNL     1      65.773  38.027  53.612  0.00  0.00    +0.000 N 
ATOM      5  N   UNL     1      60.539  38.491  56.399  0.00  0.00    +0.000 N 
ATOM      6  C   UNL     1      66.262  40.819  52.473  0.00  0.00    +0.000 C 
ATOM      7  C   UNL     1      67.540  40.871  53.417  0.00  0.00    +0.000 C 
ATOM      8  C   UNL     1      66.786  38.652  52.906  0.00  0.00    +0.000 C 
ATOM      9  C   UNL     1      67.694  39.439  53.656  0.00  0.00    +0.000 C 
ATOM     10  C   UNL     1      64.241  39.919  53.824  0.00  0.00    +0.000 A 
ATOM     11  C   UNL     1      64.590  38.580  54.001  0.00  0.00    +0.000 A 
ATOM     12  C   UNL     1      63.028  40.264  54.427  0.00  0.00    +0.000 A 
ATOM     13  C   UNL     1      63.686  37.814  54.745  0.00  0.00    +0.000 A 
ATOM     14  C   UNL     1      66.305  41.815  51.266  0.00  0.00    +0.000 C 
ATOM     15  C   UNL     1      64.194  42.029  53.526  0.00  0.00    +0.000 A 
ATOM     16  C   UNL     1      65.666  36.758  54.209  0.00  0.00    +0.000 A 
ATOM     17  C   UNL     1      62.990  41.657  54.233  0.00  0.00    +0.000 A 
ATOM     18  C   UNL     1      62.097  39.512  55.156  0.00  0.00    +0.000 A 
ATOM     19  C   UNL     1      62.452  38.143  55.343  0.00  0.00    +0.000 A 
ATOM     20  C   UNL     1      64.394  36.599  54.879  0.00  0.00    +0.000 A 
ATOM     21  C   UNL     1      60.814  39.705  55.879  0.00  0.00    +0.000 C 
ATOM     22  C   UNL     1      64.449  43.382  53.244  0.00  0.00    +0.000 A 
ATOM     23  C   UNL     1      61.458  37.462  56.144  0.00  0.00    +0.000 C 
ATOM     24  C   UNL     1      66.606  35.717  54.194  0.00  0.00    +0.000 A 
ATOM     25  C   UNL     1      62.089  42.673  54.609  0.00  0.00    +0.000 A 
ATOM     26  C   UNL     1      64.138  35.372  55.523  0.00  0.00    +0.000 A 
ATOM     27  C   UNL     1      63.525  44.351  53.636  0.00  0.00    +0.000 A 
ATOM     28  C   UNL     1      62.361  44.006  54.302  0.00  0.00    +0.000 A 
ATOM     29  C   UNL     1      66.296  34.521  54.842  0.00  0.00    +0.000 A 
ATOM     30  C   UNL     1      65.084  34.348  55.495  0.00  0.00    +0.000 A 
ATOM     31  H   UNL     1      59.714  38.310  56.952  0.00  0.00    +0.000 HD
ENDROOT
BRANCH   7  32
ATOM     32  O   UNL     1      67.335  41.533  54.674  0.00  0.00    +0.000 OA
ATOM     33  H   UNL     1      66.585  41.083  55.121  0.00  0.00    +0.000 HD
ENDBRANCH   7  32
BRANCH   7  35
ATOM     34  O   UNL     1      69.313  40.822  51.799  0.00  0.00    +0.000 OA
ATOM     35  C   UNL     1      68.754  41.455  52.697  0.00  0.00    +0.000 C 
BRANCH  35  36
ATOM     36  O   UNL     1      69.050  42.713  53.144  0.00  0.00    +0.000 OA
ATOM     37  C   UNL     1      69.498  43.650  52.202  0.00  0.00    +0.000 C 
ENDBRANCH  35  36
ENDBRANCH   7  35
TORSDOF 3
ENDMDL
MODEL 6
REMARK VINA RESULT:      -7.0     17.966     23.026
REMARK  Name = 490561_Nocardiopsis.pdbqt.pdb
REMARK  3 active torsions:
REMARK  status: ('A' for Active; 'I' for Inactive)
REMARK    1  A    between atoms: C_7  and  O_32
REMARK    2  A    between atoms: C_7  and  C_35
REMARK    3  A    between atoms: C_35  and  O_36
REMARK                            x       y       z     vdW  Elec       q    Type
REMARK                         _______ _______ _______ _____ _____    ______ ____
ROOT
ATOM      1  O   UNL     1      57.670  77.354  82.573  0.00  0.00    +0.000 OA
ATOM      2  O   UNL     1      58.019  69.850  83.122  0.00  0.00    +0.000 OA
ATOM      3  N   UNL     1      58.543  76.415  84.559  0.00  0.00    +0.000 N 
ATOM      4  N   UNL     1      58.362  75.267  81.792  0.00  0.00    +0.000 N 
ATOM      5  N   UNL     1      58.178  70.502  85.346  0.00  0.00    +0.000 N 
ATOM      6  C   UNL     1      58.550  77.630  83.719  0.00  0.00    +0.000 C 
ATOM      7  C   UNL     1      59.964  77.928  83.057  0.00  0.00    +0.000 C 
ATOM      8  C   UNL     1      58.485  76.641  81.676  0.00  0.00    +0.000 C 
ATOM      9  C   UNL     1      59.788  77.178  81.817  0.00  0.00    +0.000 C 
ATOM     10  C   UNL     1      58.365  75.095  84.229  0.00  0.00    +0.000 A 
ATOM     11  C   UNL     1      58.264  74.553  82.947  0.00  0.00    +0.000 A 
ATOM     12  C   UNL     1      58.362  74.133  85.243  0.00  0.00    +0.000 A 
ATOM     13  C   UNL     1      58.182  73.158  82.887  0.00  0.00    +0.000 A 
ATOM     14  C   UNL     1      57.903  78.854  84.447  0.00  0.00    +0.000 C 
ATOM     15  C   UNL     1      58.758  76.284  85.954  0.00  0.00    +0.000 A 
ATOM     16  C   UNL     1      58.397  74.221  80.851  0.00  0.00    +0.000 A 
ATOM     17  C   UNL     1      58.620  74.912  86.386  0.00  0.00    +0.000 A 
ATOM     18  C   UNL     1      58.259  72.736  85.209  0.00  0.00    +0.000 A 
ATOM     19  C   UNL     1      58.159  72.177  83.900  0.00  0.00    +0.000 A 
ATOM     20  C   UNL     1      58.262  72.933  81.495  0.00  0.00    +0.000 A 
ATOM     21  C   UNL     1      58.270  71.584  86.147  0.00  0.00    +0.000 C 
ATOM     22  C   UNL     1      59.078  77.282  86.890  0.00  0.00    +0.000 A 
ATOM     23  C   UNL     1      58.105  70.733  83.964  0.00  0.00    +0.000 C 
ATOM     24  C   UNL     1      58.525  74.320  79.458  0.00  0.00    +0.000 A 
ATOM     25  C   UNL     1      58.796  74.615  87.752  0.00  0.00    +0.000 A 
ATOM     26  C   UNL     1      58.275  71.785  80.678  0.00  0.00    +0.000 A 
ATOM     27  C   UNL     1      59.241  76.939  88.232  0.00  0.00    +0.000 A 
ATOM     28  C   UNL     1      59.097  75.630  88.661  0.00  0.00    +0.000 A 
ATOM     29  C   UNL     1      58.525  73.150  78.699  0.00  0.00    +0.000 A 
ATOM     30  C   UNL     1      58.401  71.903  79.295  0.00  0.00    +0.000 A 
ATOM     31  H   UNL     1      58.162  69.559  85.706  0.00  0.00    +0.000 HD
ENDROOT
BRANCH   7  32
ATOM     32  O   UNL     1      61.088  77.391  83.769  0.00  0.00    +0.000 OA
ATOM     33  H   UNL     1      61.023  77.705  84.698  0.00  0.00    +0.000 HD
ENDBRANCH   7  32
BRANCH   7  35
ATOM     34  O   UNL     1      59.563  79.974  81.868  0.00  0.00    +0.000 OA
ATOM     35  C   UNL     1      60.163  79.418  82.790  0.00  0.00    +0.000 C 
BRANCH  35  36
ATOM     36  O   UNL     1      61.003  79.989  83.706  0.00  0.00    +0.000 OA
ATOM     37  C   UNL     1      60.758  81.319  84.074  0.00  0.00    +0.000 C 
ENDBRANCH  35  36
ENDBRANCH   7  35
TORSDOF 3
ENDMDL
MODEL 7
REMARK VINA RESULT:      -6.7      5.281      8.838
REMARK  Name = 490561_Nocardiopsis.pdbqt.pdb
REMARK  3 active torsions:
REMARK  status: ('A' for Active; 'I' for Inactive)
REMARK    1  A    between atoms: C_7  and  O_32
REMARK    2  A    between atoms: C_7  and  C_35
REMARK    3  A    between atoms: C_35  and  O_36
REMARK                            x       y       z     vdW  Elec       q    Type
REMARK                         _______ _______ _______ _____ _____    ______ ____
ROOT
ATOM      1  O   UNL     1      56.054  60.647  81.568  0.00  0.00    +0.000 OA
ATOM      2  O   UNL     1      56.180  63.713  88.447  0.00  0.00    +0.000 OA
ATOM      3  N   UNL     1      55.412  59.305  83.406  0.00  0.00    +0.000 N 
ATOM      4  N   UNL     1      55.416  62.291  83.096  0.00  0.00    +0.000 N 
ATOM      5  N   UNL     1      56.179  61.443  88.934  0.00  0.00    +0.000 N 
ATOM      6  C   UNL     1      55.263  59.465  81.945  0.00  0.00    +0.000 C 
ATOM      7  C   UNL     1      53.782  59.835  81.501  0.00  0.00    +0.000 C 
ATOM      8  C   UNL     1      55.206  61.734  81.847  0.00  0.00    +0.000 C 
ATOM      9  C   UNL     1      53.892  61.289  81.561  0.00  0.00    +0.000 C 
ATOM     10  C   UNL     1      55.635  60.232  84.393  0.00  0.00    +0.000 A 
ATOM     11  C   UNL     1      55.655  61.620  84.257  0.00  0.00    +0.000 A 
ATOM     12  C   UNL     1      55.781  59.798  85.714  0.00  0.00    +0.000 A 
ATOM     13  C   UNL     1      55.810  62.340  85.447  0.00  0.00    +0.000 A 
ATOM     14  C   UNL     1      55.901  58.276  81.153  0.00  0.00    +0.000 C 
ATOM     15  C   UNL     1      55.327  58.131  84.196  0.00  0.00    +0.000 A 
ATOM     16  C   UNL     1      55.359  63.612  83.576  0.00  0.00    +0.000 A 
ATOM     17  C   UNL     1      55.580  58.411  85.591  0.00  0.00    +0.000 A 
ATOM     18  C   UNL     1      55.960  60.497  86.915  0.00  0.00    +0.000 A 
ATOM     19  C   UNL     1      55.977  61.917  86.782  0.00  0.00    +0.000 A 
ATOM     20  C   UNL     1      55.622  63.666  84.997  0.00  0.00    +0.000 A 
ATOM     21  C   UNL     1      56.096  60.220  88.368  0.00  0.00    +0.000 C 
ATOM     22  C   UNL     1      55.034  56.819  83.788  0.00  0.00    +0.000 A 
ATOM     23  C   UNL     1      56.118  62.550  88.075  0.00  0.00    +0.000 C 
ATOM     24  C   UNL     1      55.104  64.783  82.846  0.00  0.00    +0.000 A 
ATOM     25  C   UNL     1      55.541  57.343  86.509  0.00  0.00    +0.000 A 
ATOM     26  C   UNL     1      55.603  64.929  85.622  0.00  0.00    +0.000 A 
ATOM     27  C   UNL     1      55.009  55.795  84.734  0.00  0.00    +0.000 A 
ATOM     28  C   UNL     1      55.264  56.048  86.073  0.00  0.00    +0.000 A 
ATOM     29  C   UNL     1      55.104  66.006  83.517  0.00  0.00    +0.000 A 
ATOM     30  C   UNL     1      55.350  66.081  84.880  0.00  0.00    +0.000 A 
ATOM     31  H   UNL     1      56.280  61.575  89.929  0.00  0.00    +0.000 HD
ENDROOT
BRANCH   7  32
ATOM     32  O   UNL     1      52.756  59.408  82.410  0.00  0.00    +0.000 OA
ATOM     33  H   UNL     1      52.268  58.675  81.975  0.00  0.00    +0.000 HD
ENDBRANCH   7  32
BRANCH   7  35
ATOM     34  O   UNL     1      54.159  59.733  79.133  0.00  0.00    +0.000 OA
ATOM     35  C   UNL     1      53.476  59.351  80.085  0.00  0.00    +0.000 C 
BRANCH  35  36
ATOM     36  O   UNL     1      52.443  58.456  80.068  0.00  0.00    +0.000 OA
ATOM     37  C   UNL     1      51.364  58.723  79.214  0.00  0.00    +0.000 C 
ENDBRANCH  35  36
ENDBRANCH   7  35
TORSDOF 3
ENDMDL
MODEL 8
REMARK VINA RESULT:      -6.7     23.814     27.579
REMARK  Name = 490561_Nocardiopsis.pdbqt.pdb
REMARK  3 active torsions:
REMARK  status: ('A' for Active; 'I' for Inactive)
REMARK    1  A    between atoms: C_7  and  O_32
REMARK    2  A    between atoms: C_7  and  C_35
REMARK    3  A    between atoms: C_35  and  O_36
REMARK                            x       y       z     vdW  Elec       q    Type
REMARK                         _______ _______ _______ _____ _____    ______ ____
ROOT
ATOM      1  O   UNL     1      67.540  69.479  65.632  0.00  0.00    +0.000 OA
ATOM      2  O   UNL     1      61.755  72.507  69.387  0.00  0.00    +0.000 OA
ATOM      3  N   UNL     1      67.971  71.300  67.077  0.00  0.00    +0.000 N 
ATOM      4  N   UNL     1      65.721  69.314  67.083  0.00  0.00    +0.000 N 
ATOM      5  N   UNL     1      63.346  74.195  69.515  0.00  0.00    +0.000 N 
ATOM      6  C   UNL     1      68.593  70.126  66.430  0.00  0.00    +0.000 C 
ATOM      7  C   UNL     1      69.039  69.003  67.462  0.00  0.00    +0.000 C 
ATOM      8  C   UNL     1      66.839  68.689  66.560  0.00  0.00    +0.000 C 
ATOM      9  C   UNL     1      67.803  68.225  67.488  0.00  0.00    +0.000 C 
ATOM     10  C   UNL     1      66.677  71.528  67.472  0.00  0.00    +0.000 A 
ATOM     11  C   UNL     1      65.621  70.617  67.465  0.00  0.00    +0.000 A 
ATOM     12  C   UNL     1      66.343  72.765  68.031  0.00  0.00    +0.000 A 
ATOM     13  C   UNL     1      64.420  71.082  68.013  0.00  0.00    +0.000 A 
ATOM     14  C   UNL     1      69.696  70.536  65.399  0.00  0.00    +0.000 C 
ATOM     15  C   UNL     1      68.568  72.514  67.502  0.00  0.00    +0.000 A 
ATOM     16  C   UNL     1      64.453  68.841  67.467  0.00  0.00    +0.000 A 
ATOM     17  C   UNL     1      67.587  73.422  68.053  0.00  0.00    +0.000 A 
ATOM     18  C   UNL     1      65.146  73.260  68.563  0.00  0.00    +0.000 A 
ATOM     19  C   UNL     1      64.063  72.331  68.561  0.00  0.00    +0.000 A 
ATOM     20  C   UNL     1      63.638  69.905  68.008  0.00  0.00    +0.000 A 
ATOM     21  C   UNL     1      64.627  74.492  69.211  0.00  0.00    +0.000 C 
ATOM     22  C   UNL     1      69.920  72.891  67.454  0.00  0.00    +0.000 A 
ATOM     23  C   UNL     1      62.888  72.914  69.172  0.00  0.00    +0.000 C 
ATOM     24  C   UNL     1      63.952  67.534  67.360  0.00  0.00    +0.000 A 
ATOM     25  C   UNL     1      68.021  74.681  68.514  0.00  0.00    +0.000 A 
ATOM     26  C   UNL     1      62.333  69.585  68.433  0.00  0.00    +0.000 A 
ATOM     27  C   UNL     1      70.300  74.148  67.922  0.00  0.00    +0.000 A 
ATOM     28  C   UNL     1      69.368  75.034  68.438  0.00  0.00    +0.000 A 
ATOM     29  C   UNL     1      62.651  67.276  67.790  0.00  0.00    +0.000 A 
ATOM     30  C   UNL     1      61.853  68.281  68.317  0.00  0.00    +0.000 A 
ATOM     31  H   UNL     1      62.729  74.851  69.970  0.00  0.00    +0.000 HD
ENDROOT
BRANCH   7  32
ATOM     32  O   UNL     1      69.316  69.478  68.788  0.00  0.00    +0.000 OA
ATOM     33  H   UNL     1      69.929  70.241  68.702  0.00  0.00    +0.000 HD
ENDBRANCH   7  32
BRANCH   7  35
ATOM     34  O   UNL     1      71.369  68.464  67.252  0.00  0.00    +0.000 OA
ATOM     35  C   UNL     1      70.212  68.180  66.934  0.00  0.00    +0.000 C 
BRANCH  35  36
ATOM     36  O   UNL     1      69.788  67.132  66.164  0.00  0.00    +0.000 OA
ATOM     37  C   UNL     1      70.421  66.934  64.929  0.00  0.00    +0.000 C 
ENDBRANCH  35  36
ENDBRANCH   7  35
TORSDOF 3
ENDMDL
MODEL 9
REMARK VINA RESULT:      -6.7     17.867     22.555
REMARK  Name = 490561_Nocardiopsis.pdbqt.pdb
REMARK  3 active torsions:
REMARK  status: ('A' for Active; 'I' for Inactive)
REMARK    1  A    between atoms: C_7  and  O_32
REMARK    2  A    between atoms: C_7  and  C_35
REMARK    3  A    between atoms: C_35  and  O_36
REMARK                            x       y       z     vdW  Elec       q    Type
REMARK                         _______ _______ _______ _____ _____    ______ ____
ROOT
ATOM      1  O   UNL     1      56.102  74.136  81.600  0.00  0.00    +0.000 OA
ATOM      2  O   UNL     1      61.164  79.191  83.954  0.00  0.00    +0.000 OA
ATOM      3  N   UNL     1      58.019  74.507  80.267  0.00  0.00    +0.000 N 
ATOM      4  N   UNL     1      57.580  74.970  83.200  0.00  0.00    +0.000 N 
ATOM      5  N   UNL     1      61.692  78.998  81.701  0.00  0.00    +0.000 N 
ATOM      6  C   UNL     1      56.967  73.518  80.583  0.00  0.00    +0.000 C 
ATOM      7  C   UNL     1      57.526  72.212  81.294  0.00  0.00    +0.000 C 
ATOM      8  C   UNL     1      56.778  73.911  82.812  0.00  0.00    +0.000 C 
ATOM      9  C   UNL     1      57.408  72.649  82.682  0.00  0.00    +0.000 C 
ATOM     10  C   UNL     1      58.586  75.492  81.035  0.00  0.00    +0.000 A 
ATOM     11  C   UNL     1      58.377  75.726  82.395  0.00  0.00    +0.000 A 
ATOM     12  C   UNL     1      59.549  76.330  80.467  0.00  0.00    +0.000 A 
ATOM     13  C   UNL     1      59.156  76.742  82.959  0.00  0.00    +0.000 A 
ATOM     14  C   UNL     1      56.031  73.243  79.360  0.00  0.00    +0.000 C 
ATOM     15  C   UNL     1      58.763  74.678  79.073  0.00  0.00    +0.000 A 
ATOM     16  C   UNL     1      57.902  75.515  84.457  0.00  0.00    +0.000 A 
ATOM     17  C   UNL     1      59.670  75.799  79.170  0.00  0.00    +0.000 A 
ATOM     18  C   UNL     1      60.324  77.367  81.004  0.00  0.00    +0.000 A 
ATOM     19  C   UNL     1      60.116  77.608  82.395  0.00  0.00    +0.000 A 
ATOM     20  C   UNL     1      58.837  76.611  84.329  0.00  0.00    +0.000 A 
ATOM     21  C   UNL     1      61.386  78.314  80.578  0.00  0.00    +0.000 C 
ATOM     22  C   UNL     1      58.716  73.917  77.893  0.00  0.00    +0.000 A 
ATOM     23  C   UNL     1      60.991  78.659  82.867  0.00  0.00    +0.000 C 
ATOM     24  C   UNL     1      57.418  75.125  85.714  0.00  0.00    +0.000 A 
ATOM     25  C   UNL     1      60.478  76.109  78.057  0.00  0.00    +0.000 A 
ATOM     26  C   UNL     1      59.252  77.263  85.507  0.00  0.00    +0.000 A 
ATOM     27  C   UNL     1      59.535  74.264  76.818  0.00  0.00    +0.000 A 
ATOM     28  C   UNL     1      60.398  75.345  76.893  0.00  0.00    +0.000 A 
ATOM     29  C   UNL     1      57.858  75.812  86.846  0.00  0.00    +0.000 A 
ATOM     30  C   UNL     1      58.758  76.863  86.747  0.00  0.00    +0.000 A 
ATOM     31  H   UNL     1      62.394  79.723  81.721  0.00  0.00    +0.000 HD
ENDROOT
BRANCH   7  32
ATOM     32  O   UNL     1      58.902  71.915  81.015  0.00  0.00    +0.000 OA
ATOM     33  H   UNL     1      59.192  72.520  80.297  0.00  0.00    +0.000 HD
ENDBRANCH   7  32
BRANCH   7  35
ATOM     34  O   UNL     1      56.888  70.261  80.049  0.00  0.00    +0.000 OA
ATOM     35  C   UNL     1      56.650  70.993  81.012  0.00  0.00    +0.000 C 
BRANCH  35  36
ATOM     36  O   UNL     1      55.679  70.837  81.962  0.00  0.00    +0.000 OA
ATOM     37  C   UNL     1      54.349  70.756  81.527  0.00  0.00    +0.000 C 
ENDBRANCH  35  36
ENDBRANCH   7  35
TORSDOF 3
ENDMDL
