MODEL 1
REMARK VINA RESULT:      -6.4      0.000      0.000
REMARK  Name = 50922675_Encorafenib.pdbqt.pdb
REMARK  8 active torsions:
REMARK  status: ('A' for Active; 'I' for Inactive)
REMARK    1  A    between atoms: N_1  and  C_37
REMARK    2  A    between atoms: C_3  and  C_23
REMARK    3  A    between atoms: C_4  and  C_8
REMARK    4  A    between atoms: C_11  and  N_14
REMARK    5  A    between atoms: N_14  and  S_16
REMARK    6  A    between atoms: N_20  and  C_28
REMARK    7  A    between atoms: C_28  and  C_29
REMARK    8  A    between atoms: C_33  and  O_35
REMARK                            x       y       z     vdW  Elec       q    Type
REMARK                         _______ _______ _______ _____ _____    ______ ____
ROOT
ATOM      1  N   UNL     1      61.813  38.951  50.927  0.00  0.00    +0.000 N 
ATOM      2  N   UNL     1      62.521  40.101  51.210  0.00  0.00    +0.000 NA
ATOM      3  C   UNL     1      61.890  39.128  53.176  0.00  0.00    +0.000 A 
ATOM      4  C   UNL     1      62.592  40.193  52.547  0.00  0.00    +0.000 A 
ATOM      5  C   UNL     1      61.418  38.376  52.128  0.00  0.00    +0.000 A 
ENDROOT
BRANCH   4   8
ATOM      6 CL   UNL     1      62.406  45.083  54.152  0.00  0.00    +0.000 Cl
ATOM      7  F   UNL     1      65.356  40.136  53.278  0.00  0.00    +0.000 F 
ATOM      8  C   UNL     1      63.292  41.326  53.140  0.00  0.00    +0.000 A 
ATOM      9  C   UNL     1      64.652  41.264  53.464  0.00  0.00    +0.000 A 
ATOM     10  C   UNL     1      62.608  42.527  53.338  0.00  0.00    +0.000 A 
ATOM     11  C   UNL     1      65.315  42.373  54.001  0.00  0.00    +0.000 A 
ATOM     12  C   UNL     1      63.268  43.630  53.868  0.00  0.00    +0.000 A 
ATOM     13  C   UNL     1      64.620  43.566  54.185  0.00  0.00    +0.000 A 
BRANCH  11  14
ATOM     14  N   UNL     1      66.732  42.316  54.230  0.00  0.00    +0.000 N 
ATOM     15  H   UNL     1      67.030  42.862  55.044  0.00  0.00    +0.000 HD
BRANCH  14  16
ATOM     16  S   UNL     1      67.749  42.700  52.955  0.00  0.00    +0.000 S 
ATOM     17  O   UNL     1      67.034  42.750  51.708  0.00  0.00    +0.000 OA
ATOM     18  O   UNL     1      68.871  43.535  53.322  0.00  0.00    +0.000 OA
ATOM     19  C   UNL     1      68.664  41.223  52.631  0.00  0.00    +0.000 C 
ENDBRANCH  14  16
ENDBRANCH  11  14
ENDBRANCH   4   8
BRANCH   3  23
ATOM     20  N   UNL     1      63.634  37.416  57.253  0.00  0.00    +0.000 N 
ATOM     21  N   UNL     1      62.733  38.273  55.232  0.00  0.00    +0.000 NA
ATOM     22  N   UNL     1      61.401  38.051  57.168  0.00  0.00    +0.000 NA
ATOM     23  C   UNL     1      61.672  38.768  54.568  0.00  0.00    +0.000 A 
ATOM     24  C   UNL     1      62.563  37.929  56.520  0.00  0.00    +0.000 A 
ATOM     25  C   UNL     1      60.434  38.927  55.148  0.00  0.00    +0.000 A 
ATOM     26  C   UNL     1      60.367  38.547  56.465  0.00  0.00    +0.000 A 
ATOM     27  H   UNL     1      63.270  37.001  58.103  0.00  0.00    +0.000 HD
BRANCH  20  28
ATOM     28  C   UNL     1      64.659  36.695  56.508  0.00  0.00    +0.000 C 
BRANCH  28  29
ATOM     29  C   UNL     1      65.574  35.992  55.684  0.00  0.00    +0.000 C 
ATOM     30  C   UNL     1      66.803  36.717  55.226  0.00  0.00    +0.000 C 
ATOM     31  O   UNL     1      63.482  34.119  56.305  0.00  0.00    +0.000 OA
ATOM     32  N   UNL     1      65.542  34.660  55.447  0.00  0.00    +0.000 N 
ATOM     33  C   UNL     1      64.544  33.785  55.790  0.00  0.00    +0.000 C 
ATOM     34  H   UNL     1      66.372  34.283  54.998  0.00  0.00    +0.000 HD
BRANCH  33  35
ATOM     35  O   UNL     1      64.915  32.503  55.457  0.00  0.00    +0.000 OA
ATOM     36  C   UNL     1      63.910  31.529  55.335  0.00  0.00    +0.000 C 
ENDBRANCH  33  35
ENDBRANCH  28  29
ENDBRANCH  20  28
ENDBRANCH   3  23
BRANCH   1  37
ATOM     37  C   UNL     1      61.502  38.408  49.655  0.00  0.00    +0.000 C 
ATOM     38  C   UNL     1      61.919  39.090  48.364  0.00  0.00    +0.000 C 
ATOM     39  C   UNL     1      60.748  37.103  49.497  0.00  0.00    +0.000 C 
ENDBRANCH   1  37
TORSDOF 8
ENDMDL
MODEL 2
REMARK VINA RESULT:      -5.9      2.803      3.574
REMARK  Name = 50922675_Encorafenib.pdbqt.pdb
REMARK  8 active torsions:
REMARK  status: ('A' for Active; 'I' for Inactive)
REMARK    1  A    between atoms: N_1  and  C_37
REMARK    2  A    between atoms: C_3  and  C_23
REMARK    3  A    between atoms: C_4  and  C_8
REMARK    4  A    between atoms: C_11  and  N_14
REMARK    5  A    between atoms: N_14  and  S_16
REMARK    6  A    between atoms: N_20  and  C_28
REMARK    7  A    between atoms: C_28  and  C_29
REMARK    8  A    between atoms: C_33  and  O_35
REMARK                            x       y       z     vdW  Elec       q    Type
REMARK                         _______ _______ _______ _____ _____    ______ ____
ROOT
ATOM      1  N   UNL     1      63.084  37.937  50.881  0.00  0.00    +0.000 N 
ATOM      2  N   UNL     1      63.525  39.219  51.139  0.00  0.00    +0.000 NA
ATOM      3  C   UNL     1      62.575  38.377  53.036  0.00  0.00    +0.000 A 
ATOM      4  C   UNL     1      63.248  39.472  52.428  0.00  0.00    +0.000 A 
ATOM      5  C   UNL     1      62.492  37.439  52.035  0.00  0.00    +0.000 A 
ENDROOT
BRANCH   4   8
ATOM      6 CL   UNL     1      66.908  42.532  54.369  0.00  0.00    +0.000 Cl
ATOM      7  F   UNL     1      61.364  41.581  52.849  0.00  0.00    +0.000 F 
ATOM      8  C   UNL     1      63.606  40.771  52.984  0.00  0.00    +0.000 A 
ATOM      9  C   UNL     1      62.649  41.771  53.194  0.00  0.00    +0.000 A 
ATOM     10  C   UNL     1      64.925  41.011  53.373  0.00  0.00    +0.000 A 
ATOM     11  C   UNL     1      63.004  42.999  53.761  0.00  0.00    +0.000 A 
ATOM     12  C   UNL     1      65.277  42.231  53.940  0.00  0.00    +0.000 A 
ATOM     13  C   UNL     1      64.323  43.219  54.152  0.00  0.00    +0.000 A 
BRANCH  11  14
ATOM     14  N   UNL     1      61.988  43.969  54.060  0.00  0.00    +0.000 N 
ATOM     15  H   UNL     1      61.230  43.593  54.638  0.00  0.00    +0.000 HD
BRANCH  14  16
ATOM     16  S   UNL     1      61.293  44.797  52.780  0.00  0.00    +0.000 S 
ATOM     17  O   UNL     1      62.248  45.049  51.735  0.00  0.00    +0.000 OA
ATOM     18  O   UNL     1      59.885  44.525  52.591  0.00  0.00    +0.000 OA
ATOM     19  C   UNL     1      61.127  46.465  53.342  0.00  0.00    +0.000 C 
ENDBRANCH  14  16
ENDBRANCH  11  14
ENDBRANCH   4   8
BRANCH   3  23
ATOM     20  N   UNL     1      62.836  35.926  57.101  0.00  0.00    +0.000 N 
ATOM     21  N   UNL     1      62.679  37.166  55.083  0.00  0.00    +0.000 NA
ATOM     22  N   UNL     1      61.235  37.597  56.900  0.00  0.00    +0.000 NA
ATOM     23  C   UNL     1      62.074  38.142  54.381  0.00  0.00    +0.000 A 
ATOM     24  C   UNL     1      62.238  36.923  56.330  0.00  0.00    +0.000 A 
ATOM     25  C   UNL     1      61.031  38.888  54.881  0.00  0.00    +0.000 A 
ATOM     26  C   UNL     1      60.658  38.561  56.160  0.00  0.00    +0.000 A 
ATOM     27  H   UNL     1      62.233  35.730  57.892  0.00  0.00    +0.000 HD
BRANCH  20  28
ATOM     28  C   UNL     1      63.432  34.806  56.383  0.00  0.00    +0.000 C 
BRANCH  28  29
ATOM     29  C   UNL     1      63.895  33.662  55.684  0.00  0.00    +0.000 C 
ATOM     30  C   UNL     1      62.879  32.648  55.251  0.00  0.00    +0.000 C 
ATOM     31  O   UNL     1      66.228  35.266  56.188  0.00  0.00    +0.000 OA
ATOM     32  N   UNL     1      65.144  33.507  55.187  0.00  0.00    +0.000 N 
ATOM     33  C   UNL     1      66.229  34.313  55.417  0.00  0.00    +0.000 C 
ATOM     34  H   UNL     1      65.259  32.723  54.551  0.00  0.00    +0.000 HD
BRANCH  33  35
ATOM     35  O   UNL     1      67.298  33.877  54.669  0.00  0.00    +0.000 OA
ATOM     36  C   UNL     1      67.471  32.492  54.500  0.00  0.00    +0.000 C 
ENDBRANCH  33  35
ENDBRANCH  28  29
ENDBRANCH  20  28
ENDBRANCH   3  23
BRANCH   1  37
ATOM     37  C   UNL     1      63.180  37.208  49.670  0.00  0.00    +0.000 C 
ATOM     38  C   UNL     1      62.112  36.215  49.240  0.00  0.00    +0.000 C 
ATOM     39  C   UNL     1      64.341  37.381  48.713  0.00  0.00    +0.000 C 
ENDBRANCH   1  37
TORSDOF 8
ENDMDL
MODEL 3
REMARK VINA RESULT:      -5.9      3.008      3.638
REMARK  Name = 50922675_Encorafenib.pdbqt.pdb
REMARK  8 active torsions:
REMARK  status: ('A' for Active; 'I' for Inactive)
REMARK    1  A    between atoms: N_1  and  C_37
REMARK    2  A    between atoms: C_3  and  C_23
REMARK    3  A    between atoms: C_4  and  C_8
REMARK    4  A    between atoms: C_11  and  N_14
REMARK    5  A    between atoms: N_14  and  S_16
REMARK    6  A    between atoms: N_20  and  C_28
REMARK    7  A    between atoms: C_28  and  C_29
REMARK    8  A    between atoms: C_33  and  O_35
REMARK                            x       y       z     vdW  Elec       q    Type
REMARK                         _______ _______ _______ _____ _____    ______ ____
ROOT
ATOM      1  N   UNL     1      62.124  38.529  50.815  0.00  0.00    +0.000 N 
ATOM      2  N   UNL     1      63.471  38.703  51.060  0.00  0.00    +0.000 NA
ATOM      3  C   UNL     1      62.405  38.359  53.049  0.00  0.00    +0.000 A 
ATOM      4  C   UNL     1      63.644  38.574  52.385  0.00  0.00    +0.000 A 
ATOM      5  C   UNL     1      61.481  38.338  52.031  0.00  0.00    +0.000 A 
ENDROOT
BRANCH   4   8
ATOM      6 CL   UNL     1      67.400  41.709  53.992  0.00  0.00    +0.000 Cl
ATOM      7  F   UNL     1      65.349  36.353  52.967  0.00  0.00    +0.000 F 
ATOM      8  C   UNL     1      64.985  38.713  52.938  0.00  0.00    +0.000 A 
ATOM      9  C   UNL     1      65.797  37.600  53.190  0.00  0.00    +0.000 A 
ATOM     10  C   UNL     1      65.503  39.988  53.171  0.00  0.00    +0.000 A 
ATOM     11  C   UNL     1      67.095  37.754  53.689  0.00  0.00    +0.000 A 
ATOM     12  C   UNL     1      66.794  40.141  53.664  0.00  0.00    +0.000 A 
ATOM     13  C   UNL     1      67.598  39.034  53.908  0.00  0.00    +0.000 A 
BRANCH  11  14
ATOM     14  N   UNL     1      67.942  36.605  53.842  0.00  0.00    +0.000 N 
ATOM     15  H   UNL     1      67.490  35.835  54.344  0.00  0.00    +0.000 HD
BRANCH  14  16
ATOM     16  S   UNL     1      69.460  36.834  54.515  0.00  0.00    +0.000 S 
ATOM     17  O   UNL     1      70.373  37.416  53.568  0.00  0.00    +0.000 OA
ATOM     18  O   UNL     1      69.446  37.081  55.940  0.00  0.00    +0.000 OA
ATOM     19  C   UNL     1      70.189  35.224  54.573  0.00  0.00    +0.000 C 
ENDBRANCH  14  16
ENDBRANCH  11  14
ENDBRANCH   4   8
BRANCH   3  23
ATOM     20  N   UNL     1      63.007  35.914  57.081  0.00  0.00    +0.000 N 
ATOM     21  N   UNL     1      62.682  37.153  55.082  0.00  0.00    +0.000 NA
ATOM     22  N   UNL     1      61.473  37.658  57.046  0.00  0.00    +0.000 NA
ATOM     23  C   UNL     1      62.048  38.153  54.443  0.00  0.00    +0.000 A 
ATOM     24  C   UNL     1      62.373  36.936  56.372  0.00  0.00    +0.000 A 
ATOM     25  C   UNL     1      61.103  38.949  55.050  0.00  0.00    +0.000 A 
ATOM     26  C   UNL     1      60.861  38.646  56.366  0.00  0.00    +0.000 A 
ATOM     27  H   UNL     1      62.488  35.750  57.936  0.00  0.00    +0.000 HD
BRANCH  20  28
ATOM     28  C   UNL     1      63.466  34.764  56.311  0.00  0.00    +0.000 C 
BRANCH  28  29
ATOM     29  C   UNL     1      63.814  33.579  55.613  0.00  0.00    +0.000 C 
ATOM     30  C   UNL     1      62.711  32.629  55.257  0.00  0.00    +0.000 C 
ATOM     31  O   UNL     1      66.271  35.032  55.960  0.00  0.00    +0.000 OA
ATOM     32  N   UNL     1      65.022  33.332  55.055  0.00  0.00    +0.000 N 
ATOM     33  C   UNL     1      66.168  34.067  55.211  0.00  0.00    +0.000 C 
ATOM     34  H   UNL     1      65.050  32.531  54.431  0.00  0.00    +0.000 HD
BRANCH  33  35
ATOM     35  O   UNL     1      67.164  33.547  54.417  0.00  0.00    +0.000 OA
ATOM     36  C   UNL     1      67.758  32.333  54.804  0.00  0.00    +0.000 C 
ENDBRANCH  33  35
ENDBRANCH  28  29
ENDBRANCH  20  28
ENDBRANCH   3  23
BRANCH   1  37
ATOM     37  C   UNL     1      61.455  38.544  49.566  0.00  0.00    +0.000 C 
ATOM     38  C   UNL     1      61.867  39.479  48.442  0.00  0.00    +0.000 C 
ATOM     39  C   UNL     1      60.296  37.617  49.260  0.00  0.00    +0.000 C 
ENDBRANCH   1  37
TORSDOF 8
ENDMDL
MODEL 4
REMARK VINA RESULT:      -5.7     13.676     17.245
REMARK  Name = 50922675_Encorafenib.pdbqt.pdb
REMARK  8 active torsions:
REMARK  status: ('A' for Active; 'I' for Inactive)
REMARK    1  A    between atoms: N_1  and  C_37
REMARK    2  A    between atoms: C_3  and  C_23
REMARK    3  A    between atoms: C_4  and  C_8
REMARK    4  A    between atoms: C_11  and  N_14
REMARK    5  A    between atoms: N_14  and  S_16
REMARK    6  A    between atoms: N_20  and  C_28
REMARK    7  A    between atoms: C_28  and  C_29
REMARK    8  A    between atoms: C_33  and  O_35
REMARK                            x       y       z     vdW  Elec       q    Type
REMARK                         _______ _______ _______ _____ _____    ______ ____
ROOT
ATOM      1  N   UNL     1      55.054  34.027  69.084  0.00  0.00    +0.000 N 
ATOM      2  N   UNL     1      56.234  34.400  68.472  0.00  0.00    +0.000 NA
ATOM      3  C   UNL     1      54.554  35.740  67.701  0.00  0.00    +0.000 A 
ATOM      4  C   UNL     1      55.943  35.436  67.670  0.00  0.00    +0.000 A 
ATOM      5  C   UNL     1      54.036  34.835  68.596  0.00  0.00    +0.000 A 
ENDROOT
BRANCH   4   8
ATOM      6 CL   UNL     1      57.765  36.715  63.026  0.00  0.00    +0.000 Cl
ATOM      7  F   UNL     1      58.335  36.502  68.820  0.00  0.00    +0.000 F 
ATOM      8  C   UNL     1      57.012  36.042  66.886  0.00  0.00    +0.000 A 
ATOM      9  C   UNL     1      58.178  36.534  67.487  0.00  0.00    +0.000 A 
ATOM     10  C   UNL     1      56.904  36.084  65.495  0.00  0.00    +0.000 A 
ATOM     11  C   UNL     1      59.209  37.082  66.715  0.00  0.00    +0.000 A 
ATOM     12  C   UNL     1      57.930  36.625  64.728  0.00  0.00    +0.000 A 
ATOM     13  C   UNL     1      59.088  37.108  65.328  0.00  0.00    +0.000 A 
BRANCH  11  14
ATOM     14  N   UNL     1      60.435  37.486  67.345  0.00  0.00    +0.000 N 
ATOM     15  H   UNL     1      60.581  37.048  68.259  0.00  0.00    +0.000 HD
BRANCH  14  16
ATOM     16  S   UNL     1      60.729  39.127  67.509  0.00  0.00    +0.000 S 
ATOM     17  O   UNL     1      61.619  39.607  66.486  0.00  0.00    +0.000 OA
ATOM     18  O   UNL     1      59.636  39.870  68.096  0.00  0.00    +0.000 OA
ATOM     19  C   UNL     1      61.851  39.264  68.868  0.00  0.00    +0.000 C 
ENDBRANCH  14  16
ENDBRANCH  11  14
ENDBRANCH   4   8
BRANCH   3  23
ATOM     20  N   UNL     1      52.969  40.218  67.544  0.00  0.00    +0.000 N 
ATOM     21  N   UNL     1      53.741  37.974  67.595  0.00  0.00    +0.000 NA
ATOM     22  N   UNL     1      52.270  38.723  65.908  0.00  0.00    +0.000 NA
ATOM     23  C   UNL     1      53.743  36.749  67.039  0.00  0.00    +0.000 A 
ATOM     24  C   UNL     1      53.000  38.930  67.008  0.00  0.00    +0.000 A 
ATOM     25  C   UNL     1      53.021  36.439  65.909  0.00  0.00    +0.000 A 
ATOM     26  C   UNL     1      52.299  37.483  65.388  0.00  0.00    +0.000 A 
ATOM     27  H   UNL     1      52.194  40.720  67.124  0.00  0.00    +0.000 HD
BRANCH  20  28
ATOM     28  C   UNL     1      53.184  40.341  68.980  0.00  0.00    +0.000 C 
BRANCH  28  29
ATOM     29  C   UNL     1      53.467  40.564  70.352  0.00  0.00    +0.000 C 
ATOM     30  C   UNL     1      52.309  40.777  71.280  0.00  0.00    +0.000 C 
ATOM     31  O   UNL     1      56.015  40.152  69.084  0.00  0.00    +0.000 OA
ATOM     32  N   UNL     1      54.676  40.391  70.934  0.00  0.00    +0.000 N 
ATOM     33  C   UNL     1      55.870  40.158  70.302  0.00  0.00    +0.000 C 
ATOM     34  H   UNL     1      54.670  40.404  71.950  0.00  0.00    +0.000 HD
BRANCH  33  35
ATOM     35  O   UNL     1      56.858  39.952  71.237  0.00  0.00    +0.000 OA
ATOM     36  C   UNL     1      57.949  39.140  70.884  0.00  0.00    +0.000 C 
ENDBRANCH  33  35
ENDBRANCH  28  29
ENDBRANCH  20  28
ENDBRANCH   3  23
BRANCH   1  37
ATOM     37  C   UNL     1      54.853  33.001  70.041  0.00  0.00    +0.000 C 
ATOM     38  C   UNL     1      55.384  33.108  71.460  0.00  0.00    +0.000 C 
ATOM     39  C   UNL     1      54.081  31.738  69.720  0.00  0.00    +0.000 C 
ENDBRANCH   1  37
TORSDOF 8
ENDMDL
MODEL 5
REMARK VINA RESULT:      -5.6     29.628     33.029
REMARK  Name = 50922675_Encorafenib.pdbqt.pdb
REMARK  8 active torsions:
REMARK  status: ('A' for Active; 'I' for Inactive)
REMARK    1  A    between atoms: N_1  and  C_37
REMARK    2  A    between atoms: C_3  and  C_23
REMARK    3  A    between atoms: C_4  and  C_8
REMARK    4  A    between atoms: C_11  and  N_14
REMARK    5  A    between atoms: N_14  and  S_16
REMARK    6  A    between atoms: N_20  and  C_28
REMARK    7  A    between atoms: C_28  and  C_29
REMARK    8  A    between atoms: C_33  and  O_35
REMARK                            x       y       z     vdW  Elec       q    Type
REMARK                         _______ _______ _______ _____ _____    ______ ____
ROOT
ATOM      1  N   UNL     1      63.983  67.957  67.315  0.00  0.00    +0.000 N 
ATOM      2  N   UNL     1      63.752  69.314  67.411  0.00  0.00    +0.000 NA
ATOM      3  C   UNL     1      62.041  68.207  68.439  0.00  0.00    +0.000 A 
ATOM      4  C   UNL     1      62.612  69.465  68.103  0.00  0.00    +0.000 A 
ATOM      5  C   UNL     1      62.929  67.291  67.926  0.00  0.00    +0.000 A 
ENDROOT
BRANCH   4   8
ATOM      6 CL   UNL     1      63.280  73.986  70.479  0.00  0.00    +0.000 Cl
ATOM      7  F   UNL     1      60.162  70.476  67.029  0.00  0.00    +0.000 F 
ATOM      8  C   UNL     1      62.116  70.812  68.360  0.00  0.00    +0.000 A 
ATOM      9  C   UNL     1      60.900  71.261  67.831  0.00  0.00    +0.000 A 
ATOM     10  C   UNL     1      62.838  71.661  69.200  0.00  0.00    +0.000 A 
ATOM     11  C   UNL     1      60.422  72.545  68.116  0.00  0.00    +0.000 A 
ATOM     12  C   UNL     1      62.361  72.936  69.486  0.00  0.00    +0.000 A 
ATOM     13  C   UNL     1      61.151  73.376  68.963  0.00  0.00    +0.000 A 
BRANCH  11  14
ATOM     14  N   UNL     1      59.126  72.946  67.646  0.00  0.00    +0.000 N 
ATOM     15  H   UNL     1      59.100  73.914  67.312  0.00  0.00    +0.000 HD
BRANCH  14  16
ATOM     16  S   UNL     1      57.817  72.720  68.667  0.00  0.00    +0.000 S 
ATOM     17  O   UNL     1      57.592  71.325  68.936  0.00  0.00    +0.000 OA
ATOM     18  O   UNL     1      57.594  73.807  69.595  0.00  0.00    +0.000 OA
ATOM     19  C   UNL     1      56.390  72.988  67.659  0.00  0.00    +0.000 C 
ENDBRANCH  14  16
ENDBRANCH  11  14
ENDBRANCH   4   8
BRANCH   3  23
ATOM     20  N   UNL     1      58.474  65.129  69.066  0.00  0.00    +0.000 N 
ATOM     21  N   UNL     1      60.242  66.686  68.777  0.00  0.00    +0.000 NA
ATOM     22  N   UNL     1      58.602  66.992  70.447  0.00  0.00    +0.000 NA
ATOM     23  C   UNL     1      60.845  67.823  69.171  0.00  0.00    +0.000 A 
ATOM     24  C   UNL     1      59.132  66.303  69.432  0.00  0.00    +0.000 A 
ATOM     25  C   UNL     1      60.372  68.602  70.202  0.00  0.00    +0.000 A 
ATOM     26  C   UNL     1      59.236  68.124  70.804  0.00  0.00    +0.000 A 
ATOM     27  H   UNL     1      57.555  65.131  69.495  0.00  0.00    +0.000 HD
BRANCH  20  28
ATOM     28  C   UNL     1      58.592  64.713  67.673  0.00  0.00    +0.000 C 
BRANCH  28  29
ATOM     29  C   UNL     1      58.808  64.234  66.356  0.00  0.00    +0.000 C 
ATOM     30  C   UNL     1      60.112  64.565  65.696  0.00  0.00    +0.000 C 
ATOM     31  O   UNL     1      56.218  63.252  67.131  0.00  0.00    +0.000 OA
ATOM     32  N   UNL     1      58.029  63.327  65.721  0.00  0.00    +0.000 N 
ATOM     33  C   UNL     1      56.813  62.850  66.137  0.00  0.00    +0.000 C 
ATOM     34  H   UNL     1      58.423  62.947  64.865  0.00  0.00    +0.000 HD
BRANCH  33  35
ATOM     35  O   UNL     1      56.373  61.879  65.267  0.00  0.00    +0.000 OA
ATOM     36  C   UNL     1      57.205  61.523  64.192  0.00  0.00    +0.000 C 
ENDBRANCH  33  35
ENDBRANCH  28  29
ENDBRANCH  20  28
ENDBRANCH   3  23
BRANCH   1  37
ATOM     37  C   UNL     1      65.078  67.299  66.702  0.00  0.00    +0.000 C 
ATOM     38  C   UNL     1      65.000  66.751  65.288  0.00  0.00    +0.000 C 
ATOM     39  C   UNL     1      66.406  67.113  67.408  0.00  0.00    +0.000 C 
ENDBRANCH   1  37
TORSDOF 8
ENDMDL
MODEL 6
REMARK VINA RESULT:      -5.6     13.753     17.155
REMARK  Name = 50922675_Encorafenib.pdbqt.pdb
REMARK  8 active torsions:
REMARK  status: ('A' for Active; 'I' for Inactive)
REMARK    1  A    between atoms: N_1  and  C_37
REMARK    2  A    between atoms: C_3  and  C_23
REMARK    3  A    between atoms: C_4  and  C_8
REMARK    4  A    between atoms: C_11  and  N_14
REMARK    5  A    between atoms: N_14  and  S_16
REMARK    6  A    between atoms: N_20  and  C_28
REMARK    7  A    between atoms: C_28  and  C_29
REMARK    8  A    between atoms: C_33  and  O_35
REMARK                            x       y       z     vdW  Elec       q    Type
REMARK                         _______ _______ _______ _____ _____    ______ ____
ROOT
ATOM      1  N   UNL     1      58.771  36.848  71.343  0.00  0.00    +0.000 N 
ATOM      2  N   UNL     1      58.631  36.049  70.226  0.00  0.00    +0.000 NA
ATOM      3  C   UNL     1      59.779  37.933  69.639  0.00  0.00    +0.000 A 
ATOM      4  C   UNL     1      59.254  36.680  69.218  0.00  0.00    +0.000 A 
ATOM      5  C   UNL     1      59.454  37.999  70.972  0.00  0.00    +0.000 A 
ENDROOT
BRANCH   4   8
ATOM      6 CL   UNL     1      62.011  34.604  65.395  0.00  0.00    +0.000 Cl
ATOM      7  F   UNL     1      56.900  36.260  67.650  0.00  0.00    +0.000 F 
ATOM      8  C   UNL     1      59.266  36.060  67.899  0.00  0.00    +0.000 A 
ATOM      9  C   UNL     1      58.093  35.892  67.153  0.00  0.00    +0.000 A 
ATOM     10  C   UNL     1      60.483  35.675  67.332  0.00  0.00    +0.000 A 
ATOM     11  C   UNL     1      58.128  35.327  65.874  0.00  0.00    +0.000 A 
ATOM     12  C   UNL     1      60.518  35.117  66.059  0.00  0.00    +0.000 A 
ATOM     13  C   UNL     1      59.351  34.956  65.321  0.00  0.00    +0.000 A 
BRANCH  11  14
ATOM     14  N   UNL     1      56.927  35.258  65.090  0.00  0.00    +0.000 N 
ATOM     15  H   UNL     1      56.915  34.467  64.440  0.00  0.00    +0.000 HD
BRANCH  14  16
ATOM     16  S   UNL     1      56.464  36.626  64.241  0.00  0.00    +0.000 S 
ATOM     17  O   UNL     1      55.660  37.502  65.051  0.00  0.00    +0.000 OA
ATOM     18  O   UNL     1      57.406  37.041  63.226  0.00  0.00    +0.000 OA
ATOM     19  C   UNL     1      55.182  36.085  63.152  0.00  0.00    +0.000 C 
ENDBRANCH  14  16
ENDBRANCH  11  14
ENDBRANCH   4   8
BRANCH   3  23
ATOM     20  N   UNL     1      63.961  40.008  68.745  0.00  0.00    +0.000 N 
ATOM     21  N   UNL     1      61.857  38.996  69.173  0.00  0.00    +0.000 NA
ATOM     22  N   UNL     1      62.047  40.869  67.749  0.00  0.00    +0.000 NA
ATOM     23  C   UNL     1      60.529  38.975  68.956  0.00  0.00    +0.000 A 
ATOM     24  C   UNL     1      62.580  39.948  68.557  0.00  0.00    +0.000 A 
ATOM     25  C   UNL     1      59.889  39.883  68.144  0.00  0.00    +0.000 A 
ATOM     26  C   UNL     1      60.716  40.812  67.564  0.00  0.00    +0.000 A 
ATOM     27  H   UNL     1      64.290  40.906  68.409  0.00  0.00    +0.000 HD
BRANCH  20  28
ATOM     28  C   UNL     1      64.478  39.505  70.012  0.00  0.00    +0.000 C 
BRANCH  28  29
ATOM     29  C   UNL     1      65.072  39.108  71.237  0.00  0.00    +0.000 C 
ATOM     30  C   UNL     1      65.389  37.654  71.421  0.00  0.00    +0.000 C 
ATOM     31  O   UNL     1      64.761  41.961  71.409  0.00  0.00    +0.000 OA
ATOM     32  N   UNL     1      65.572  39.952  72.169  0.00  0.00    +0.000 N 
ATOM     33  C   UNL     1      65.437  41.316  72.203  0.00  0.00    +0.000 C 
ATOM     34  H   UNL     1      66.132  39.511  72.892  0.00  0.00    +0.000 HD
BRANCH  33  35
ATOM     35  O   UNL     1      66.158  41.827  73.258  0.00  0.00    +0.000 OA
ATOM     36  C   UNL     1      67.343  41.172  73.634  0.00  0.00    +0.000 C 
ENDBRANCH  33  35
ENDBRANCH  28  29
ENDBRANCH  20  28
ENDBRANCH   3  23
BRANCH   1  37
ATOM     37  C   UNL     1      58.310  36.597  72.659  0.00  0.00    +0.000 C 
ATOM     38  C   UNL     1      58.220  37.695  73.704  0.00  0.00    +0.000 C 
ATOM     39  C   UNL     1      57.859  35.222  73.108  0.00  0.00    +0.000 C 
ENDBRANCH   1  37
TORSDOF 8
ENDMDL
MODEL 7
REMARK VINA RESULT:      -5.5     11.803     14.978
REMARK  Name = 50922675_Encorafenib.pdbqt.pdb
REMARK  8 active torsions:
REMARK  status: ('A' for Active; 'I' for Inactive)
REMARK    1  A    between atoms: N_1  and  C_37
REMARK    2  A    between atoms: C_3  and  C_23
REMARK    3  A    between atoms: C_4  and  C_8
REMARK    4  A    between atoms: C_11  and  N_14
REMARK    5  A    between atoms: N_14  and  S_16
REMARK    6  A    between atoms: N_20  and  C_28
REMARK    7  A    between atoms: C_28  and  C_29
REMARK    8  A    between atoms: C_33  and  O_35
REMARK                            x       y       z     vdW  Elec       q    Type
REMARK                         _______ _______ _______ _____ _____    ______ ____
ROOT
ATOM      1  N   UNL     1      72.968  40.832  68.159  0.00  0.00    +0.000 N 
ATOM      2  N   UNL     1      71.858  40.014  68.218  0.00  0.00    +0.000 NA
ATOM      3  C   UNL     1      71.658  41.388  66.406  0.00  0.00    +0.000 A 
ATOM      4  C   UNL     1      71.092  40.323  67.161  0.00  0.00    +0.000 A 
ATOM      5  C   UNL     1      72.829  41.676  67.065  0.00  0.00    +0.000 A 
ENDROOT
BRANCH   4   8
ATOM      6 CL   UNL     1      66.215  39.582  68.642  0.00  0.00    +0.000 Cl
ATOM      7  F   UNL     1      70.727  38.282  65.192  0.00  0.00    +0.000 F 
ATOM      8  C   UNL     1      69.837  39.609  66.966  0.00  0.00    +0.000 A 
ATOM      9  C   UNL     1      69.705  38.600  66.004  0.00  0.00    +0.000 A 
ATOM     10  C   UNL     1      68.750  39.891  67.796  0.00  0.00    +0.000 A 
ATOM     11  C   UNL     1      68.503  37.900  65.854  0.00  0.00    +0.000 A 
ATOM     12  C   UNL     1      67.556  39.193  67.650  0.00  0.00    +0.000 A 
ATOM     13  C   UNL     1      67.432  38.189  66.696  0.00  0.00    +0.000 A 
BRANCH  11  14
ATOM     14  N   UNL     1      68.425  36.803  64.931  0.00  0.00    +0.000 N 
ATOM     15  H   UNL     1      67.570  36.813  64.366  0.00  0.00    +0.000 HD
BRANCH  14  16
ATOM     16  S   UNL     1      68.623  35.253  65.535  0.00  0.00    +0.000 S 
ATOM     17  O   UNL     1      68.523  35.231  66.970  0.00  0.00    +0.000 OA
ATOM     18  O   UNL     1      68.183  34.206  64.640  0.00  0.00    +0.000 OA
ATOM     19  C   UNL     1      70.358  34.931  65.424  0.00  0.00    +0.000 C 
ENDBRANCH  14  16
ENDBRANCH  11  14
ENDBRANCH   4   8
BRANCH   3  23
ATOM     20  N   UNL     1      70.397  41.165  61.829  0.00  0.00    +0.000 N 
ATOM     21  N   UNL     1      71.025  41.310  64.113  0.00  0.00    +0.000 NA
ATOM     22  N   UNL     1      70.466  43.239  62.873  0.00  0.00    +0.000 NA
ATOM     23  C   UNL     1      71.242  42.079  65.196  0.00  0.00    +0.000 A 
ATOM     24  C   UNL     1      70.641  41.919  62.978  0.00  0.00    +0.000 A 
ATOM     25  C   UNL     1      71.093  43.447  65.185  0.00  0.00    +0.000 A 
ATOM     26  C   UNL     1      70.697  43.968  63.980  0.00  0.00    +0.000 A 
ATOM     27  H   UNL     1      70.355  41.796  61.036  0.00  0.00    +0.000 HD
BRANCH  20  28
ATOM     28  C   UNL     1      71.138  39.918  61.688  0.00  0.00    +0.000 C 
BRANCH  28  29
ATOM     29  C   UNL     1      71.786  38.679  61.448  0.00  0.00    +0.000 C 
ATOM     30  C   UNL     1      73.260  38.701  61.180  0.00  0.00    +0.000 C 
ATOM     31  O   UNL     1      69.031  38.034  61.965  0.00  0.00    +0.000 OA
ATOM     32  N   UNL     1      71.231  37.460  61.648  0.00  0.00    +0.000 N 
ATOM     33  C   UNL     1      69.918  37.188  61.931  0.00  0.00    +0.000 C 
ATOM     34  H   UNL     1      71.883  36.682  61.615  0.00  0.00    +0.000 HD
BRANCH  33  35
ATOM     35  O   UNL     1      69.761  35.839  62.150  0.00  0.00    +0.000 OA
ATOM     36  C   UNL     1      70.790  34.974  61.741  0.00  0.00    +0.000 C 
ENDBRANCH  33  35
ENDBRANCH  28  29
ENDBRANCH  20  28
ENDBRANCH   3  23
BRANCH   1  37
ATOM     37  C   UNL     1      74.079  40.861  69.038  0.00  0.00    +0.000 C 
ATOM     38  C   UNL     1      73.913  40.862  70.548  0.00  0.00    +0.000 C 
ATOM     39  C   UNL     1      75.508  40.875  68.533  0.00  0.00    +0.000 C 
ENDBRANCH   1  37
TORSDOF 8
ENDMDL
MODEL 8
REMARK VINA RESULT:      -5.5      1.696      2.099
REMARK  Name = 50922675_Encorafenib.pdbqt.pdb
REMARK  8 active torsions:
REMARK  status: ('A' for Active; 'I' for Inactive)
REMARK    1  A    between atoms: N_1  and  C_37
REMARK    2  A    between atoms: C_3  and  C_23
REMARK    3  A    between atoms: C_4  and  C_8
REMARK    4  A    between atoms: C_11  and  N_14
REMARK    5  A    between atoms: N_14  and  S_16
REMARK    6  A    between atoms: N_20  and  C_28
REMARK    7  A    between atoms: C_28  and  C_29
REMARK    8  A    between atoms: C_33  and  O_35
REMARK                            x       y       z     vdW  Elec       q    Type
REMARK                         _______ _______ _______ _____ _____    ______ ____
ROOT
ATOM      1  N   UNL     1      63.727  38.241  51.023  0.00  0.00    +0.000 N 
ATOM      2  N   UNL     1      64.146  39.516  51.343  0.00  0.00    +0.000 NA
ATOM      3  C   UNL     1      62.902  38.700  53.073  0.00  0.00    +0.000 A 
ATOM      4  C   UNL     1      63.680  39.780  52.573  0.00  0.00    +0.000 A 
ATOM      5  C   UNL     1      62.957  37.759  52.073  0.00  0.00    +0.000 A 
ENDROOT
BRANCH   4   8
ATOM      6 CL   UNL     1      61.947  44.407  54.029  0.00  0.00    +0.000 Cl
ATOM      7  F   UNL     1      66.283  40.555  53.468  0.00  0.00    +0.000 F 
ATOM      8  C   UNL     1      63.971  41.075  53.175  0.00  0.00    +0.000 A 
ATOM      9  C   UNL     1      65.265  41.424  53.581  0.00  0.00    +0.000 A 
ATOM     10  C   UNL     1      62.951  42.020  53.299  0.00  0.00    +0.000 A 
ATOM     11  C   UNL     1      65.533  42.685  54.126  0.00  0.00    +0.000 A 
ATOM     12  C   UNL     1      63.218  43.274  53.837  0.00  0.00    +0.000 A 
ATOM     13  C   UNL     1      64.504  43.618  54.235  0.00  0.00    +0.000 A 
BRANCH  11  14
ATOM     14  N   UNL     1      66.884  43.055  54.440  0.00  0.00    +0.000 N 
ATOM     15  H   UNL     1      66.979  43.487  55.364  0.00  0.00    +0.000 HD
BRANCH  14  16
ATOM     16  S   UNL     1      67.713  44.010  53.341  0.00  0.00    +0.000 S 
ATOM     17  O   UNL     1      67.173  45.342  53.287  0.00  0.00    +0.000 OA
ATOM     18  O   UNL     1      69.105  43.654  53.177  0.00  0.00    +0.000 OA
ATOM     19  C   UNL     1      67.156  43.476  51.750  0.00  0.00    +0.000 C 
ENDBRANCH  14  16
ENDBRANCH  11  14
ENDBRANCH   4   8
BRANCH   3  23
ATOM     20  N   UNL     1      62.514  36.288  57.151  0.00  0.00    +0.000 N 
ATOM     21  N   UNL     1      62.679  37.509  55.122  0.00  0.00    +0.000 NA
ATOM     22  N   UNL     1      60.973  37.964  56.688  0.00  0.00    +0.000 NA
ATOM     23  C   UNL     1      62.196  38.480  54.326  0.00  0.00    +0.000 A 
ATOM     24  C   UNL     1      62.048  37.280  56.287  0.00  0.00    +0.000 A 
ATOM     25  C   UNL     1      61.092  39.235  54.650  0.00  0.00    +0.000 A 
ATOM     26  C   UNL     1      60.523  38.923  55.859  0.00  0.00    +0.000 A 
ATOM     27  H   UNL     1      61.794  36.102  57.840  0.00  0.00    +0.000 HD
BRANCH  20  28
ATOM     28  C   UNL     1      63.208  35.158  56.545  0.00  0.00    +0.000 C 
BRANCH  28  29
ATOM     29  C   UNL     1      63.769  34.020  55.912  0.00  0.00    +0.000 C 
ATOM     30  C   UNL     1      62.859  32.869  55.608  0.00  0.00    +0.000 C 
ATOM     31  O   UNL     1      65.923  35.908  56.176  0.00  0.00    +0.000 OA
ATOM     32  N   UNL     1      65.006  33.964  55.366  0.00  0.00    +0.000 N 
ATOM     33  C   UNL     1      66.001  34.901  55.480  0.00  0.00    +0.000 C 
ATOM     34  H   UNL     1      65.183  33.150  54.785  0.00  0.00    +0.000 HD
BRANCH  33  35
ATOM     35  O   UNL     1      67.081  34.527  54.714  0.00  0.00    +0.000 OA
ATOM     36  C   UNL     1      67.398  33.160  54.634  0.00  0.00    +0.000 C 
ENDBRANCH  33  35
ENDBRANCH  28  29
ENDBRANCH  20  28
ENDBRANCH   3  23
BRANCH   1  37
ATOM     37  C   UNL     1      63.994  37.505  49.842  0.00  0.00    +0.000 C 
ATOM     38  C   UNL     1      62.965  36.576  49.221  0.00  0.00    +0.000 C 
ATOM     39  C   UNL     1      65.316  37.606  49.109  0.00  0.00    +0.000 C 
ENDBRANCH   1  37
TORSDOF 8
ENDMDL
MODEL 9
REMARK VINA RESULT:      -5.5     15.544     20.112
REMARK  Name = 50922675_Encorafenib.pdbqt.pdb
REMARK  8 active torsions:
REMARK  status: ('A' for Active; 'I' for Inactive)
REMARK    1  A    between atoms: N_1  and  C_37
REMARK    2  A    between atoms: C_3  and  C_23
REMARK    3  A    between atoms: C_4  and  C_8
REMARK    4  A    between atoms: C_11  and  N_14
REMARK    5  A    between atoms: N_14  and  S_16
REMARK    6  A    between atoms: N_20  and  C_28
REMARK    7  A    between atoms: C_28  and  C_29
REMARK    8  A    between atoms: C_33  and  O_35
REMARK                            x       y       z     vdW  Elec       q    Type
REMARK                         _______ _______ _______ _____ _____    ______ ____
ROOT
ATOM      1  N   UNL     1      66.096  57.110  60.491  0.00  0.00    +0.000 N 
ATOM      2  N   UNL     1      66.081  55.848  59.933  0.00  0.00    +0.000 NA
ATOM      3  C   UNL     1      64.021  56.281  60.815  0.00  0.00    +0.000 A 
ATOM      4  C   UNL     1      64.840  55.365  60.100  0.00  0.00    +0.000 A 
ATOM      5  C   UNL     1      64.845  57.358  61.041  0.00  0.00    +0.000 A 
ENDROOT
BRANCH   4   8
ATOM      6 CL   UNL     1      66.329  50.470  59.511  0.00  0.00    +0.000 Cl
ATOM      7  F   UNL     1      62.422  54.718  58.718  0.00  0.00    +0.000 F 
ATOM      8  C   UNL     1      64.530  54.031  59.602  0.00  0.00    +0.000 A 
ATOM      9  C   UNL     1      63.342  53.760  58.911  0.00  0.00    +0.000 A 
ATOM     10  C   UNL     1      65.462  53.004  59.764  0.00  0.00    +0.000 A 
ATOM     11  C   UNL     1      63.077  52.481  58.411  0.00  0.00    +0.000 A 
ATOM     12  C   UNL     1      65.199  51.733  59.263  0.00  0.00    +0.000 A 
ATOM     13  C   UNL     1      64.021  51.470  58.574  0.00  0.00    +0.000 A 
BRANCH  11  14
ATOM     14  N   UNL     1      61.901  52.253  57.619  0.00  0.00    +0.000 N 
ATOM     15  H   UNL     1      61.586  53.089  57.116  0.00  0.00    +0.000 HD
BRANCH  14  16
ATOM     16  S   UNL     1      60.566  51.575  58.372  0.00  0.00    +0.000 S 
ATOM     17  O   UNL     1      59.560  51.193  57.418  0.00  0.00    +0.000 OA
ATOM     18  O   UNL     1      60.869  50.883  59.605  0.00  0.00    +0.000 OA
ATOM     19  C   UNL     1      59.695  52.937  59.086  0.00  0.00    +0.000 C 
ENDBRANCH  14  16
ENDBRANCH  11  14
ENDBRANCH   4   8
BRANCH   3  23
ATOM     20  N   UNL     1      59.627  58.065  60.490  0.00  0.00    +0.000 N 
ATOM     21  N   UNL     1      61.810  57.154  60.677  0.00  0.00    +0.000 NA
ATOM     22  N   UNL     1      60.015  56.299  61.948  0.00  0.00    +0.000 NA
ATOM     23  C   UNL     1      62.631  56.248  61.241  0.00  0.00    +0.000 A 
ATOM     24  C   UNL     1      60.519  57.150  61.050  0.00  0.00    +0.000 A 
ATOM     25  C   UNL     1      62.205  55.334  62.177  0.00  0.00    +0.000 A 
ATOM     26  C   UNL     1      60.871  55.413  62.488  0.00  0.00    +0.000 A 
ATOM     27  H   UNL     1      58.783  58.073  61.052  0.00  0.00    +0.000 HD
BRANCH  20  28
ATOM     28  C   UNL     1      60.180  59.339  60.046  0.00  0.00    +0.000 C 
BRANCH  28  29
ATOM     29  C   UNL     1      60.820  60.554  59.690  0.00  0.00    +0.000 C 
ATOM     30  C   UNL     1      62.139  60.469  58.984  0.00  0.00    +0.000 C 
ATOM     31  O   UNL     1      58.337  61.311  60.928  0.00  0.00    +0.000 OA
ATOM     32  N   UNL     1      60.246  61.779  59.743  0.00  0.00    +0.000 N 
ATOM     33  C   UNL     1      59.040  62.101  60.309  0.00  0.00    +0.000 C 
ATOM     34  H   UNL     1      60.766  62.516  59.275  0.00  0.00    +0.000 HD
BRANCH  33  35
ATOM     35  O   UNL     1      58.763  63.430  60.084  0.00  0.00    +0.000 OA
ATOM     36  C   UNL     1      58.489  63.840  58.769  0.00  0.00    +0.000 C 
ENDBRANCH  33  35
ENDBRANCH  28  29
ENDBRANCH  20  28
ENDBRANCH   3  23
BRANCH   1  37
ATOM     37  C   UNL     1      67.171  58.032  60.537  0.00  0.00    +0.000 C 
ATOM     38  C   UNL     1      68.068  58.164  61.756  0.00  0.00    +0.000 C 
ATOM     39  C   UNL     1      67.510  58.935  59.369  0.00  0.00    +0.000 C 
ENDBRANCH   1  37
TORSDOF 8
ENDMDL
