MODEL 1
REMARK VINA RESULT:      -6.4      0.000      0.000
REMARK  Name = 5109870_Ethoxyphenyl.pdbqt.pdb
REMARK  6 active torsions:
REMARK  status: ('A' for Active; 'I' for Inactive)
REMARK    1  A    between atoms: N_2  and  C_22
REMARK    2  A    between atoms: C_3  and  O_11
REMARK    3  A    between atoms: C_3  and  C_13
REMARK    4  A    between atoms: C_16  and  N_19
REMARK    5  A    between atoms: C_25  and  O_28
REMARK    6  A    between atoms: O_28  and  C_29
REMARK                            x       y       z     vdW  Elec       q    Type
REMARK                         _______ _______ _______ _____ _____    ______ ____
ROOT
ATOM      1  N   UNL     1      61.807  36.033  66.995  0.00  0.00    +0.000 N 
ATOM      2  N   UNL     1      59.713  36.692  66.025  0.00  0.00    +0.000 N 
ATOM      3  C   UNL     1      62.075  37.363  66.397  0.00  0.00    +0.000 C 
ATOM      4  C   UNL     1      60.425  35.642  66.572  0.00  0.00    +0.000 C 
ATOM      5  C   UNL     1      60.723  37.714  65.957  0.00  0.00    +0.000 C 
ATOM      6  C   UNL     1      62.781  34.965  66.775  0.00  0.00    +0.000 C 
ATOM      7  C   UNL     1      60.101  34.276  66.323  0.00  0.00    +0.000 C 
ATOM      8  C   UNL     1      63.108  33.497  66.451  0.00  0.00    +0.000 C 
ATOM      9  C   UNL     1      60.609  32.845  66.087  0.00  0.00    +0.000 C 
ATOM     10  C   UNL     1      62.075  32.423  66.124  0.00  0.00    +0.000 C 
ENDROOT
BRANCH   3  11
ATOM     11  C   UNL     1      62.682  38.313  67.403  0.00  0.00    +0.000 A 
ATOM     12  C   UNL     1      63.988  38.137  67.882  0.00  0.00    +0.000 A 
ATOM     13  C   UNL     1      64.555  39.041  68.776  0.00  0.00    +0.000 A 
ATOM     14  C   UNL     1      63.807  40.142  69.185  0.00  0.00    +0.000 A 
ATOM     15  C   UNL     1      62.514  40.356  68.718  0.00  0.00    +0.000 A 
ATOM     16  C   UNL     1      61.963  39.442  67.825  0.00  0.00    +0.000 A 
BRANCH  14  17
ATOM     17  N   UNL     1      64.390  41.087  70.117  0.00  0.00    +0.000 N 
ATOM     18  O   UNL     1      65.461  40.775  70.657  0.00  0.00    +0.000 OA
ATOM     19  O   UNL     1      63.783  42.149  70.315  0.00  0.00    +0.000 OA
ENDBRANCH  14  17
ENDBRANCH   3  11
BRANCH   2  20
ATOM     20  C   UNL     1      58.507  36.739  65.309  0.00  0.00    +0.000 A 
ATOM     21  C   UNL     1      58.476  36.797  63.912  0.00  0.00    +0.000 A 
ATOM     22  C   UNL     1      57.272  36.821  63.208  0.00  0.00    +0.000 A 
ATOM     23  C   UNL     1      56.060  36.777  63.893  0.00  0.00    +0.000 A 
ATOM     24  C   UNL     1      56.066  36.708  65.283  0.00  0.00    +0.000 A 
ATOM     25  C   UNL     1      57.276  36.685  65.977  0.00  0.00    +0.000 A 
BRANCH  23  26
ATOM     26  O   UNL     1      54.825  36.794  63.298  0.00  0.00    +0.000 OA
BRANCH  26  27
ATOM     27  C   UNL     1      54.426  35.625  62.802  0.00  0.00    +0.000 C 
ATOM     28  C   UNL     1      53.973  34.282  62.217  0.00  0.00    +0.000 C 
ENDBRANCH  26  27
ENDBRANCH  23  26
ENDBRANCH   2  20
BRANCH   3  29
ATOM     29  O   UNL     1      62.905  37.300  65.244  0.00  0.00    +0.000 OA
ATOM     30  H   UNL     1      63.533  38.034  65.344  0.00  0.00    +0.000 HD
ENDBRANCH   3  29
TORSDOF 6
ENDMDL
MODEL 2
REMARK VINA RESULT:      -6.3      6.968      8.175
REMARK  Name = 5109870_Ethoxyphenyl.pdbqt.pdb
REMARK  6 active torsions:
REMARK  status: ('A' for Active; 'I' for Inactive)
REMARK    1  A    between atoms: N_2  and  C_22
REMARK    2  A    between atoms: C_3  and  O_11
REMARK    3  A    between atoms: C_3  and  C_13
REMARK    4  A    between atoms: C_16  and  N_19
REMARK    5  A    between atoms: C_25  and  O_28
REMARK    6  A    between atoms: O_28  and  C_29
REMARK                            x       y       z     vdW  Elec       q    Type
REMARK                         _______ _______ _______ _____ _____    ______ ____
ROOT
ATOM      1  N   UNL     1      56.903  38.339  71.657  0.00  0.00    +0.000 N 
ATOM      2  N   UNL     1      55.246  40.069  71.518  0.00  0.00    +0.000 N 
ATOM      3  C   UNL     1      56.997  38.833  70.263  0.00  0.00    +0.000 C 
ATOM      4  C   UNL     1      55.717  39.013  72.274  0.00  0.00    +0.000 C 
ATOM      5  C   UNL     1      56.050  39.948  70.331  0.00  0.00    +0.000 C 
ATOM      6  C   UNL     1      56.902  36.894  71.883  0.00  0.00    +0.000 C 
ATOM      7  C   UNL     1      54.915  38.335  73.238  0.00  0.00    +0.000 C 
ATOM      8  C   UNL     1      56.351  35.652  72.604  0.00  0.00    +0.000 C 
ATOM      9  C   UNL     1      54.541  37.003  73.907  0.00  0.00    +0.000 C 
ATOM     10  C   UNL     1      55.208  35.662  73.613  0.00  0.00    +0.000 C 
ENDROOT
BRANCH   3  11
ATOM     11  C   UNL     1      58.411  39.223  69.905  0.00  0.00    +0.000 A 
ATOM     12  C   UNL     1      58.754  39.623  68.605  0.00  0.00    +0.000 A 
ATOM     13  C   UNL     1      60.051  40.023  68.294  0.00  0.00    +0.000 A 
ATOM     14  C   UNL     1      61.012  40.032  69.300  0.00  0.00    +0.000 A 
ATOM     15  C   UNL     1      60.704  39.656  70.603  0.00  0.00    +0.000 A 
ATOM     16  C   UNL     1      59.402  39.260  70.898  0.00  0.00    +0.000 A 
BRANCH  14  17
ATOM     17  N   UNL     1      62.365  40.445  68.983  0.00  0.00    +0.000 N 
ATOM     18  O   UNL     1      62.842  41.392  69.625  0.00  0.00    +0.000 OA
ATOM     19  O   UNL     1      62.962  39.827  68.090  0.00  0.00    +0.000 OA
ENDBRANCH  14  17
ENDBRANCH   3  11
BRANCH   2  20
ATOM     20  C   UNL     1      54.061  40.819  71.584  0.00  0.00    +0.000 A 
ATOM     21  C   UNL     1      53.833  41.759  72.595  0.00  0.00    +0.000 A 
ATOM     22  C   UNL     1      52.662  42.515  72.638  0.00  0.00    +0.000 A 
ATOM     23  C   UNL     1      51.688  42.353  71.656  0.00  0.00    +0.000 A 
ATOM     24  C   UNL     1      51.897  41.432  70.635  0.00  0.00    +0.000 A 
ATOM     25  C   UNL     1      53.072  40.680  70.601  0.00  0.00    +0.000 A 
BRANCH  23  26
ATOM     26  O   UNL     1      50.505  43.045  71.607  0.00  0.00    +0.000 OA
BRANCH  26  27
ATOM     27  C   UNL     1      49.429  42.300  71.368  0.00  0.00    +0.000 C 
ATOM     28  C   UNL     1      48.199  41.427  71.091  0.00  0.00    +0.000 C 
ENDBRANCH  26  27
ENDBRANCH  23  26
ENDBRANCH   2  20
BRANCH   3  29
ATOM     29  O   UNL     1      56.504  37.903  69.306  0.00  0.00    +0.000 OA
ATOM     30  H   UNL     1      55.707  37.522  69.711  0.00  0.00    +0.000 HD
ENDBRANCH   3  29
TORSDOF 6
ENDMDL
MODEL 3
REMARK VINA RESULT:      -6.0      6.210     13.206
REMARK  Name = 5109870_Ethoxyphenyl.pdbqt.pdb
REMARK  6 active torsions:
REMARK  status: ('A' for Active; 'I' for Inactive)
REMARK    1  A    between atoms: N_2  and  C_22
REMARK    2  A    between atoms: C_3  and  O_11
REMARK    3  A    between atoms: C_3  and  C_13
REMARK    4  A    between atoms: C_16  and  N_19
REMARK    5  A    between atoms: C_25  and  O_28
REMARK    6  A    between atoms: O_28  and  C_29
REMARK                            x       y       z     vdW  Elec       q    Type
REMARK                         _______ _______ _______ _____ _____    ______ ____
ROOT
ATOM      1  N   UNL     1      51.016  35.054  59.873  0.00  0.00    +0.000 N 
ATOM      2  N   UNL     1      52.728  34.996  61.554  0.00  0.00    +0.000 N 
ATOM      3  C   UNL     1      50.429  34.255  60.976  0.00  0.00    +0.000 C 
ATOM      4  C   UNL     1      52.447  35.302  60.236  0.00  0.00    +0.000 C 
ATOM      5  C   UNL     1      51.491  34.392  61.974  0.00  0.00    +0.000 C 
ATOM      6  C   UNL     1      50.865  34.562  58.505  0.00  0.00    +0.000 C 
ATOM      7  C   UNL     1      53.452  35.367  59.227  0.00  0.00    +0.000 C 
ATOM      8  C   UNL     1      51.447  34.296  57.106  0.00  0.00    +0.000 C 
ATOM      9  C   UNL     1      53.839  35.100  57.763  0.00  0.00    +0.000 C 
ATOM     10  C   UNL     1      52.892  34.559  56.696  0.00  0.00    +0.000 C 
ENDROOT
BRANCH   3  11
ATOM     11  C   UNL     1      49.084  34.796  61.401  0.00  0.00    +0.000 A 
ATOM     12  C   UNL     1      48.880  36.168  61.608  0.00  0.00    +0.000 A 
ATOM     13  C   UNL     1      47.627  36.664  61.958  0.00  0.00    +0.000 A 
ATOM     14  C   UNL     1      46.563  35.775  62.089  0.00  0.00    +0.000 A 
ATOM     15  C   UNL     1      46.727  34.410  61.876  0.00  0.00    +0.000 A 
ATOM     16  C   UNL     1      47.987  33.931  61.527  0.00  0.00    +0.000 A 
BRANCH  14  17
ATOM     17  N   UNL     1      45.256  36.284  62.455  0.00  0.00    +0.000 N 
ATOM     18  O   UNL     1      45.206  37.385  63.021  0.00  0.00    +0.000 OA
ATOM     19  O   UNL     1      44.269  35.588  62.177  0.00  0.00    +0.000 OA
ENDBRANCH  14  17
ENDBRANCH   3  11
BRANCH   2  20
ATOM     20  C   UNL     1      53.939  34.857  62.249  0.00  0.00    +0.000 A 
ATOM     21  C   UNL     1      54.686  35.963  62.668  0.00  0.00    +0.000 A 
ATOM     22  C   UNL     1      55.876  35.815  63.379  0.00  0.00    +0.000 A 
ATOM     23  C   UNL     1      56.347  34.543  63.698  0.00  0.00    +0.000 A 
ATOM     24  C   UNL     1      55.616  33.427  63.302  0.00  0.00    +0.000 A 
ATOM     25  C   UNL     1      54.426  33.587  62.591  0.00  0.00    +0.000 A 
BRANCH  23  26
ATOM     26  O   UNL     1      57.501  34.289  64.392  0.00  0.00    +0.000 OA
BRANCH  26  27
ATOM     27  C   UNL     1      58.190  35.370  64.749  0.00  0.00    +0.000 C 
ATOM     28  C   UNL     1      58.977  36.615  65.177  0.00  0.00    +0.000 C 
ENDBRANCH  26  27
ENDBRANCH  23  26
ENDBRANCH   2  20
BRANCH   3  29
ATOM     29  O   UNL     1      50.306  32.873  60.661  0.00  0.00    +0.000 OA
ATOM     30  H   UNL     1      50.992  32.704  59.994  0.00  0.00    +0.000 HD
ENDBRANCH   3  29
TORSDOF 6
ENDMDL
MODEL 4
REMARK VINA RESULT:      -6.0     22.672     25.072
REMARK  Name = 5109870_Ethoxyphenyl.pdbqt.pdb
REMARK  6 active torsions:
REMARK  status: ('A' for Active; 'I' for Inactive)
REMARK    1  A    between atoms: N_2  and  C_22
REMARK    2  A    between atoms: C_3  and  O_11
REMARK    3  A    between atoms: C_3  and  C_13
REMARK    4  A    between atoms: C_16  and  N_19
REMARK    5  A    between atoms: C_25  and  O_28
REMARK    6  A    between atoms: O_28  and  C_29
REMARK                            x       y       z     vdW  Elec       q    Type
REMARK                         _______ _______ _______ _____ _____    ______ ____
ROOT
ATOM      1  N   UNL     1      49.642  53.284  81.459  0.00  0.00    +0.000 N 
ATOM      2  N   UNL     1      47.514  53.172  80.355  0.00  0.00    +0.000 N 
ATOM      3  C   UNL     1      48.821  52.401  82.321  0.00  0.00    +0.000 C 
ATOM      4  C   UNL     1      48.725  53.833  80.409  0.00  0.00    +0.000 C 
ATOM      5  C   UNL     1      47.613  52.305  81.499  0.00  0.00    +0.000 C 
ATOM      6  C   UNL     1      50.444  54.326  82.098  0.00  0.00    +0.000 C 
ATOM      7  C   UNL     1      48.909  55.153  79.902  0.00  0.00    +0.000 C 
ATOM      8  C   UNL     1      50.973  55.770  82.144  0.00  0.00    +0.000 C 
ATOM      9  C   UNL     1      49.589  56.522  80.065  0.00  0.00    +0.000 C 
ATOM     10  C   UNL     1      50.593  56.872  81.160  0.00  0.00    +0.000 C 
ENDROOT
BRANCH   3  11
ATOM     11  C   UNL     1      49.513  51.085  82.588  0.00  0.00    +0.000 A 
ATOM     12  C   UNL     1      49.375  49.995  81.716  0.00  0.00    +0.000 A 
ATOM     13  C   UNL     1      50.051  48.800  81.946  0.00  0.00    +0.000 A 
ATOM     14  C   UNL     1      50.885  48.700  83.056  0.00  0.00    +0.000 A 
ATOM     15  C   UNL     1      51.057  49.766  83.933  0.00  0.00    +0.000 A 
ATOM     16  C   UNL     1      50.374  50.954  83.688  0.00  0.00    +0.000 A 
BRANCH  14  17
ATOM     17  N   UNL     1      51.590  47.458  83.303  0.00  0.00    +0.000 N 
ATOM     18  O   UNL     1      52.172  47.334  84.390  0.00  0.00    +0.000 OA
ATOM     19  O   UNL     1      51.568  46.596  82.413  0.00  0.00    +0.000 OA
ENDBRANCH  14  17
ENDBRANCH   3  11
BRANCH   2  20
ATOM     20  C   UNL     1      46.305  53.475  79.709  0.00  0.00    +0.000 A 
ATOM     21  C   UNL     1      45.245  54.102  80.374  0.00  0.00    +0.000 A 
ATOM     22  C   UNL     1      44.057  54.420  79.717  0.00  0.00    +0.000 A 
ATOM     23  C   UNL     1      43.903  54.122  78.365  0.00  0.00    +0.000 A 
ATOM     24  C   UNL     1      44.948  53.508  77.680  0.00  0.00    +0.000 A 
ATOM     25  C   UNL     1      46.132  53.195  78.347  0.00  0.00    +0.000 A 
BRANCH  23  26
ATOM     26  O   UNL     1      42.779  54.392  77.628  0.00  0.00    +0.000 OA
BRANCH  26  27
ATOM     27  C   UNL     1      42.300  53.360  76.938  0.00  0.00    +0.000 C 
ATOM     28  C   UNL     1      41.752  52.160  76.156  0.00  0.00    +0.000 C 
ENDBRANCH  26  27
ENDBRANCH  23  26
ENDBRANCH   2  20
BRANCH   3  29
ATOM     29  O   UNL     1      48.458  53.005  83.556  0.00  0.00    +0.000 OA
ATOM     30  H   UNL     1      47.516  52.800  83.672  0.00  0.00    +0.000 HD
ENDBRANCH   3  29
TORSDOF 6
ENDMDL
MODEL 5
REMARK VINA RESULT:      -5.9     15.777     18.755
REMARK  Name = 5109870_Ethoxyphenyl.pdbqt.pdb
REMARK  6 active torsions:
REMARK  status: ('A' for Active; 'I' for Inactive)
REMARK    1  A    between atoms: N_2  and  C_22
REMARK    2  A    between atoms: C_3  and  O_11
REMARK    3  A    between atoms: C_3  and  C_13
REMARK    4  A    between atoms: C_16  and  N_19
REMARK    5  A    between atoms: C_25  and  O_28
REMARK    6  A    between atoms: O_28  and  C_29
REMARK                            x       y       z     vdW  Elec       q    Type
REMARK                         _______ _______ _______ _____ _____    ______ ____
ROOT
ATOM      1  N   UNL     1      44.639  42.134  69.894  0.00  0.00    +0.000 N 
ATOM      2  N   UNL     1      43.026  43.414  71.127  0.00  0.00    +0.000 N 
ATOM      3  C   UNL     1      45.417  43.257  70.471  0.00  0.00    +0.000 C 
ATOM      4  C   UNL     1      43.198  42.410  70.194  0.00  0.00    +0.000 C 
ATOM      5  C   UNL     1      44.376  43.884  71.289  0.00  0.00    +0.000 C 
ATOM      6  C   UNL     1      44.860  41.787  68.491  0.00  0.00    +0.000 C 
ATOM      7  C   UNL     1      42.178  42.026  69.275  0.00  0.00    +0.000 C 
ATOM      8  C   UNL     1      44.315  41.387  67.109  0.00  0.00    +0.000 C 
ATOM      9  C   UNL     1      41.822  41.553  67.857  0.00  0.00    +0.000 C 
ATOM     10  C   UNL     1      42.837  41.245  66.760  0.00  0.00    +0.000 C 
ENDROOT
BRANCH   3  11
ATOM     11  C   UNL     1      46.618  42.763  71.242  0.00  0.00    +0.000 A 
ATOM     12  C   UNL     1      46.483  42.160  72.500  0.00  0.00    +0.000 A 
ATOM     13  C   UNL     1      47.592  41.668  73.185  0.00  0.00    +0.000 A 
ATOM     14  C   UNL     1      48.848  41.771  72.595  0.00  0.00    +0.000 A 
ATOM     15  C   UNL     1      49.016  42.351  71.341  0.00  0.00    +0.000 A 
ATOM     16  C   UNL     1      47.898  42.837  70.670  0.00  0.00    +0.000 A 
BRANCH  14  17
ATOM     17  N   UNL     1      50.007  41.264  73.303  0.00  0.00    +0.000 N 
ATOM     18  O   UNL     1      51.101  41.797  73.071  0.00  0.00    +0.000 OA
ATOM     19  O   UNL     1      49.833  40.328  74.096  0.00  0.00    +0.000 OA
ENDBRANCH  14  17
ENDBRANCH   3  11
BRANCH   2  20
ATOM     20  C   UNL     1      41.894  44.140  71.530  0.00  0.00    +0.000 A 
ATOM     21  C   UNL     1      40.902  43.577  72.339  0.00  0.00    +0.000 A 
ATOM     22  C   UNL     1      39.792  44.314  72.754  0.00  0.00    +0.000 A 
ATOM     23  C   UNL     1      39.655  45.646  72.370  0.00  0.00    +0.000 A 
ATOM     24  C   UNL     1      40.635  46.231  71.575  0.00  0.00    +0.000 A 
ATOM     25  C   UNL     1      41.740  45.485  71.166  0.00  0.00    +0.000 A 
BRANCH  23  26
ATOM     26  O   UNL     1      38.606  46.456  72.723  0.00  0.00    +0.000 OA
BRANCH  26  27
ATOM     27  C   UNL     1      37.754  46.730  71.738  0.00  0.00    +0.000 C 
ATOM     28  C   UNL     1      36.778  47.033  70.595  0.00  0.00    +0.000 C 
ENDBRANCH  26  27
ENDBRANCH  23  26
ENDBRANCH   2  20
BRANCH   3  29
ATOM     29  O   UNL     1      45.834  44.206  69.498  0.00  0.00    +0.000 OA
ATOM     30  H   UNL     1      45.062  44.335  68.923  0.00  0.00    +0.000 HD
ENDBRANCH   3  29
TORSDOF 6
ENDMDL
MODEL 6
REMARK VINA RESULT:      -5.8      5.772      9.945
REMARK  Name = 5109870_Ethoxyphenyl.pdbqt.pdb
REMARK  6 active torsions:
REMARK  status: ('A' for Active; 'I' for Inactive)
REMARK    1  A    between atoms: N_2  and  C_22
REMARK    2  A    between atoms: C_3  and  O_11
REMARK    3  A    between atoms: C_3  and  C_13
REMARK    4  A    between atoms: C_16  and  N_19
REMARK    5  A    between atoms: C_25  and  O_28
REMARK    6  A    between atoms: O_28  and  C_29
REMARK                            x       y       z     vdW  Elec       q    Type
REMARK                         _______ _______ _______ _____ _____    ______ ____
ROOT
ATOM      1  N   UNL     1      52.216  35.748  62.796  0.00  0.00    +0.000 N 
ATOM      2  N   UNL     1      52.790  35.191  60.533  0.00  0.00    +0.000 N 
ATOM      3  C   UNL     1      53.347  34.798  62.921  0.00  0.00    +0.000 C 
ATOM      4  C   UNL     1      51.844  35.784  61.346  0.00  0.00    +0.000 C 
ATOM      5  C   UNL     1      53.689  34.631  61.507  0.00  0.00    +0.000 C 
ATOM      6  C   UNL     1      51.055  35.562  63.665  0.00  0.00    +0.000 C 
ATOM      7  C   UNL     1      50.486  35.962  60.948  0.00  0.00    +0.000 C 
ATOM      8  C   UNL     1      49.531  35.534  63.876  0.00  0.00    +0.000 C 
ATOM      9  C   UNL     1      49.005  35.964  61.358  0.00  0.00    +0.000 C 
ATOM     10  C   UNL     1      48.493  35.741  62.779  0.00  0.00    +0.000 C 
ENDROOT
BRANCH   3  11
ATOM     11  C   UNL     1      54.455  35.363  63.779  0.00  0.00    +0.000 A 
ATOM     12  C   UNL     1      55.213  36.467  63.363  0.00  0.00    +0.000 A 
ATOM     13  C   UNL     1      56.203  37.008  64.179  0.00  0.00    +0.000 A 
ATOM     14  C   UNL     1      56.427  36.444  65.431  0.00  0.00    +0.000 A 
ATOM     15  C   UNL     1      55.683  35.359  65.882  0.00  0.00    +0.000 A 
ATOM     16  C   UNL     1      54.697  34.830  65.055  0.00  0.00    +0.000 A 
BRANCH  14  17
ATOM     17  N   UNL     1      57.458  37.002  66.285  0.00  0.00    +0.000 N 
ATOM     18  O   UNL     1      58.620  37.004  65.856  0.00  0.00    +0.000 OA
ATOM     19  O   UNL     1      57.113  37.442  67.391  0.00  0.00    +0.000 OA
ENDBRANCH  14  17
ENDBRANCH   3  11
BRANCH   2  20
ATOM     20  C   UNL     1      52.762  34.803  59.184  0.00  0.00    +0.000 A 
ATOM     21  C   UNL     1      52.592  33.469  58.800  0.00  0.00    +0.000 A 
ATOM     22  C   UNL     1      52.543  33.096  57.457  0.00  0.00    +0.000 A 
ATOM     23  C   UNL     1      52.654  34.061  56.459  0.00  0.00    +0.000 A 
ATOM     24  C   UNL     1      52.813  35.396  56.817  0.00  0.00    +0.000 A 
ATOM     25  C   UNL     1      52.862  35.758  58.163  0.00  0.00    +0.000 A 
BRANCH  23  26
ATOM     26  O   UNL     1      52.618  33.800  55.113  0.00  0.00    +0.000 OA
BRANCH  26  27
ATOM     27  C   UNL     1      53.618  33.048  54.660  0.00  0.00    +0.000 C 
ATOM     28  C   UNL     1      54.778  32.183  54.153  0.00  0.00    +0.000 C 
ENDBRANCH  26  27
ENDBRANCH  23  26
ENDBRANCH   2  20
BRANCH   3  29
ATOM     29  O   UNL     1      52.957  33.528  63.427  0.00  0.00    +0.000 OA
ATOM     30  H   UNL     1      52.122  33.688  63.897  0.00  0.00    +0.000 HD
ENDBRANCH   3  29
TORSDOF 6
ENDMDL
MODEL 7
REMARK VINA RESULT:      -5.8     26.672     30.889
REMARK  Name = 5109870_Ethoxyphenyl.pdbqt.pdb
REMARK  6 active torsions:
REMARK  status: ('A' for Active; 'I' for Inactive)
REMARK    1  A    between atoms: N_2  and  C_22
REMARK    2  A    between atoms: C_3  and  O_11
REMARK    3  A    between atoms: C_3  and  C_13
REMARK    4  A    between atoms: C_16  and  N_19
REMARK    5  A    between atoms: C_25  and  O_28
REMARK    6  A    between atoms: O_28  and  C_29
REMARK                            x       y       z     vdW  Elec       q    Type
REMARK                         _______ _______ _______ _____ _____    ______ ____
ROOT
ATOM      1  N   UNL     1      59.218  66.332  68.135  0.00  0.00    +0.000 N 
ATOM      2  N   UNL     1      61.413  67.150  67.612  0.00  0.00    +0.000 N 
ATOM      3  C   UNL     1      59.198  66.539  66.667  0.00  0.00    +0.000 C 
ATOM      4  C   UNL     1      60.518  66.887  68.630  0.00  0.00    +0.000 C 
ATOM      5  C   UNL     1      60.598  66.909  66.450  0.00  0.00    +0.000 C 
ATOM      6  C   UNL     1      58.076  66.803  68.918  0.00  0.00    +0.000 C 
ATOM      7  C   UNL     1      60.602  67.506  69.912  0.00  0.00    +0.000 C 
ATOM      8  C   UNL     1      57.503  67.502  70.162  0.00  0.00    +0.000 C 
ATOM      9  C   UNL     1      59.855  68.104  71.115  0.00  0.00    +0.000 C 
ATOM     10  C   UNL     1      58.337  68.139  71.270  0.00  0.00    +0.000 C 
ENDROOT
BRANCH   3  11
ATOM     11  C   UNL     1      58.749  65.296  65.936  0.00  0.00    +0.000 A 
ATOM     12  C   UNL     1      59.294  64.038  66.228  0.00  0.00    +0.000 A 
ATOM     13  C   UNL     1      58.844  62.891  65.580  0.00  0.00    +0.000 A 
ATOM     14  C   UNL     1      57.826  63.005  64.637  0.00  0.00    +0.000 A 
ATOM     15  C   UNL     1      57.252  64.235  64.335  0.00  0.00    +0.000 A 
ATOM     16  C   UNL     1      57.713  65.372  64.992  0.00  0.00    +0.000 A 
BRANCH  14  17
ATOM     17  N   UNL     1      57.353  61.815  63.957  0.00  0.00    +0.000 N 
ATOM     18  O   UNL     1      57.410  61.801  62.720  0.00  0.00    +0.000 OA
ATOM     19  O   UNL     1      56.923  60.886  64.655  0.00  0.00    +0.000 OA
ENDBRANCH  14  17
ENDBRANCH   3  11
BRANCH   2  20
ATOM     20  C   UNL     1      62.621  67.863  67.582  0.00  0.00    +0.000 A 
ATOM     21  C   UNL     1      63.862  67.219  67.540  0.00  0.00    +0.000 A 
ATOM     22  C   UNL     1      65.057  67.938  67.487  0.00  0.00    +0.000 A 
ATOM     23  C   UNL     1      65.035  69.330  67.466  0.00  0.00    +0.000 A 
ATOM     24  C   UNL     1      63.812  69.993  67.495  0.00  0.00    +0.000 A 
ATOM     25  C   UNL     1      62.623  69.265  67.548  0.00  0.00    +0.000 A 
BRANCH  23  26
ATOM     26  O   UNL     1      66.149  70.128  67.414  0.00  0.00    +0.000 OA
BRANCH  26  27
ATOM     27  C   UNL     1      66.065  71.255  68.117  0.00  0.00    +0.000 C 
ATOM     28  C   UNL     1      65.951  72.553  68.925  0.00  0.00    +0.000 C 
ENDBRANCH  26  27
ENDBRANCH  23  26
ENDBRANCH   2  20
BRANCH   3  29
ATOM     29  O   UNL     1      58.392  67.641  66.269  0.00  0.00    +0.000 OA
ATOM     30  H   UNL     1      58.104  67.431  65.366  0.00  0.00    +0.000 HD
ENDBRANCH   3  29
TORSDOF 6
ENDMDL
MODEL 8
REMARK VINA RESULT:      -5.8     45.230     47.930
REMARK  Name = 5109870_Ethoxyphenyl.pdbqt.pdb
REMARK  6 active torsions:
REMARK  status: ('A' for Active; 'I' for Inactive)
REMARK    1  A    between atoms: N_2  and  C_22
REMARK    2  A    between atoms: C_3  and  O_11
REMARK    3  A    between atoms: C_3  and  C_13
REMARK    4  A    between atoms: C_16  and  N_19
REMARK    5  A    between atoms: C_25  and  O_28
REMARK    6  A    between atoms: O_28  and  C_29
REMARK                            x       y       z     vdW  Elec       q    Type
REMARK                         _______ _______ _______ _____ _____    ______ ____
ROOT
ATOM      1  N   UNL     1      78.429  80.436  76.355  0.00  0.00    +0.000 N 
ATOM      2  N   UNL     1      77.585  80.069  78.571  0.00  0.00    +0.000 N 
ATOM      3  C   UNL     1      77.445  79.338  76.201  0.00  0.00    +0.000 C 
ATOM      4  C   UNL     1      78.571  80.685  77.825  0.00  0.00    +0.000 C 
ATOM      5  C   UNL     1      76.913  79.289  77.565  0.00  0.00    +0.000 C 
ATOM      6  C   UNL     1      79.722  80.306  75.685  0.00  0.00    +0.000 C 
ATOM      7  C   UNL     1      79.823  81.083  78.377  0.00  0.00    +0.000 C 
ATOM      8  C   UNL     1      81.254  80.454  75.689  0.00  0.00    +0.000 C 
ATOM      9  C   UNL     1      81.340  81.232  78.177  0.00  0.00    +0.000 C 
ATOM     10  C   UNL     1      82.083  80.919  76.882  0.00  0.00    +0.000 C 
ENDROOT
BRANCH   3  11
ATOM     11  C   UNL     1      76.424  79.651  75.133  0.00  0.00    +0.000 A 
ATOM     12  C   UNL     1      76.624  80.687  74.210  0.00  0.00    +0.000 A 
ATOM     13  C   UNL     1      75.699  80.942  73.202  0.00  0.00    +0.000 A 
ATOM     14  C   UNL     1      74.565  80.140  73.110  0.00  0.00    +0.000 A 
ATOM     15  C   UNL     1      74.341  79.094  74.000  0.00  0.00    +0.000 A 
ATOM     16  C   UNL     1      75.277  78.853  75.002  0.00  0.00    +0.000 A 
BRANCH  14  17
ATOM     17  N   UNL     1      73.595  80.400  72.064  0.00  0.00    +0.000 N 
ATOM     18  O   UNL     1      72.438  80.675  72.410  0.00  0.00    +0.000 OA
ATOM     19  O   UNL     1      73.984  80.333  70.890  0.00  0.00    +0.000 OA
ENDBRANCH  14  17
ENDBRANCH   3  11
BRANCH   2  20
ATOM     20  C   UNL     1      77.452  79.844  79.950  0.00  0.00    +0.000 A 
ATOM     21  C   UNL     1      76.872  80.788  80.804  0.00  0.00    +0.000 A 
ATOM     22  C   UNL     1      76.723  80.544  82.169  0.00  0.00    +0.000 A 
ATOM     23  C   UNL     1      77.148  79.335  82.714  0.00  0.00    +0.000 A 
ATOM     24  C   UNL     1      77.717  78.376  81.883  0.00  0.00    +0.000 A 
ATOM     25  C   UNL     1      77.861  78.630  80.519  0.00  0.00    +0.000 A 
BRANCH  23  26
ATOM     26  O   UNL     1      77.047  78.997  84.039  0.00  0.00    +0.000 OA
BRANCH  26  27
ATOM     27  C   UNL     1      76.004  79.527  84.675  0.00  0.00    +0.000 C 
ATOM     28  C   UNL     1      74.803  80.124  85.417  0.00  0.00    +0.000 C 
ENDBRANCH  26  27
ENDBRANCH  23  26
ENDBRANCH   2  20
BRANCH   3  29
ATOM     29  O   UNL     1      78.049  78.080  75.926  0.00  0.00    +0.000 OA
ATOM     30  H   UNL     1      78.045  77.606  76.774  0.00  0.00    +0.000 HD
ENDBRANCH   3  29
TORSDOF 6
ENDMDL
MODEL 9
REMARK VINA RESULT:      -5.7     10.227     12.949
REMARK  Name = 5109870_Ethoxyphenyl.pdbqt.pdb
REMARK  6 active torsions:
REMARK  status: ('A' for Active; 'I' for Inactive)
REMARK    1  A    between atoms: N_2  and  C_22
REMARK    2  A    between atoms: C_3  and  O_11
REMARK    3  A    between atoms: C_3  and  C_13
REMARK    4  A    between atoms: C_16  and  N_19
REMARK    5  A    between atoms: C_25  and  O_28
REMARK    6  A    between atoms: O_28  and  C_29
REMARK                            x       y       z     vdW  Elec       q    Type
REMARK                         _______ _______ _______ _____ _____    ______ ____
ROOT
ATOM      1  N   UNL     1      71.884  43.629  63.329  0.00  0.00    +0.000 N 
ATOM      2  N   UNL     1      71.491  41.261  63.289  0.00  0.00    +0.000 N 
ATOM      3  C   UNL     1      70.899  43.396  64.413  0.00  0.00    +0.000 C 
ATOM      4  C   UNL     1      72.042  42.327  62.605  0.00  0.00    +0.000 C 
ATOM      5  C   UNL     1      70.835  41.933  64.380  0.00  0.00    +0.000 C 
ATOM      6  C   UNL     1      71.659  44.749  62.417  0.00  0.00    +0.000 C 
ATOM      7  C   UNL     1      72.283  42.302  61.200  0.00  0.00    +0.000 C 
ATOM      8  C   UNL     1      71.652  45.339  60.996  0.00  0.00    +0.000 C 
ATOM      9  C   UNL     1      72.289  43.074  59.871  0.00  0.00    +0.000 C 
ATOM     10  C   UNL     1      71.970  44.559  59.725  0.00  0.00    +0.000 C 
ENDROOT
BRANCH   3  11
ATOM     11  C   UNL     1      71.368  43.981  65.724  0.00  0.00    +0.000 A 
ATOM     12  C   UNL     1      72.327  45.003  65.769  0.00  0.00    +0.000 A 
ATOM     13  C   UNL     1      72.722  45.566  66.980  0.00  0.00    +0.000 A 
ATOM     14  C   UNL     1      72.139  45.108  68.158  0.00  0.00    +0.000 A 
ATOM     15  C   UNL     1      71.174  44.106  68.149  0.00  0.00    +0.000 A 
ATOM     16  C   UNL     1      70.790  43.554  66.930  0.00  0.00    +0.000 A 
BRANCH  14  17
ATOM     17  N   UNL     1      72.546  45.689  69.422  0.00  0.00    +0.000 N 
ATOM     18  O   UNL     1      72.941  46.863  69.414  0.00  0.00    +0.000 OA
ATOM     19  O   UNL     1      72.474  44.976  70.433  0.00  0.00    +0.000 OA
ENDBRANCH  14  17
ENDBRANCH   3  11
BRANCH   2  20
ATOM     20  C   UNL     1      71.210  39.941  62.906  0.00  0.00    +0.000 A 
ATOM     21  C   UNL     1      72.198  38.952  62.870  0.00  0.00    +0.000 A 
ATOM     22  C   UNL     1      71.903  37.637  62.509  0.00  0.00    +0.000 A 
ATOM     23  C   UNL     1      70.598  37.277  62.181  0.00  0.00    +0.000 A 
ATOM     24  C   UNL     1      69.596  38.242  62.220  0.00  0.00    +0.000 A 
ATOM     25  C   UNL     1      69.902  39.554  62.582  0.00  0.00    +0.000 A 
BRANCH  23  26
ATOM     26  O   UNL     1      70.204  36.016  61.815  0.00  0.00    +0.000 OA
BRANCH  26  27
ATOM     27  C   UNL     1      69.551  35.338  62.756  0.00  0.00    +0.000 C 
ATOM     28  C   UNL     1      68.785  34.566  63.837  0.00  0.00    +0.000 C 
ENDBRANCH  26  27
ENDBRANCH  23  26
ENDBRANCH   2  20
BRANCH   3  29
ATOM     29  O   UNL     1      69.603  43.895  64.107  0.00  0.00    +0.000 OA
ATOM     30  H   UNL     1      69.680  44.860  64.181  0.00  0.00    +0.000 HD
ENDBRANCH   3  29
TORSDOF 6
ENDMDL
