MODEL 1
REMARK VINA RESULT:      -5.8      0.000      0.000
REMARK  Name = 5280445_Luteolin.pdbqt.pdb
REMARK  5 active torsions:
REMARK  status: ('A' for Active; 'I' for Inactive)
REMARK    1  A    between atoms: C_5  and  C_12
REMARK    2  A    between atoms: C_8  and  O_22
REMARK    3  A    between atoms: C_10  and  O_24
REMARK    4  A    between atoms: C_15  and  O_18
REMARK    5  A    between atoms: C_17  and  O_20
REMARK                            x       y       z     vdW  Elec       q    Type
REMARK                         _______ _______ _______ _____ _____    ______ ____
ROOT
ATOM      1  O   UNL     1      63.110  37.668  67.911  0.00  0.00    +0.000 OA
ATOM      2  O   UNL     1      60.970  41.179  68.021  0.00  0.00    +0.000 OA
ATOM      3  C   UNL     1      62.948  40.014  68.727  0.00  0.00    +0.000 A 
ATOM      4  C   UNL     1      63.605  38.762  68.626  0.00  0.00    +0.000 A 
ATOM      5  C   UNL     1      61.886  37.793  67.243  0.00  0.00    +0.000 A 
ATOM      6  C   UNL     1      61.656  40.173  68.032  0.00  0.00    +0.000 A 
ATOM      7  C   UNL     1      61.341  38.956  67.375  0.00  0.00    +0.000 A 
ATOM      8  C   UNL     1      63.512  41.056  69.461  0.00  0.00    +0.000 A 
ATOM      9  C   UNL     1      64.825  38.574  69.267  0.00  0.00    +0.000 A 
ATOM     10  C   UNL     1      65.376  39.625  69.997  0.00  0.00    +0.000 A 
ATOM     11  C   UNL     1      64.733  40.860  70.100  0.00  0.00    +0.000 A 
ENDROOT
BRANCH   5  12
ATOM     12  C   UNL     1      61.373  36.651  66.498  0.00  0.00    +0.000 A 
ATOM     13  C   UNL     1      60.017  36.571  66.170  0.00  0.00    +0.000 A 
ATOM     14  C   UNL     1      62.228  35.615  66.098  0.00  0.00    +0.000 A 
ATOM     15  C   UNL     1      59.538  35.478  65.461  0.00  0.00    +0.000 A 
ATOM     16  C   UNL     1      61.748  34.516  65.386  0.00  0.00    +0.000 A 
ATOM     17  C   UNL     1      60.397  34.457  65.070  0.00  0.00    +0.000 A 
BRANCH  15  18
ATOM     18  O   UNL     1      58.211  35.413  65.146  0.00  0.00    +0.000 OA
ATOM     19  H   UNL     1      57.746  35.376  66.006  0.00  0.00    +0.000 HD
ENDBRANCH  15  18
BRANCH  17  20
ATOM     20  O   UNL     1      59.876  33.401  64.372  0.00  0.00    +0.000 OA
ATOM     21  H   UNL     1      60.346  32.597  64.659  0.00  0.00    +0.000 HD
ENDBRANCH  17  20
ENDBRANCH   5  12
BRANCH   8  22
ATOM     22  O   UNL     1      62.926  42.284  69.595  0.00  0.00    +0.000 OA
ATOM     23  H   UNL     1      63.532  42.977  69.253  0.00  0.00    +0.000 HD
ENDBRANCH   8  22
BRANCH  10  24
ATOM     24  O   UNL     1      66.574  39.419  70.619  0.00  0.00    +0.000 OA
ATOM     25  H   UNL     1      66.612  39.992  71.406  0.00  0.00    +0.000 HD
ENDBRANCH  10  24
TORSDOF 5
ENDMDL
MODEL 2
REMARK VINA RESULT:      -5.7     13.804     15.878
REMARK  Name = 5280445_Luteolin.pdbqt.pdb
REMARK  5 active torsions:
REMARK  status: ('A' for Active; 'I' for Inactive)
REMARK    1  A    between atoms: C_5  and  C_12
REMARK    2  A    between atoms: C_8  and  O_22
REMARK    3  A    between atoms: C_10  and  O_24
REMARK    4  A    between atoms: C_15  and  O_18
REMARK    5  A    between atoms: C_17  and  O_20
REMARK                            x       y       z     vdW  Elec       q    Type
REMARK                         _______ _______ _______ _____ _____    ______ ____
ROOT
ATOM      1  O   UNL     1      49.665  34.356  59.862  0.00  0.00    +0.000 OA
ATOM      2  O   UNL     1      52.925  36.551  58.650  0.00  0.00    +0.000 OA
ATOM      3  C   UNL     1      51.567  34.606  58.277  0.00  0.00    +0.000 A 
ATOM      4  C   UNL     1      50.429  33.925  58.774  0.00  0.00    +0.000 A 
ATOM      5  C   UNL     1      50.032  35.535  60.521  0.00  0.00    +0.000 A 
ATOM      6  C   UNL     1      51.975  35.852  58.953  0.00  0.00    +0.000 A 
ATOM      7  C   UNL     1      51.076  36.106  60.019  0.00  0.00    +0.000 A 
ATOM      8  C   UNL     1      52.274  34.108  57.183  0.00  0.00    +0.000 A 
ATOM      9  C   UNL     1      50.013  32.747  58.162  0.00  0.00    +0.000 A 
ATOM     10  C   UNL     1      50.729  32.261  57.070  0.00  0.00    +0.000 A 
ATOM     11  C   UNL     1      51.852  32.928  56.577  0.00  0.00    +0.000 A 
ENDROOT
BRANCH   5  12
ATOM     12  C   UNL     1      49.234  35.982  61.655  0.00  0.00    +0.000 A 
ATOM     13  C   UNL     1      47.948  36.493  61.458  0.00  0.00    +0.000 A 
ATOM     14  C   UNL     1      49.739  35.907  62.960  0.00  0.00    +0.000 A 
ATOM     15  C   UNL     1      47.195  36.917  62.546  0.00  0.00    +0.000 A 
ATOM     16  C   UNL     1      48.984  36.332  64.053  0.00  0.00    +0.000 A 
ATOM     17  C   UNL     1      47.709  36.837  63.835  0.00  0.00    +0.000 A 
BRANCH  15  18
ATOM     18  O   UNL     1      45.941  37.414  62.339  0.00  0.00    +0.000 OA
ATOM     19  H   UNL     1      46.015  38.375  62.510  0.00  0.00    +0.000 HD
ENDBRANCH  15  18
BRANCH  17  20
ATOM     20  O   UNL     1      46.928  37.267  64.873  0.00  0.00    +0.000 OA
ATOM     21  H   UNL     1      47.420  37.107  65.699  0.00  0.00    +0.000 HD
ENDBRANCH  17  20
ENDBRANCH   5  12
BRANCH   8  22
ATOM     22  O   UNL     1      53.379  34.719  56.660  0.00  0.00    +0.000 OA
ATOM     23  H   UNL     1      53.873  35.174  57.377  0.00  0.00    +0.000 HD
ENDBRANCH   8  22
BRANCH  10  24
ATOM     24  O   UNL     1      50.304  31.102  56.485  0.00  0.00    +0.000 OA
ATOM     25  H   UNL     1      50.719  31.034  55.607  0.00  0.00    +0.000 HD
ENDBRANCH  10  24
TORSDOF 5
ENDMDL
MODEL 3
REMARK VINA RESULT:      -5.6      2.682      4.205
REMARK  Name = 5280445_Luteolin.pdbqt.pdb
REMARK  5 active torsions:
REMARK  status: ('A' for Active; 'I' for Inactive)
REMARK    1  A    between atoms: C_5  and  C_12
REMARK    2  A    between atoms: C_8  and  O_22
REMARK    3  A    between atoms: C_10  and  O_24
REMARK    4  A    between atoms: C_15  and  O_18
REMARK    5  A    between atoms: C_17  and  O_20
REMARK                            x       y       z     vdW  Elec       q    Type
REMARK                         _______ _______ _______ _____ _____    ______ ____
ROOT
ATOM      1  O   UNL     1      58.765  37.985  67.309  0.00  0.00    +0.000 OA
ATOM      2  O   UNL     1      62.523  37.698  65.661  0.00  0.00    +0.000 OA
ATOM      3  C   UNL     1      61.184  38.552  67.462  0.00  0.00    +0.000 A 
ATOM      4  C   UNL     1      59.852  38.591  67.945  0.00  0.00    +0.000 A 
ATOM      5  C   UNL     1      58.983  37.288  66.114  0.00  0.00    +0.000 A 
ATOM      6  C   UNL     1      61.441  37.824  66.205  0.00  0.00    +0.000 A 
ATOM      7  C   UNL     1      60.215  37.291  65.730  0.00  0.00    +0.000 A 
ATOM      8  C   UNL     1      62.212  39.184  68.160  0.00  0.00    +0.000 A 
ATOM      9  C   UNL     1      59.570  39.267  69.127  0.00  0.00    +0.000 A 
ATOM     10  C   UNL     1      60.609  39.895  69.813  0.00  0.00    +0.000 A 
ATOM     11  C   UNL     1      61.922  39.859  69.342  0.00  0.00    +0.000 A 
ENDROOT
BRANCH   5  12
ATOM     12  C   UNL     1      57.848  36.657  65.453  0.00  0.00    +0.000 A 
ATOM     13  C   UNL     1      56.815  36.093  66.207  0.00  0.00    +0.000 A 
ATOM     14  C   UNL     1      57.771  36.605  64.055  0.00  0.00    +0.000 A 
ATOM     15  C   UNL     1      55.738  35.493  65.568  0.00  0.00    +0.000 A 
ATOM     16  C   UNL     1      56.690  36.003  63.412  0.00  0.00    +0.000 A 
ATOM     17  C   UNL     1      55.674  35.448  64.180  0.00  0.00    +0.000 A 
BRANCH  15  18
ATOM     18  O   UNL     1      54.735  34.945  66.316  0.00  0.00    +0.000 OA
ATOM     19  H   UNL     1      55.153  34.708  67.168  0.00  0.00    +0.000 HD
ENDBRANCH  15  18
BRANCH  17  20
ATOM     20  O   UNL     1      54.592  34.846  63.598  0.00  0.00    +0.000 OA
ATOM     21  H   UNL     1      54.663  33.888  63.761  0.00  0.00    +0.000 HD
ENDBRANCH  17  20
ENDBRANCH   5  12
BRANCH   8  22
ATOM     22  O   UNL     1      63.515  39.181  67.744  0.00  0.00    +0.000 OA
ATOM     23  H   UNL     1      63.652  38.455  67.098  0.00  0.00    +0.000 HD
ENDBRANCH   8  22
BRANCH  10  24
ATOM     24  O   UNL     1      60.310  40.553  70.971  0.00  0.00    +0.000 OA
ATOM     25  H   UNL     1      60.692  40.053  71.714  0.00  0.00    +0.000 HD
ENDBRANCH  10  24
TORSDOF 5
ENDMDL
MODEL 4
REMARK VINA RESULT:      -5.5      9.957     13.157
REMARK  Name = 5280445_Luteolin.pdbqt.pdb
REMARK  5 active torsions:
REMARK  status: ('A' for Active; 'I' for Inactive)
REMARK    1  A    between atoms: C_5  and  C_12
REMARK    2  A    between atoms: C_8  and  O_22
REMARK    3  A    between atoms: C_10  and  O_24
REMARK    4  A    between atoms: C_15  and  O_18
REMARK    5  A    between atoms: C_17  and  O_20
REMARK                            x       y       z     vdW  Elec       q    Type
REMARK                         _______ _______ _______ _____ _____    ______ ____
ROOT
ATOM      1  O   UNL     1      50.731  36.093  63.124  0.00  0.00    +0.000 OA
ATOM      2  O   UNL     1      50.986  38.118  66.695  0.00  0.00    +0.000 OA
ATOM      3  C   UNL     1      52.177  36.993  64.939  0.00  0.00    +0.000 A 
ATOM      4  C   UNL     1      51.980  36.309  63.714  0.00  0.00    +0.000 A 
ATOM      5  C   UNL     1      49.586  36.575  63.769  0.00  0.00    +0.000 A 
ATOM      6  C   UNL     1      50.986  37.512  65.639  0.00  0.00    +0.000 A 
ATOM      7  C   UNL     1      49.835  37.188  64.878  0.00  0.00    +0.000 A 
ATOM      8  C   UNL     1      53.459  37.167  65.459  0.00  0.00    +0.000 A 
ATOM      9  C   UNL     1      53.078  35.806  63.025  0.00  0.00    +0.000 A 
ATOM     10  C   UNL     1      54.353  35.987  63.557  0.00  0.00    +0.000 A 
ATOM     11  C   UNL     1      54.553  36.660  64.764  0.00  0.00    +0.000 A 
ENDROOT
BRANCH   5  12
ATOM     12  C   UNL     1      48.286  36.349  63.151  0.00  0.00    +0.000 A 
ATOM     13  C   UNL     1      47.748  37.291  62.269  0.00  0.00    +0.000 A 
ATOM     14  C   UNL     1      47.554  35.187  63.429  0.00  0.00    +0.000 A 
ATOM     15  C   UNL     1      46.508  37.066  61.686  0.00  0.00    +0.000 A 
ATOM     16  C   UNL     1      46.308  34.960  62.844  0.00  0.00    +0.000 A 
ATOM     17  C   UNL     1      45.792  35.908  61.970  0.00  0.00    +0.000 A 
BRANCH  15  18
ATOM     18  O   UNL     1      45.995  37.994  60.825  0.00  0.00    +0.000 OA
ATOM     19  H   UNL     1      45.256  38.411  61.311  0.00  0.00    +0.000 HD
ENDBRANCH  15  18
BRANCH  17  20
ATOM     20  O   UNL     1      44.575  35.734  61.370  0.00  0.00    +0.000 OA
ATOM     21  H   UNL     1      44.359  34.784  61.409  0.00  0.00    +0.000 HD
ENDBRANCH  17  20
ENDBRANCH   5  12
BRANCH   8  22
ATOM     22  O   UNL     1      53.712  37.816  66.635  0.00  0.00    +0.000 OA
ATOM     23  H   UNL     1      54.178  38.661  66.451  0.00  0.00    +0.000 HD
ENDBRANCH   8  22
BRANCH  10  24
ATOM     24  O   UNL     1      55.417  35.485  62.864  0.00  0.00    +0.000 OA
ATOM     25  H   UNL     1      55.577  36.057  62.093  0.00  0.00    +0.000 HD
ENDBRANCH  10  24
TORSDOF 5
ENDMDL
MODEL 5
REMARK VINA RESULT:      -5.4     24.658     27.022
REMARK  Name = 5280445_Luteolin.pdbqt.pdb
REMARK  5 active torsions:
REMARK  status: ('A' for Active; 'I' for Inactive)
REMARK    1  A    between atoms: C_5  and  C_12
REMARK    2  A    between atoms: C_8  and  O_22
REMARK    3  A    between atoms: C_10  and  O_24
REMARK    4  A    between atoms: C_15  and  O_18
REMARK    5  A    between atoms: C_17  and  O_20
REMARK                            x       y       z     vdW  Elec       q    Type
REMARK                         _______ _______ _______ _____ _____    ______ ____
ROOT
ATOM      1  O   UNL     1      56.386  63.400  67.241  0.00  0.00    +0.000 OA
ATOM      2  O   UNL     1      57.793  62.605  63.459  0.00  0.00    +0.000 OA
ATOM      3  C   UNL     1      56.061  62.217  65.076  0.00  0.00    +0.000 A 
ATOM      4  C   UNL     1      55.665  62.554  66.394  0.00  0.00    +0.000 A 
ATOM      5  C   UNL     1      57.582  63.961  66.779  0.00  0.00    +0.000 A 
ATOM      6  C   UNL     1      57.318  62.795  64.564  0.00  0.00    +0.000 A 
ATOM      7  C   UNL     1      57.885  63.615  65.572  0.00  0.00    +0.000 A 
ATOM      8  C   UNL     1      55.281  61.365  64.295  0.00  0.00    +0.000 A 
ATOM      9  C   UNL     1      54.486  62.029  66.912  0.00  0.00    +0.000 A 
ATOM     10  C   UNL     1      53.717  61.178  66.120  0.00  0.00    +0.000 A 
ATOM     11  C   UNL     1      54.103  60.842  64.821  0.00  0.00    +0.000 A 
ENDROOT
BRANCH   5  12
ATOM     12  C   UNL     1      58.332  64.843  67.664  0.00  0.00    +0.000 A 
ATOM     13  C   UNL     1      59.493  64.390  68.297  0.00  0.00    +0.000 A 
ATOM     14  C   UNL     1      57.904  66.157  67.896  0.00  0.00    +0.000 A 
ATOM     15  C   UNL     1      60.200  65.238  69.140  0.00  0.00    +0.000 A 
ATOM     16  C   UNL     1      58.614  67.010  68.742  0.00  0.00    +0.000 A 
ATOM     17  C   UNL     1      59.764  66.540  69.361  0.00  0.00    +0.000 A 
BRANCH  15  18
ATOM     18  O   UNL     1      61.332  64.782  69.751  0.00  0.00    +0.000 OA
ATOM     19  H   UNL     1      62.057  64.977  69.124  0.00  0.00    +0.000 HD
ENDBRANCH  15  18
BRANCH  17  20
ATOM     20  O   UNL     1      60.496  67.336  70.200  0.00  0.00    +0.000 OA
ATOM     21  H   UNL     1      61.033  66.753  70.766  0.00  0.00    +0.000 HD
ENDBRANCH  17  20
ENDBRANCH   5  12
BRANCH   8  22
ATOM     22  O   UNL     1      55.611  61.003  63.019  0.00  0.00    +0.000 OA
ATOM     23  H   UNL     1      54.958  61.381  62.390  0.00  0.00    +0.000 HD
ENDBRANCH   8  22
BRANCH  10  24
ATOM     24  O   UNL     1      52.564  60.673  66.648  0.00  0.00    +0.000 OA
ATOM     25  H   UNL     1      52.749  60.376  67.557  0.00  0.00    +0.000 HD
ENDBRANCH  10  24
TORSDOF 5
ENDMDL
MODEL 6
REMARK VINA RESULT:      -5.2     10.589     11.401
REMARK  Name = 5280445_Luteolin.pdbqt.pdb
REMARK  5 active torsions:
REMARK  status: ('A' for Active; 'I' for Inactive)
REMARK    1  A    between atoms: C_5  and  C_12
REMARK    2  A    between atoms: C_8  and  O_22
REMARK    3  A    between atoms: C_10  and  O_24
REMARK    4  A    between atoms: C_15  and  O_18
REMARK    5  A    between atoms: C_17  and  O_20
REMARK                            x       y       z     vdW  Elec       q    Type
REMARK                         _______ _______ _______ _____ _____    ______ ____
ROOT
ATOM      1  O   UNL     1      71.536  39.492  60.854  0.00  0.00    +0.000 OA
ATOM      2  O   UNL     1      70.218  43.262  61.842  0.00  0.00    +0.000 OA
ATOM      3  C   UNL     1      71.707  41.949  60.491  0.00  0.00    +0.000 A 
ATOM      4  C   UNL     1      72.090  40.610  60.225  0.00  0.00    +0.000 A 
ATOM      5  C   UNL     1      70.537  39.684  61.816  0.00  0.00    +0.000 A 
ATOM      6  C   UNL     1      70.656  42.178  61.500  0.00  0.00    +0.000 A 
ATOM      7  C   UNL     1      70.235  40.924  62.011  0.00  0.00    +0.000 A 
ATOM      8  C   UNL     1      72.311  43.009  59.815  0.00  0.00    +0.000 A 
ATOM      9  C   UNL     1      73.077  40.354  59.279  0.00  0.00    +0.000 A 
ATOM     10  C   UNL     1      73.671  41.424  58.612  0.00  0.00    +0.000 A 
ATOM     11  C   UNL     1      73.298  42.744  58.872  0.00  0.00    +0.000 A 
ENDROOT
BRANCH   5  12
ATOM     12  C   UNL     1      69.961  38.516  62.471  0.00  0.00    +0.000 A 
ATOM     13  C   UNL     1      68.984  38.669  63.459  0.00  0.00    +0.000 A 
ATOM     14  C   UNL     1      70.374  37.223  62.122  0.00  0.00    +0.000 A 
ATOM     15  C   UNL     1      68.443  37.549  64.078  0.00  0.00    +0.000 A 
ATOM     16  C   UNL     1      69.831  36.098  62.743  0.00  0.00    +0.000 A 
ATOM     17  C   UNL     1      68.861  36.272  63.722  0.00  0.00    +0.000 A 
BRANCH  15  18
ATOM     18  O   UNL     1      67.489  37.713  65.041  0.00  0.00    +0.000 OA
ATOM     19  H   UNL     1      66.686  37.285  64.682  0.00  0.00    +0.000 HD
ENDBRANCH  15  18
BRANCH  17  20
ATOM     20  O   UNL     1      68.297  35.202  64.361  0.00  0.00    +0.000 OA
ATOM     21  H   UNL     1      68.998  34.542  64.508  0.00  0.00    +0.000 HD
ENDBRANCH  17  20
ENDBRANCH   5  12
BRANCH   8  22
ATOM     22  O   UNL     1      71.985  44.319  60.030  0.00  0.00    +0.000 OA
ATOM     23  H   UNL     1      72.036  44.518  60.990  0.00  0.00    +0.000 HD
ENDBRANCH   8  22
BRANCH  10  24
ATOM     24  O   UNL     1      74.639  41.150  57.689  0.00  0.00    +0.000 OA
ATOM     25  H   UNL     1      74.797  40.189  57.689  0.00  0.00    +0.000 HD
ENDBRANCH  10  24
TORSDOF 5
ENDMDL
MODEL 7
REMARK VINA RESULT:      -5.1      9.554     11.450
REMARK  Name = 5280445_Luteolin.pdbqt.pdb
REMARK  5 active torsions:
REMARK  status: ('A' for Active; 'I' for Inactive)
REMARK    1  A    between atoms: C_5  and  C_12
REMARK    2  A    between atoms: C_8  and  O_22
REMARK    3  A    between atoms: C_10  and  O_24
REMARK    4  A    between atoms: C_15  and  O_18
REMARK    5  A    between atoms: C_17  and  O_20
REMARK                            x       y       z     vdW  Elec       q    Type
REMARK                         _______ _______ _______ _____ _____    ______ ____
ROOT
ATOM      1  O   UNL     1      70.998  41.060  63.629  0.00  0.00    +0.000 OA
ATOM      2  O   UNL     1      68.916  37.785  62.266  0.00  0.00    +0.000 OA
ATOM      3  C   UNL     1      69.839  38.924  64.167  0.00  0.00    +0.000 A 
ATOM      4  C   UNL     1      70.562  40.086  64.532  0.00  0.00    +0.000 A 
ATOM      5  C   UNL     1      70.713  40.895  62.268  0.00  0.00    +0.000 A 
ATOM      6  C   UNL     1      69.526  38.726  62.739  0.00  0.00    +0.000 A 
ATOM      7  C   UNL     1      70.053  39.817  62.003  0.00  0.00    +0.000 A 
ATOM      8  C   UNL     1      69.440  38.002  65.134  0.00  0.00    +0.000 A 
ATOM      9  C   UNL     1      70.876  40.308  65.869  0.00  0.00    +0.000 A 
ATOM     10  C   UNL     1      70.470  39.377  66.824  0.00  0.00    +0.000 A 
ATOM     11  C   UNL     1      69.758  38.230  66.469  0.00  0.00    +0.000 A 
ENDROOT
BRANCH   5  12
ATOM     12  C   UNL     1      71.169  41.911  61.328  0.00  0.00    +0.000 A 
ATOM     13  C   UNL     1      70.688  43.221  61.414  0.00  0.00    +0.000 A 
ATOM     14  C   UNL     1      72.095  41.595  60.325  0.00  0.00    +0.000 A 
ATOM     15  C   UNL     1      71.128  44.182  60.513  0.00  0.00    +0.000 A 
ATOM     16  C   UNL     1      72.537  42.559  59.419  0.00  0.00    +0.000 A 
ATOM     17  C   UNL     1      72.047  43.854  59.522  0.00  0.00    +0.000 A 
BRANCH  15  18
ATOM     18  O   UNL     1      70.650  45.457  60.609  0.00  0.00    +0.000 OA
ATOM     19  H   UNL     1      71.388  46.029  60.316  0.00  0.00    +0.000 HD
ENDBRANCH  15  18
BRANCH  17  20
ATOM     20  O   UNL     1      72.449  44.837  58.659  0.00  0.00    +0.000 OA
ATOM     21  H   UNL     1      71.779  44.905  57.955  0.00  0.00    +0.000 HD
ENDBRANCH  17  20
ENDBRANCH   5  12
BRANCH   8  22
ATOM     22  O   UNL     1      68.742  36.863  64.843  0.00  0.00    +0.000 OA
ATOM     23  H   UNL     1      68.760  36.259  65.618  0.00  0.00    +0.000 HD
ENDBRANCH   8  22
BRANCH  10  24
ATOM     24  O   UNL     1      70.790  39.614  68.130  0.00  0.00    +0.000 OA
ATOM     25  H   UNL     1      70.711  38.776  68.620  0.00  0.00    +0.000 HD
ENDBRANCH  10  24
TORSDOF 5
ENDMDL
MODEL 8
REMARK VINA RESULT:      -4.9     27.685     30.306
REMARK  Name = 5280445_Luteolin.pdbqt.pdb
REMARK  5 active torsions:
REMARK  status: ('A' for Active; 'I' for Inactive)
REMARK    1  A    between atoms: C_5  and  C_12
REMARK    2  A    between atoms: C_8  and  O_22
REMARK    3  A    between atoms: C_10  and  O_24
REMARK    4  A    between atoms: C_15  and  O_18
REMARK    5  A    between atoms: C_17  and  O_20
REMARK                            x       y       z     vdW  Elec       q    Type
REMARK                         _______ _______ _______ _____ _____    ______ ____
ROOT
ATOM      1  O   UNL     1      60.690  68.483  69.084  0.00  0.00    +0.000 OA
ATOM      2  O   UNL     1      59.839  64.463  68.897  0.00  0.00    +0.000 OA
ATOM      3  C   UNL     1      59.076  66.646  69.544  0.00  0.00    +0.000 A 
ATOM      4  C   UNL     1      59.466  68.008  69.563  0.00  0.00    +0.000 A 
ATOM      5  C   UNL     1      61.607  67.570  68.548  0.00  0.00    +0.000 A 
ATOM      6  C   UNL     1      60.023  65.663  68.984  0.00  0.00    +0.000 A 
ATOM      7  C   UNL     1      61.190  66.349  68.561  0.00  0.00    +0.000 A 
ATOM      8  C   UNL     1      57.833  66.255  70.042  0.00  0.00    +0.000 A 
ATOM      9  C   UNL     1      58.600  68.963  70.082  0.00  0.00    +0.000 A 
ATOM     10  C   UNL     1      57.361  68.558  70.576  0.00  0.00    +0.000 A 
ATOM     11  C   UNL     1      56.972  67.217  70.561  0.00  0.00    +0.000 A 
ENDROOT
BRANCH   5  12
ATOM     12  C   UNL     1      62.883  68.069  68.049  0.00  0.00    +0.000 A 
ATOM     13  C   UNL     1      63.941  67.188  67.808  0.00  0.00    +0.000 A 
ATOM     14  C   UNL     1      63.070  69.436  67.802  0.00  0.00    +0.000 A 
ATOM     15  C   UNL     1      65.153  67.673  67.334  0.00  0.00    +0.000 A 
ATOM     16  C   UNL     1      64.287  69.924  67.325  0.00  0.00    +0.000 A 
ATOM     17  C   UNL     1      65.325  69.032  67.093  0.00  0.00    +0.000 A 
BRANCH  15  18
ATOM     18  O   UNL     1      66.178  66.802  67.102  0.00  0.00    +0.000 OA
ATOM     19  H   UNL     1      66.869  67.333  66.657  0.00  0.00    +0.000 HD
ENDBRANCH  15  18
BRANCH  17  20
ATOM     20  O   UNL     1      66.538  69.460  66.625  0.00  0.00    +0.000 OA
ATOM     21  H   UNL     1      66.395  70.305  66.163  0.00  0.00    +0.000 HD
ENDBRANCH  17  20
ENDBRANCH   5  12
BRANCH   8  22
ATOM     22  O   UNL     1      57.401  64.958  70.052  0.00  0.00    +0.000 OA
ATOM     23  H   UNL     1      57.464  64.584  69.146  0.00  0.00    +0.000 HD
ENDBRANCH   8  22
BRANCH  10  24
ATOM     24  O   UNL     1      56.526  69.512  71.083  0.00  0.00    +0.000 OA
ATOM     25  H   UNL     1      57.049  70.316  71.252  0.00  0.00    +0.000 HD
ENDBRANCH  10  24
TORSDOF 5
ENDMDL
MODEL 9
REMARK VINA RESULT:      -4.9      8.897     10.228
REMARK  Name = 5280445_Luteolin.pdbqt.pdb
REMARK  5 active torsions:
REMARK  status: ('A' for Active; 'I' for Inactive)
REMARK    1  A    between atoms: C_5  and  C_12
REMARK    2  A    between atoms: C_8  and  O_22
REMARK    3  A    between atoms: C_10  and  O_24
REMARK    4  A    between atoms: C_15  and  O_18
REMARK    5  A    between atoms: C_17  and  O_20
REMARK                            x       y       z     vdW  Elec       q    Type
REMARK                         _______ _______ _______ _____ _____    ______ ____
ROOT
ATOM      1  O   UNL     1      70.878  41.789  63.750  0.00  0.00    +0.000 OA
ATOM      2  O   UNL     1      70.988  41.046  67.794  0.00  0.00    +0.000 OA
ATOM      3  C   UNL     1      71.110  42.698  66.055  0.00  0.00    +0.000 A 
ATOM      4  C   UNL     1      71.058  42.845  64.647  0.00  0.00    +0.000 A 
ATOM      5  C   UNL     1      70.739  40.490  64.254  0.00  0.00    +0.000 A 
ATOM      6  C   UNL     1      70.966  41.339  66.612  0.00  0.00    +0.000 A 
ATOM      7  C   UNL     1      70.795  40.425  65.542  0.00  0.00    +0.000 A 
ATOM      8  C   UNL     1      71.292  43.807  66.880  0.00  0.00    +0.000 A 
ATOM      9  C   UNL     1      71.190  44.110  64.084  0.00  0.00    +0.000 A 
ATOM     10  C   UNL     1      71.372  45.209  64.922  0.00  0.00    +0.000 A 
ATOM     11  C   UNL     1      71.424  45.069  66.309  0.00  0.00    +0.000 A 
ENDROOT
BRANCH   5  12
ATOM     12  C   UNL     1      70.551  39.390  63.316  0.00  0.00    +0.000 A 
ATOM     13  C   UNL     1      71.451  39.196  62.265  0.00  0.00    +0.000 A 
ATOM     14  C   UNL     1      69.469  38.511  63.452  0.00  0.00    +0.000 A 
ATOM     15  C   UNL     1      71.262  38.145  61.376  0.00  0.00    +0.000 A 
ATOM     16  C   UNL     1      69.279  37.455  62.560  0.00  0.00    +0.000 A 
ATOM     17  C   UNL     1      70.184  37.279  61.522  0.00  0.00    +0.000 A 
BRANCH  15  18
ATOM     18  O   UNL     1      72.150  37.966  60.353  0.00  0.00    +0.000 OA
ATOM     19  H   UNL     1      72.089  37.016  60.127  0.00  0.00    +0.000 HD
ENDBRANCH  15  18
BRANCH  17  20
ATOM     20  O   UNL     1      70.043  36.260  60.621  0.00  0.00    +0.000 OA
ATOM     21  H   UNL     1      69.175  35.845  60.778  0.00  0.00    +0.000 HD
ENDBRANCH  17  20
ENDBRANCH   5  12
BRANCH   8  22
ATOM     22  O   UNL     1      71.352  43.727  68.244  0.00  0.00    +0.000 OA
ATOM     23  H   UNL     1      70.507  44.048  68.629  0.00  0.00    +0.000 HD
ENDBRANCH   8  22
BRANCH  10  24
ATOM     24  O   UNL     1      71.500  46.442  64.348  0.00  0.00    +0.000 OA
ATOM     25  H   UNL     1      70.608  46.811  64.215  0.00  0.00    +0.000 HD
ENDBRANCH  10  24
TORSDOF 5
ENDMDL
