MODEL 1
REMARK VINA RESULT:      -6.0      0.000      0.000
REMARK  Name = 5281698_sexangularetin.pdbqt.pdb
REMARK  6 active torsions:
REMARK  status: ('A' for Active; 'I' for Inactive)
REMARK    1  A    between atoms: C_5  and  C_12
REMARK    2  A    between atoms: C_6  and  O_20
REMARK    3  A    between atoms: C_8  and  O_22
REMARK    4  A    between atoms: C_9  and  O_24
REMARK    5  A    between atoms: C_10  and  O_26
REMARK    6  A    between atoms: C_17  and  O_18
REMARK                            x       y       z     vdW  Elec       q    Type
REMARK                         _______ _______ _______ _____ _____    ______ ____
ROOT
ATOM      1  O   UNL     1      49.113  36.254  60.811  0.00  0.00    +0.000 OA
ATOM      2  O   UNL     1      51.300  35.418  64.118  0.00  0.00    +0.000 OA
ATOM      3  C   UNL     1      49.258  36.179  63.228  0.00  0.00    +0.000 A 
ATOM      4  C   UNL     1      48.563  36.458  62.052  0.00  0.00    +0.000 A 
ATOM      5  C   UNL     1      50.426  35.810  60.703  0.00  0.00    +0.000 A 
ATOM      6  C   UNL     1      47.250  36.944  62.125  0.00  0.00    +0.000 A 
ATOM      7  C   UNL     1      50.632  35.686  63.121  0.00  0.00    +0.000 A 
ATOM      8  C   UNL     1      51.198  35.513  61.765  0.00  0.00    +0.000 A 
ATOM      9  C   UNL     1      48.644  36.359  64.473  0.00  0.00    +0.000 A 
ATOM     10  C   UNL     1      46.631  37.083  63.372  0.00  0.00    +0.000 A 
ATOM     11  C   UNL     1      47.328  36.804  64.545  0.00  0.00    +0.000 A 
ENDROOT
BRANCH   5  12
ATOM     12  C   UNL     1      50.874  35.679  59.302  0.00  0.00    +0.000 A 
ATOM     13  C   UNL     1      51.219  36.824  58.575  0.00  0.00    +0.000 A 
ATOM     14  C   UNL     1      51.033  34.433  58.687  0.00  0.00    +0.000 A 
ATOM     15  C   UNL     1      51.686  36.734  57.265  0.00  0.00    +0.000 A 
ATOM     16  C   UNL     1      51.497  34.328  57.377  0.00  0.00    +0.000 A 
ATOM     17  C   UNL     1      51.821  35.483  56.676  0.00  0.00    +0.000 A 
BRANCH  17  18
ATOM     18  O   UNL     1      52.276  35.359  55.396  0.00  0.00    +0.000 OA
ATOM     19  H   UNL     1      51.618  34.852  54.888  0.00  0.00    +0.000 HD
ENDBRANCH  17  18
ENDBRANCH   5  12
BRANCH   6  20
ATOM     20  O   UNL     1      46.521  37.202  60.990  0.00  0.00    +0.000 OA
ATOM     21  C   UNL     1      46.706  38.530  60.558  0.00  0.00    +0.000 C 
ENDBRANCH   6  20
BRANCH   8  22
ATOM     22  O   UNL     1      52.491  35.033  61.682  0.00  0.00    +0.000 OA
ATOM     23  H   UNL     1      52.441  34.089  61.940  0.00  0.00    +0.000 HD
ENDBRANCH   8  22
BRANCH   9  24
ATOM     24  O   UNL     1      49.269  36.102  65.662  0.00  0.00    +0.000 OA
ATOM     25  H   UNL     1      49.057  36.823  66.296  0.00  0.00    +0.000 HD
ENDBRANCH   9  24
BRANCH  10  26
ATOM     26  O   UNL     1      45.326  37.480  63.444  0.00  0.00    +0.000 OA
ATOM     27  H   UNL     1      44.756  36.691  63.383  0.00  0.00    +0.000 HD
ENDBRANCH  10  26
TORSDOF 6
ENDMDL
MODEL 2
REMARK VINA RESULT:      -5.9     13.211     15.266
REMARK  Name = 5281698_sexangularetin.pdbqt.pdb
REMARK  6 active torsions:
REMARK  status: ('A' for Active; 'I' for Inactive)
REMARK    1  A    between atoms: C_5  and  C_12
REMARK    2  A    between atoms: C_6  and  O_20
REMARK    3  A    between atoms: C_8  and  O_22
REMARK    4  A    between atoms: C_9  and  O_24
REMARK    5  A    between atoms: C_10  and  O_26
REMARK    6  A    between atoms: C_17  and  O_18
REMARK                            x       y       z     vdW  Elec       q    Type
REMARK                         _______ _______ _______ _____ _____    ______ ____
ROOT
ATOM      1  O   UNL     1      61.979  39.177  69.133  0.00  0.00    +0.000 OA
ATOM      2  O   UNL     1      60.350  37.367  65.895  0.00  0.00    +0.000 OA
ATOM      3  C   UNL     1      59.998  38.372  67.995  0.00  0.00    +0.000 A 
ATOM      4  C   UNL     1      60.622  38.977  69.084  0.00  0.00    +0.000 A 
ATOM      5  C   UNL     1      62.782  38.715  68.096  0.00  0.00    +0.000 A 
ATOM      6  C   UNL     1      59.847  39.421  70.165  0.00  0.00    +0.000 A 
ATOM      7  C   UNL     1      60.835  37.906  66.888  0.00  0.00    +0.000 A 
ATOM      8  C   UNL     1      62.297  38.110  66.996  0.00  0.00    +0.000 A 
ATOM      9  C   UNL     1      58.607  38.228  67.966  0.00  0.00    +0.000 A 
ATOM     10  C   UNL     1      58.453  39.309  70.109  0.00  0.00    +0.000 A 
ATOM     11  C   UNL     1      57.833  38.703  69.020  0.00  0.00    +0.000 A 
ENDROOT
BRANCH   5  12
ATOM     12  C   UNL     1      64.218  38.977  68.322  0.00  0.00    +0.000 A 
ATOM     13  C   UNL     1      64.625  40.215  68.835  0.00  0.00    +0.000 A 
ATOM     14  C   UNL     1      65.194  37.999  68.104  0.00  0.00    +0.000 A 
ATOM     15  C   UNL     1      65.966  40.480  69.100  0.00  0.00    +0.000 A 
ATOM     16  C   UNL     1      66.539  38.252  68.363  0.00  0.00    +0.000 A 
ATOM     17  C   UNL     1      66.915  39.493  68.860  0.00  0.00    +0.000 A 
BRANCH  17  18
ATOM     18  O   UNL     1      68.237  39.721  69.110  0.00  0.00    +0.000 OA
ATOM     19  H   UNL     1      68.659  38.867  69.310  0.00  0.00    +0.000 HD
ENDBRANCH  17  18
ENDBRANCH   5  12
BRANCH   6  20
ATOM     20  O   UNL     1      60.420  40.050  71.244  0.00  0.00    +0.000 OA
ATOM     21  C   UNL     1      60.847  39.116  72.208  0.00  0.00    +0.000 C 
ENDBRANCH   6  20
BRANCH   8  22
ATOM     22  O   UNL     1      63.070  37.678  65.936  0.00  0.00    +0.000 OA
ATOM     23  H   UNL     1      63.569  38.466  65.632  0.00  0.00    +0.000 HD
ENDBRANCH   8  22
BRANCH   9  24
ATOM     24  O   UNL     1      57.935  37.646  66.926  0.00  0.00    +0.000 OA
ATOM     25  H   UNL     1      57.095  38.136  66.775  0.00  0.00    +0.000 HD
ENDBRANCH   9  24
BRANCH  10  26
ATOM     26  O   UNL     1      57.689  39.812  71.124  0.00  0.00    +0.000 OA
ATOM     27  H   UNL     1      57.683  40.785  71.057  0.00  0.00    +0.000 HD
ENDBRANCH  10  26
TORSDOF 6
ENDMDL
MODEL 3
REMARK VINA RESULT:      -5.7     15.534     18.016
REMARK  Name = 5281698_sexangularetin.pdbqt.pdb
REMARK  6 active torsions:
REMARK  status: ('A' for Active; 'I' for Inactive)
REMARK    1  A    between atoms: C_5  and  C_12
REMARK    2  A    between atoms: C_6  and  O_20
REMARK    3  A    between atoms: C_8  and  O_22
REMARK    4  A    between atoms: C_9  and  O_24
REMARK    5  A    between atoms: C_10  and  O_26
REMARK    6  A    between atoms: C_17  and  O_18
REMARK                            x       y       z     vdW  Elec       q    Type
REMARK                         _______ _______ _______ _____ _____    ______ ____
ROOT
ATOM      1  O   UNL     1      62.972  40.077  70.947  0.00  0.00    +0.000 OA
ATOM      2  O   UNL     1      65.033  38.461  67.856  0.00  0.00    +0.000 OA
ATOM      3  C   UNL     1      62.953  39.167  68.703  0.00  0.00    +0.000 A 
ATOM      4  C   UNL     1      62.302  39.717  69.806  0.00  0.00    +0.000 A 
ATOM      5  C   UNL     1      64.339  39.841  71.048  0.00  0.00    +0.000 A 
ATOM      6  C   UNL     1      60.918  39.933  69.753  0.00  0.00    +0.000 A 
ATOM      7  C   UNL     1      64.396  38.939  68.792  0.00  0.00    +0.000 A 
ATOM      8  C   UNL     1      65.075  39.310  70.054  0.00  0.00    +0.000 A 
ATOM      9  C   UNL     1      62.238  38.855  67.541  0.00  0.00    +0.000 A 
ATOM     10  C   UNL     1      60.218  39.655  68.573  0.00  0.00    +0.000 A 
ATOM     11  C   UNL     1      60.871  39.106  67.473  0.00  0.00    +0.000 A 
ENDROOT
BRANCH   5  12
ATOM     12  C   UNL     1      64.898  40.252  72.352  0.00  0.00    +0.000 A 
ATOM     13  C   UNL     1      65.493  41.513  72.484  0.00  0.00    +0.000 A 
ATOM     14  C   UNL     1      64.793  39.448  73.491  0.00  0.00    +0.000 A 
ATOM     15  C   UNL     1      65.992  41.949  73.709  0.00  0.00    +0.000 A 
ATOM     16  C   UNL     1      65.290  39.872  74.722  0.00  0.00    +0.000 A 
ATOM     17  C   UNL     1      65.886  41.122  74.821  0.00  0.00    +0.000 A 
BRANCH  17  18
ATOM     18  O   UNL     1      66.364  41.520  76.035  0.00  0.00    +0.000 OA
ATOM     19  H   UNL     1      65.620  41.876  76.552  0.00  0.00    +0.000 HD
ENDBRANCH  17  18
ENDBRANCH   5  12
BRANCH   6  20
ATOM     20  O   UNL     1      60.243  40.501  70.806  0.00  0.00    +0.000 OA
ATOM     21  C   UNL     1      59.756  39.516  71.687  0.00  0.00    +0.000 C 
ENDBRANCH   6  20
BRANCH   8  22
ATOM     22  O   UNL     1      66.440  39.102  70.116  0.00  0.00    +0.000 OA
ATOM     23  H   UNL     1      66.581  38.176  69.826  0.00  0.00    +0.000 HD
ENDBRANCH   8  22
BRANCH   9  24
ATOM     24  O   UNL     1      62.818  38.316  66.425  0.00  0.00    +0.000 OA
ATOM     25  H   UNL     1      62.286  38.569  65.636  0.00  0.00    +0.000 HD
ENDBRANCH   9  24
BRANCH  10  26
ATOM     26  O   UNL     1      58.884  39.940  68.490  0.00  0.00    +0.000 OA
ATOM     27  H   UNL     1      58.380  39.167  68.806  0.00  0.00    +0.000 HD
ENDBRANCH  10  26
TORSDOF 6
ENDMDL
MODEL 4
REMARK VINA RESULT:      -5.6     13.966     16.261
REMARK  Name = 5281698_sexangularetin.pdbqt.pdb
REMARK  6 active torsions:
REMARK  status: ('A' for Active; 'I' for Inactive)
REMARK    1  A    between atoms: C_5  and  C_12
REMARK    2  A    between atoms: C_6  and  O_20
REMARK    3  A    between atoms: C_8  and  O_22
REMARK    4  A    between atoms: C_9  and  O_24
REMARK    5  A    between atoms: C_10  and  O_26
REMARK    6  A    between atoms: C_17  and  O_18
REMARK                            x       y       z     vdW  Elec       q    Type
REMARK                         _______ _______ _______ _____ _____    ______ ____
ROOT
ATOM      1  O   UNL     1      63.535  38.957  53.950  0.00  0.00    +0.000 OA
ATOM      2  O   UNL     1      61.898  37.883  57.497  0.00  0.00    +0.000 OA
ATOM      3  C   UNL     1      63.169  37.243  55.622  0.00  0.00    +0.000 A 
ATOM      4  C   UNL     1      63.696  37.672  54.405  0.00  0.00    +0.000 A 
ATOM      5  C   UNL     1      62.775  39.859  54.686  0.00  0.00    +0.000 A 
ATOM      6  C   UNL     1      64.436  36.777  53.619  0.00  0.00    +0.000 A 
ATOM      7  C   UNL     1      62.388  38.195  56.414  0.00  0.00    +0.000 A 
ATOM      8  C   UNL     1      62.210  39.559  55.871  0.00  0.00    +0.000 A 
ATOM      9  C   UNL     1      63.394  35.936  56.070  0.00  0.00    +0.000 A 
ATOM     10  C   UNL     1      64.690  35.486  54.094  0.00  0.00    +0.000 A 
ATOM     11  C   UNL     1      64.162  35.060  55.310  0.00  0.00    +0.000 A 
ENDROOT
BRANCH   5  12
ATOM     12  C   UNL     1      62.670  41.183  54.039  0.00  0.00    +0.000 A 
ATOM     13  C   UNL     1      63.455  42.245  54.505  0.00  0.00    +0.000 A 
ATOM     14  C   UNL     1      61.858  41.401  52.922  0.00  0.00    +0.000 A 
ATOM     15  C   UNL     1      63.413  43.495  53.892  0.00  0.00    +0.000 A 
ATOM     16  C   UNL     1      61.806  42.647  52.300  0.00  0.00    +0.000 A 
ATOM     17  C   UNL     1      62.586  43.686  52.792  0.00  0.00    +0.000 A 
BRANCH  17  18
ATOM     18  O   UNL     1      62.522  44.898  52.168  0.00  0.00    +0.000 OA
ATOM     19  H   UNL     1      61.621  45.011  51.817  0.00  0.00    +0.000 HD
ENDBRANCH  17  18
ENDBRANCH   5  12
BRANCH   6  20
ATOM     20  O   UNL     1      64.998  37.170  52.429  0.00  0.00    +0.000 OA
ATOM     21  C   UNL     1      64.121  36.938  51.352  0.00  0.00    +0.000 C 
ENDBRANCH   6  20
BRANCH   8  22
ATOM     22  O   UNL     1      61.483  40.450  56.638  0.00  0.00    +0.000 OA
ATOM     23  H   UNL     1      61.953  41.307  56.566  0.00  0.00    +0.000 HD
ENDBRANCH   8  22
BRANCH   9  24
ATOM     24  O   UNL     1      62.907  35.455  57.254  0.00  0.00    +0.000 OA
ATOM     25  H   UNL     1      63.374  35.901  57.996  0.00  0.00    +0.000 HD
ENDBRANCH   9  24
BRANCH  10  26
ATOM     26  O   UNL     1      65.478  34.637  53.369  0.00  0.00    +0.000 OA
ATOM     27  H   UNL     1      66.059  35.167  52.792  0.00  0.00    +0.000 HD
ENDBRANCH  10  26
TORSDOF 6
ENDMDL
MODEL 5
REMARK VINA RESULT:      -5.5      3.993      7.062
REMARK  Name = 5281698_sexangularetin.pdbqt.pdb
REMARK  6 active torsions:
REMARK  status: ('A' for Active; 'I' for Inactive)
REMARK    1  A    between atoms: C_5  and  C_12
REMARK    2  A    between atoms: C_6  and  O_20
REMARK    3  A    between atoms: C_8  and  O_22
REMARK    4  A    between atoms: C_9  and  O_24
REMARK    5  A    between atoms: C_10  and  O_26
REMARK    6  A    between atoms: C_17  and  O_18
REMARK                            x       y       z     vdW  Elec       q    Type
REMARK                         _______ _______ _______ _____ _____    ______ ____
ROOT
ATOM      1  O   UNL     1      53.070  35.417  60.500  0.00  0.00    +0.000 OA
ATOM      2  O   UNL     1      53.258  31.370  60.453  0.00  0.00    +0.000 OA
ATOM      3  C   UNL     1      52.889  33.355  59.242  0.00  0.00    +0.000 A 
ATOM      4  C   UNL     1      52.828  34.745  59.329  0.00  0.00    +0.000 A 
ATOM      5  C   UNL     1      53.330  34.702  61.665  0.00  0.00    +0.000 A 
ATOM      6  C   UNL     1      52.531  35.495  58.183  0.00  0.00    +0.000 A 
ATOM      7  C   UNL     1      53.186  32.597  60.459  0.00  0.00    +0.000 A 
ATOM      8  C   UNL     1      53.407  33.359  61.708  0.00  0.00    +0.000 A 
ATOM      9  C   UNL     1      52.679  32.712  58.018  0.00  0.00    +0.000 A 
ATOM     10  C   UNL     1      52.362  34.846  56.954  0.00  0.00    +0.000 A 
ATOM     11  C   UNL     1      52.423  33.458  56.871  0.00  0.00    +0.000 A 
ENDROOT
BRANCH   5  12
ATOM     12  C   UNL     1      53.530  35.573  62.841  0.00  0.00    +0.000 A 
ATOM     13  C   UNL     1      52.426  35.971  63.605  0.00  0.00    +0.000 A 
ATOM     14  C   UNL     1      54.804  35.966  63.264  0.00  0.00    +0.000 A 
ATOM     15  C   UNL     1      52.584  36.756  64.745  0.00  0.00    +0.000 A 
ATOM     16  C   UNL     1      54.976  36.753  64.401  0.00  0.00    +0.000 A 
ATOM     17  C   UNL     1      53.861  37.142  65.133  0.00  0.00    +0.000 A 
BRANCH  17  18
ATOM     18  O   UNL     1      54.050  37.911  66.245  0.00  0.00    +0.000 OA
ATOM     19  H   UNL     1      54.751  38.557  66.050  0.00  0.00    +0.000 HD
ENDBRANCH  17  18
ENDBRANCH   5  12
BRANCH   6  20
ATOM     20  O   UNL     1      52.492  36.868  58.219  0.00  0.00    +0.000 OA
ATOM     21  C   UNL     1      51.169  37.336  58.338  0.00  0.00    +0.000 C 
ENDBRANCH   6  20
BRANCH   8  22
ATOM     22  O   UNL     1      53.702  32.629  62.844  0.00  0.00    +0.000 OA
ATOM     23  H   UNL     1      52.837  32.409  63.250  0.00  0.00    +0.000 HD
ENDBRANCH   8  22
BRANCH   9  24
ATOM     24  O   UNL     1      52.727  31.353  57.866  0.00  0.00    +0.000 OA
ATOM     25  H   UNL     1      52.749  30.934  58.755  0.00  0.00    +0.000 HD
ENDBRANCH   9  24
BRANCH  10  26
ATOM     26  O   UNL     1      52.152  35.579  55.820  0.00  0.00    +0.000 OA
ATOM     27  H   UNL     1      52.913  35.454  55.223  0.00  0.00    +0.000 HD
ENDBRANCH  10  26
TORSDOF 6
ENDMDL
MODEL 6
REMARK VINA RESULT:      -5.4      2.266      7.726
REMARK  Name = 5281698_sexangularetin.pdbqt.pdb
REMARK  6 active torsions:
REMARK  status: ('A' for Active; 'I' for Inactive)
REMARK    1  A    between atoms: C_5  and  C_12
REMARK    2  A    between atoms: C_6  and  O_20
REMARK    3  A    between atoms: C_8  and  O_22
REMARK    4  A    between atoms: C_9  and  O_24
REMARK    5  A    between atoms: C_10  and  O_26
REMARK    6  A    between atoms: C_17  and  O_18
REMARK                            x       y       z     vdW  Elec       q    Type
REMARK                         _______ _______ _______ _____ _____    ______ ____
ROOT
ATOM      1  O   UNL     1      51.980  34.074  59.457  0.00  0.00    +0.000 OA
ATOM      2  O   UNL     1      51.621  36.467  56.208  0.00  0.00    +0.000 OA
ATOM      3  C   UNL     1      52.449  34.458  57.112  0.00  0.00    +0.000 A 
ATOM      4  C   UNL     1      52.546  33.686  58.269  0.00  0.00    +0.000 A 
ATOM      5  C   UNL     1      51.332  35.301  59.544  0.00  0.00    +0.000 A 
ATOM      6  C   UNL     1      53.225  32.461  58.226  0.00  0.00    +0.000 A 
ATOM      7  C   UNL     1      51.746  35.740  57.190  0.00  0.00    +0.000 A 
ATOM      8  C   UNL     1      51.180  36.136  58.499  0.00  0.00    +0.000 A 
ATOM      9  C   UNL     1      53.003  34.004  55.910  0.00  0.00    +0.000 A 
ATOM     10  C   UNL     1      53.741  31.997  57.011  0.00  0.00    +0.000 A 
ATOM     11  C   UNL     1      53.643  32.770  55.857  0.00  0.00    +0.000 A 
ENDROOT
BRANCH   5  12
ATOM     12  C   UNL     1      50.813  35.581  60.899  0.00  0.00    +0.000 A 
ATOM     13  C   UNL     1      49.431  35.665  61.107  0.00  0.00    +0.000 A 
ATOM     14  C   UNL     1      51.658  35.701  62.007  0.00  0.00    +0.000 A 
ATOM     15  C   UNL     1      48.906  35.885  62.379  0.00  0.00    +0.000 A 
ATOM     16  C   UNL     1      51.146  35.923  63.284  0.00  0.00    +0.000 A 
ATOM     17  C   UNL     1      49.771  36.013  63.459  0.00  0.00    +0.000 A 
BRANCH  17  18
ATOM     18  O   UNL     1      49.289  36.229  64.717  0.00  0.00    +0.000 OA
ATOM     19  H   UNL     1      48.939  35.386  65.057  0.00  0.00    +0.000 HD
ENDBRANCH  17  18
ENDBRANCH   5  12
BRANCH   6  20
ATOM     20  O   UNL     1      53.317  31.656  59.336  0.00  0.00    +0.000 OA
ATOM     21  C   UNL     1      52.198  30.807  59.441  0.00  0.00    +0.000 C 
ENDBRANCH   6  20
BRANCH   8  22
ATOM     22  O   UNL     1      50.507  37.341  58.552  0.00  0.00    +0.000 OA
ATOM     23  H   UNL     1      50.414  37.552  59.505  0.00  0.00    +0.000 HD
ENDBRANCH   8  22
BRANCH   9  24
ATOM     24  O   UNL     1      52.940  34.711  54.741  0.00  0.00    +0.000 OA
ATOM     25  H   UNL     1      53.630  35.413  54.754  0.00  0.00    +0.000 HD
ENDBRANCH   9  24
BRANCH  10  26
ATOM     26  O   UNL     1      54.333  30.767  56.948  0.00  0.00    +0.000 OA
ATOM     27  H   UNL     1      54.121  30.362  56.086  0.00  0.00    +0.000 HD
ENDBRANCH  10  26
TORSDOF 6
ENDMDL
MODEL 7
REMARK VINA RESULT:      -5.4     32.467     33.348
REMARK  Name = 5281698_sexangularetin.pdbqt.pdb
REMARK  6 active torsions:
REMARK  status: ('A' for Active; 'I' for Inactive)
REMARK    1  A    between atoms: C_5  and  C_12
REMARK    2  A    between atoms: C_6  and  O_20
REMARK    3  A    between atoms: C_8  and  O_22
REMARK    4  A    between atoms: C_9  and  O_24
REMARK    5  A    between atoms: C_10  and  O_26
REMARK    6  A    between atoms: C_17  and  O_18
REMARK                            x       y       z     vdW  Elec       q    Type
REMARK                         _______ _______ _______ _____ _____    ______ ____
ROOT
ATOM      1  O   UNL     1      60.061  66.515  67.952  0.00  0.00    +0.000 OA
ATOM      2  O   UNL     1      58.212  67.406  71.444  0.00  0.00    +0.000 OA
ATOM      3  C   UNL     1      58.172  66.186  69.432  0.00  0.00    +0.000 A 
ATOM      4  C   UNL     1      58.854  65.932  68.243  0.00  0.00    +0.000 A 
ATOM      5  C   UNL     1      60.611  67.438  68.834  0.00  0.00    +0.000 A 
ATOM      6  C   UNL     1      58.309  65.035  67.313  0.00  0.00    +0.000 A 
ATOM      7  C   UNL     1      58.758  67.138  70.377  0.00  0.00    +0.000 A 
ATOM      8  C   UNL     1      60.044  67.771  70.009  0.00  0.00    +0.000 A 
ATOM      9  C   UNL     1      56.964  65.536  69.709  0.00  0.00    +0.000 A 
ATOM     10  C   UNL     1      57.121  64.359  67.616  0.00  0.00    +0.000 A 
ATOM     11  C   UNL     1      56.443  64.616  68.805  0.00  0.00    +0.000 A 
ENDROOT
BRANCH   5  12
ATOM     12  C   UNL     1      61.892  67.998  68.354  0.00  0.00    +0.000 A 
ATOM     13  C   UNL     1      62.970  67.142  68.098  0.00  0.00    +0.000 A 
ATOM     14  C   UNL     1      62.049  69.360  68.079  0.00  0.00    +0.000 A 
ATOM     15  C   UNL     1      64.177  67.631  67.604  0.00  0.00    +0.000 A 
ATOM     16  C   UNL     1      63.252  69.862  67.586  0.00  0.00    +0.000 A 
ATOM     17  C   UNL     1      64.308  68.991  67.352  0.00  0.00    +0.000 A 
BRANCH  17  18
ATOM     18  O   UNL     1      65.477  69.502  66.869  0.00  0.00    +0.000 OA
ATOM     19  H   UNL     1      66.194  69.243  67.473  0.00  0.00    +0.000 HD
ENDBRANCH  17  18
ENDBRANCH   5  12
BRANCH   6  20
ATOM     20  O   UNL     1      58.964  64.733  66.144  0.00  0.00    +0.000 OA
ATOM     21  C   UNL     1      59.862  63.663  66.327  0.00  0.00    +0.000 C 
ENDBRANCH   6  20
BRANCH   8  22
ATOM     22  O   UNL     1      60.591  68.655  70.919  0.00  0.00    +0.000 OA
ATOM     23  H   UNL     1      61.034  68.100  71.595  0.00  0.00    +0.000 HD
ENDBRANCH   8  22
BRANCH   9  24
ATOM     24  O   UNL     1      56.249  65.740  70.856  0.00  0.00    +0.000 OA
ATOM     25  H   UNL     1      56.413  66.656  71.176  0.00  0.00    +0.000 HD
ENDBRANCH   9  24
BRANCH  10  26
ATOM     26  O   UNL     1      56.629  63.425  66.749  0.00  0.00    +0.000 OA
ATOM     27  H   UNL     1      56.986  63.606  65.860  0.00  0.00    +0.000 HD
ENDBRANCH  10  26
TORSDOF 6
ENDMDL
MODEL 8
REMARK VINA RESULT:      -5.3     55.792     57.079
REMARK  Name = 5281698_sexangularetin.pdbqt.pdb
REMARK  6 active torsions:
REMARK  status: ('A' for Active; 'I' for Inactive)
REMARK    1  A    between atoms: C_5  and  C_12
REMARK    2  A    between atoms: C_6  and  O_20
REMARK    3  A    between atoms: C_8  and  O_22
REMARK    4  A    between atoms: C_9  and  O_24
REMARK    5  A    between atoms: C_10  and  O_26
REMARK    6  A    between atoms: C_17  and  O_18
REMARK                            x       y       z     vdW  Elec       q    Type
REMARK                         _______ _______ _______ _____ _____    ______ ____
ROOT
ATOM      1  O   UNL     1      76.787  80.663  82.103  0.00  0.00    +0.000 OA
ATOM      2  O   UNL     1      80.191  82.438  83.398  0.00  0.00    +0.000 OA
ATOM      3  C   UNL     1      79.085  81.292  81.665  0.00  0.00    +0.000 A 
ATOM      4  C   UNL     1      77.888  80.687  81.285  0.00  0.00    +0.000 A 
ATOM      5  C   UNL     1      76.867  81.205  83.381  0.00  0.00    +0.000 A 
ATOM      6  C   UNL     1      77.786  80.097  80.017  0.00  0.00    +0.000 A 
ATOM      7  C   UNL     1      79.168  81.886  83.001  0.00  0.00    +0.000 A 
ATOM      8  C   UNL     1      77.969  81.809  83.864  0.00  0.00    +0.000 A 
ATOM      9  C   UNL     1      80.170  81.333  80.782  0.00  0.00    +0.000 A 
ATOM     10  C   UNL     1      78.862  80.178  79.126  0.00  0.00    +0.000 A 
ATOM     11  C   UNL     1      80.056  80.783  79.509  0.00  0.00    +0.000 A 
ENDROOT
BRANCH   5  12
ATOM     12  C   UNL     1      75.609  81.064  84.143  0.00  0.00    +0.000 A 
ATOM     13  C   UNL     1      75.397  79.923  84.927  0.00  0.00    +0.000 A 
ATOM     14  C   UNL     1      74.638  82.071  84.165  0.00  0.00    +0.000 A 
ATOM     15  C   UNL     1      74.242  79.778  85.692  0.00  0.00    +0.000 A 
ATOM     16  C   UNL     1      73.477  81.937  84.924  0.00  0.00    +0.000 A 
ATOM     17  C   UNL     1      73.289  80.789  85.683  0.00  0.00    +0.000 A 
BRANCH  17  18
ATOM     18  O   UNL     1      72.147  80.678  86.421  0.00  0.00    +0.000 OA
ATOM     19  H   UNL     1      72.199  79.855  86.938  0.00  0.00    +0.000 HD
ENDBRANCH  17  18
ENDBRANCH   5  12
BRANCH   6  20
ATOM     20  O   UNL     1      76.614  79.519  79.592  0.00  0.00    +0.000 OA
ATOM     21  C   UNL     1      76.654  78.119  79.746  0.00  0.00    +0.000 C 
ENDBRANCH   6  20
BRANCH   8  22
ATOM     22  O   UNL     1      78.059  82.388  85.115  0.00  0.00    +0.000 OA
ATOM     23  H   UNL     1      78.988  82.687  85.204  0.00  0.00    +0.000 HD
ENDBRANCH   8  22
BRANCH   9  24
ATOM     24  O   UNL     1      81.369  81.912  81.094  0.00  0.00    +0.000 OA
ATOM     25  H   UNL     1      81.569  81.742  82.042  0.00  0.00    +0.000 HD
ENDBRANCH   9  24
BRANCH  10  26
ATOM     26  O   UNL     1      78.738  79.676  77.861  0.00  0.00    +0.000 OA
ATOM     27  H   UNL     1      79.189  78.811  77.824  0.00  0.00    +0.000 HD
ENDBRANCH  10  26
TORSDOF 6
ENDMDL
MODEL 9
REMARK VINA RESULT:      -5.3     15.475     17.812
REMARK  Name = 5281698_sexangularetin.pdbqt.pdb
REMARK  6 active torsions:
REMARK  status: ('A' for Active; 'I' for Inactive)
REMARK    1  A    between atoms: C_5  and  C_12
REMARK    2  A    between atoms: C_6  and  O_20
REMARK    3  A    between atoms: C_8  and  O_22
REMARK    4  A    between atoms: C_9  and  O_24
REMARK    5  A    between atoms: C_10  and  O_26
REMARK    6  A    between atoms: C_17  and  O_18
REMARK                            x       y       z     vdW  Elec       q    Type
REMARK                         _______ _______ _______ _____ _____    ______ ____
ROOT
ATOM      1  O   UNL     1      62.938  39.577  71.637  0.00  0.00    +0.000 OA
ATOM      2  O   UNL     1      62.326  40.850  67.839  0.00  0.00    +0.000 OA
ATOM      3  C   UNL     1      61.422  39.846  69.767  0.00  0.00    +0.000 A 
ATOM      4  C   UNL     1      61.701  39.419  71.064  0.00  0.00    +0.000 A 
ATOM      5  C   UNL     1      63.977  40.127  70.893  0.00  0.00    +0.000 A 
ATOM      6  C   UNL     1      60.687  38.825  71.828  0.00  0.00    +0.000 A 
ATOM      7  C   UNL     1      62.505  40.450  68.987  0.00  0.00    +0.000 A 
ATOM      8  C   UNL     1      63.832  40.570  69.630  0.00  0.00    +0.000 A 
ATOM      9  C   UNL     1      60.135  39.707  69.237  0.00  0.00    +0.000 A 
ATOM     10  C   UNL     1      59.393  38.726  71.305  0.00  0.00    +0.000 A 
ATOM     11  C   UNL     1      59.118  39.154  70.009  0.00  0.00    +0.000 A 
ENDROOT
BRANCH   5  12
ATOM     12  C   UNL     1      65.248  40.192  71.644  0.00  0.00    +0.000 A 
ATOM     13  C   UNL     1      65.514  41.296  72.462  0.00  0.00    +0.000 A 
ATOM     14  C   UNL     1      66.177  39.147  71.621  0.00  0.00    +0.000 A 
ATOM     15  C   UNL     1      66.683  41.370  73.216  0.00  0.00    +0.000 A 
ATOM     16  C   UNL     1      67.351  39.208  72.369  0.00  0.00    +0.000 A 
ATOM     17  C   UNL     1      67.594  40.322  73.162  0.00  0.00    +0.000 A 
BRANCH  17  18
ATOM     18  O   UNL     1      68.748  40.363  73.889  0.00  0.00    +0.000 OA
ATOM     19  H   UNL     1      69.019  39.447  74.080  0.00  0.00    +0.000 HD
ENDBRANCH  17  18
ENDBRANCH   5  12
BRANCH   6  20
ATOM     20  O   UNL     1      60.913  38.419  73.121  0.00  0.00    +0.000 OA
ATOM     21  C   UNL     1      61.288  37.062  73.169  0.00  0.00    +0.000 C 
ENDBRANCH   6  20
BRANCH   8  22
ATOM     22  O   UNL     1      64.838  41.155  68.886  0.00  0.00    +0.000 OA
ATOM     23  H   UNL     1      65.232  41.841  69.465  0.00  0.00    +0.000 HD
ENDBRANCH   8  22
BRANCH   9  24
ATOM     24  O   UNL     1      59.796  40.107  67.974  0.00  0.00    +0.000 OA
ATOM     25  H   UNL     1      58.847  39.897  67.816  0.00  0.00    +0.000 HD
ENDBRANCH   9  24
BRANCH  10  26
ATOM     26  O   UNL     1      58.384  38.222  72.076  0.00  0.00    +0.000 OA
ATOM     27  H   UNL     1      58.161  38.875  72.765  0.00  0.00    +0.000 HD
ENDBRANCH  10  26
TORSDOF 6
ENDMDL
