MODEL 1
REMARK VINA RESULT:      -5.7      0.000      0.000
REMARK  Name = 5281416_Esculetin.pdbqt.pdb
REMARK  2 active torsions:
REMARK  status: ('A' for Active; 'I' for Inactive)
REMARK    1  A    between atoms: C_7  and  O_12
REMARK    2  A    between atoms: C_8  and  O_14
REMARK                            x       y       z     vdW  Elec       q    Type
REMARK                         _______ _______ _______ _____ _____    ______ ____
ROOT
ATOM      1  O   UNL     1      61.018  39.892  53.658  0.00  0.00    +0.000 OA
ATOM      2  O   UNL     1      61.412  40.919  51.586  0.00  0.00    +0.000 OA
ATOM      3  C   UNL     1      62.504  37.977  54.243  0.00  0.00    +0.000 A 
ATOM      4  C   UNL     1      61.427  38.846  54.571  0.00  0.00    +0.000 A 
ATOM      5  C   UNL     1      62.902  36.974  55.112  0.00  0.00    +0.000 A 
ATOM      6  C   UNL     1      60.737  38.724  55.768  0.00  0.00    +0.000 A 
ATOM      7  C   UNL     1      62.207  36.854  56.313  0.00  0.00    +0.000 A 
ATOM      8  C   UNL     1      61.144  37.713  56.633  0.00  0.00    +0.000 A 
ATOM      9  C   UNL     1      63.098  38.241  52.984  0.00  0.00    +0.000 A 
ATOM     10  C   UNL     1      62.744  39.110  52.245  0.00  0.00    +0.000 A 
ATOM     11  C   UNL     1      61.686  40.068  52.416  0.00  0.00    +0.000 A 
ENDROOT
BRANCH   7  12
ATOM     12  O   UNL     1      62.539  35.887  57.225  0.00  0.00    +0.000 OA
ATOM     13  H   UNL     1      61.813  35.237  57.250  0.00  0.00    +0.000 HD
ENDBRANCH   7  12
BRANCH   8  14
ATOM     14  O   UNL     1      60.490  37.559  57.824  0.00  0.00    +0.000 OA
ATOM     15  H   UNL     1      59.933  38.358  57.918  0.00  0.00    +0.000 HD
ENDBRANCH   8  14
TORSDOF 2
ENDMDL
MODEL 2
REMARK VINA RESULT:      -5.4      1.907      2.677
REMARK  Name = 5281416_Esculetin.pdbqt.pdb
REMARK  2 active torsions:
REMARK  status: ('A' for Active; 'I' for Inactive)
REMARK    1  A    between atoms: C_7  and  O_12
REMARK    2  A    between atoms: C_8  and  O_14
REMARK                            x       y       z     vdW  Elec       q    Type
REMARK                         _______ _______ _______ _____ _____    ______ ____
ROOT
ATOM      1  O   UNL     1      63.717  39.337  53.643  0.00  0.00    +0.000 OA
ATOM      2  O   UNL     1      64.657  41.157  52.497  0.00  0.00    +0.000 OA
ATOM      3  C   UNL     1      62.147  39.892  55.499  0.00  0.00    +0.000 A 
ATOM      4  C   UNL     1      62.827  38.926  54.707  0.00  0.00    +0.000 A 
ATOM      5  C   UNL     1      61.293  39.506  56.519  0.00  0.00    +0.000 A 
ATOM      6  C   UNL     1      62.662  37.566  54.924  0.00  0.00    +0.000 A 
ATOM      7  C   UNL     1      61.130  38.140  56.735  0.00  0.00    +0.000 A 
ATOM      8  C   UNL     1      61.803  37.189  55.951  0.00  0.00    +0.000 A 
ATOM      9  C   UNL     1      62.429  41.234  55.142  0.00  0.00    +0.000 A 
ATOM     10  C   UNL     1      63.168  41.552  54.260  0.00  0.00    +0.000 A 
ATOM     11  C   UNL     1      63.928  40.717  53.371  0.00  0.00    +0.000 A 
ENDROOT
BRANCH   7  12
ATOM     12  O   UNL     1      60.303  37.677  57.725  0.00  0.00    +0.000 OA
ATOM     13  H   UNL     1      60.157  38.405  58.357  0.00  0.00    +0.000 HD
ENDBRANCH   7  12
BRANCH   8  14
ATOM     14  O   UNL     1      61.613  35.858  56.198  0.00  0.00    +0.000 OA
ATOM     15  H   UNL     1      62.428  35.418  55.883  0.00  0.00    +0.000 HD
ENDBRANCH   8  14
TORSDOF 2
ENDMDL
MODEL 3
REMARK VINA RESULT:      -4.8      2.500      3.656
REMARK  Name = 5281416_Esculetin.pdbqt.pdb
REMARK  2 active torsions:
REMARK  status: ('A' for Active; 'I' for Inactive)
REMARK    1  A    between atoms: C_7  and  O_12
REMARK    2  A    between atoms: C_8  and  O_14
REMARK                            x       y       z     vdW  Elec       q    Type
REMARK                         _______ _______ _______ _____ _____    ______ ____
ROOT
ATOM      1  O   UNL     1      64.484  37.605  53.598  0.00  0.00    +0.000 OA
ATOM      2  O   UNL     1      66.633  36.806  53.097  0.00  0.00    +0.000 OA
ATOM      3  C   UNL     1      63.594  37.038  55.857  0.00  0.00    +0.000 A 
ATOM      4  C   UNL     1      63.435  37.668  54.592  0.00  0.00    +0.000 A 
ATOM      5  C   UNL     1      62.593  37.094  56.814  0.00  0.00    +0.000 A 
ATOM      6  C   UNL     1      62.276  38.359  54.269  0.00  0.00    +0.000 A 
ATOM      7  C   UNL     1      61.432  37.788  56.486  0.00  0.00    +0.000 A 
ATOM      8  C   UNL     1      61.278  38.408  55.236  0.00  0.00    +0.000 A 
ATOM      9  C   UNL     1      64.836  36.377  56.022  0.00  0.00    +0.000 A 
ATOM     10  C   UNL     1      65.690  36.337  55.188  0.00  0.00    +0.000 A 
ATOM     11  C   UNL     1      65.696  36.911  53.871  0.00  0.00    +0.000 A 
ENDROOT
BRANCH   7  12
ATOM     12  O   UNL     1      60.396  37.889  57.377  0.00  0.00    +0.000 OA
ATOM     13  H   UNL     1      59.640  38.294  56.913  0.00  0.00    +0.000 HD
ENDBRANCH   7  12
BRANCH   8  14
ATOM     14  O   UNL     1      60.120  39.080  54.957  0.00  0.00    +0.000 OA
ATOM     15  H   UNL     1      60.375  39.782  54.324  0.00  0.00    +0.000 HD
ENDBRANCH   8  14
TORSDOF 2
ENDMDL
MODEL 4
REMARK VINA RESULT:      -4.6     10.158     10.537
REMARK  Name = 5281416_Esculetin.pdbqt.pdb
REMARK  2 active torsions:
REMARK  status: ('A' for Active; 'I' for Inactive)
REMARK    1  A    between atoms: C_7  and  O_12
REMARK    2  A    between atoms: C_8  and  O_14
REMARK                            x       y       z     vdW  Elec       q    Type
REMARK                         _______ _______ _______ _____ _____    ______ ____
ROOT
ATOM      1  O   UNL     1      52.950  34.324  55.274  0.00  0.00    +0.000 OA
ATOM      2  O   UNL     1      53.488  32.579  53.800  0.00  0.00    +0.000 OA
ATOM      3  C   UNL     1      53.064  33.790  57.707  0.00  0.00    +0.000 A 
ATOM      4  C   UNL     1      52.811  34.718  56.659  0.00  0.00    +0.000 A 
ATOM      5  C   UNL     1      52.933  34.160  59.035  0.00  0.00    +0.000 A 
ATOM      6  C   UNL     1      52.423  36.023  56.926  0.00  0.00    +0.000 A 
ATOM      7  C   UNL     1      52.544  35.471  59.300  0.00  0.00    +0.000 A 
ATOM      8  C   UNL     1      52.294  36.384  58.263  0.00  0.00    +0.000 A 
ATOM      9  C   UNL     1      53.450  32.502  57.258  0.00  0.00    +0.000 A 
ATOM     10  C   UNL     1      53.559  32.198  56.109  0.00  0.00    +0.000 A 
ATOM     11  C   UNL     1      53.344  33.000  54.936  0.00  0.00    +0.000 A 
ENDROOT
BRANCH   7  12
ATOM     12  O   UNL     1      52.392  35.914  60.587  0.00  0.00    +0.000 OA
ATOM     13  H   UNL     1      52.971  35.377  61.159  0.00  0.00    +0.000 HD
ENDBRANCH   7  12
BRANCH   8  14
ATOM     14  O   UNL     1      51.915  37.661  58.569  0.00  0.00    +0.000 OA
ATOM     15  H   UNL     1      52.722  38.203  58.463  0.00  0.00    +0.000 HD
ENDBRANCH   8  14
TORSDOF 2
ENDMDL
MODEL 5
REMARK VINA RESULT:      -4.5     10.307     10.819
REMARK  Name = 5281416_Esculetin.pdbqt.pdb
REMARK  2 active torsions:
REMARK  status: ('A' for Active; 'I' for Inactive)
REMARK    1  A    between atoms: C_7  and  O_12
REMARK    2  A    between atoms: C_8  and  O_14
REMARK                            x       y       z     vdW  Elec       q    Type
REMARK                         _______ _______ _______ _____ _____    ______ ____
ROOT
ATOM      1  O   UNL     1      53.368  32.350  57.361  0.00  0.00    +0.000 OA
ATOM      2  O   UNL     1      53.688  30.763  55.662  0.00  0.00    +0.000 OA
ATOM      3  C   UNL     1      52.725  34.643  56.623  0.00  0.00    +0.000 A 
ATOM      4  C   UNL     1      53.025  33.722  57.664  0.00  0.00    +0.000 A 
ATOM      5  C   UNL     1      52.396  35.959  56.906  0.00  0.00    +0.000 A 
ATOM      6  C   UNL     1      53.000  34.105  58.998  0.00  0.00    +0.000 A 
ATOM      7  C   UNL     1      52.372  36.339  58.245  0.00  0.00    +0.000 A 
ATOM      8  C   UNL     1      52.669  35.428  59.271  0.00  0.00    +0.000 A 
ATOM      9  C   UNL     1      52.797  34.088  55.321  0.00  0.00    +0.000 A 
ATOM     10  C   UNL     1      53.082  32.951  55.092  0.00  0.00    +0.000 A 
ATOM     11  C   UNL     1      53.410  31.898  56.013  0.00  0.00    +0.000 A 
ENDROOT
BRANCH   7  12
ATOM     12  O   UNL     1      52.056  37.623  58.608  0.00  0.00    +0.000 OA
ATOM     13  H   UNL     1      51.157  37.812  58.282  0.00  0.00    +0.000 HD
ENDBRANCH   7  12
BRANCH   8  14
ATOM     14  O   UNL     1      52.633  35.845  60.573  0.00  0.00    +0.000 OA
ATOM     15  H   UNL     1      51.807  35.471  60.941  0.00  0.00    +0.000 HD
ENDBRANCH   8  14
TORSDOF 2
ENDMDL
MODEL 6
REMARK VINA RESULT:      -4.5     11.867     13.671
REMARK  Name = 5281416_Esculetin.pdbqt.pdb
REMARK  2 active torsions:
REMARK  status: ('A' for Active; 'I' for Inactive)
REMARK    1  A    between atoms: C_7  and  O_12
REMARK    2  A    between atoms: C_8  and  O_14
REMARK                            x       y       z     vdW  Elec       q    Type
REMARK                         _______ _______ _______ _____ _____    ______ ____
ROOT
ATOM      1  O   UNL     1      63.075  37.015  66.964  0.00  0.00    +0.000 OA
ATOM      2  O   UNL     1      61.926  35.453  65.642  0.00  0.00    +0.000 OA
ATOM      3  C   UNL     1      61.812  39.070  67.594  0.00  0.00    +0.000 A 
ATOM      4  C   UNL     1      63.001  38.292  67.640  0.00  0.00    +0.000 A 
ATOM      5  C   UNL     1      61.734  40.294  68.239  0.00  0.00    +0.000 A 
ATOM      6  C   UNL     1      64.124  38.727  68.329  0.00  0.00    +0.000 A 
ATOM      7  C   UNL     1      62.863  40.728  68.929  0.00  0.00    +0.000 A 
ATOM      8  C   UNL     1      64.035  39.957  68.972  0.00  0.00    +0.000 A 
ATOM      9  C   UNL     1      60.762  38.479  66.848  0.00  0.00    +0.000 A 
ATOM     10  C   UNL     1      60.844  37.423  66.297  0.00  0.00    +0.000 A 
ATOM     11  C   UNL     1      61.957  36.515  66.241  0.00  0.00    +0.000 A 
ENDROOT
BRANCH   7  12
ATOM     12  O   UNL     1      62.866  41.927  69.593  0.00  0.00    +0.000 OA
ATOM     13  H   UNL     1      62.176  42.490  69.195  0.00  0.00    +0.000 HD
ENDBRANCH   7  12
BRANCH   8  14
ATOM     14  O   UNL     1      65.120  40.421  69.663  0.00  0.00    +0.000 OA
ATOM     15  H   UNL     1      65.762  40.699  68.978  0.00  0.00    +0.000 HD
ENDBRANCH   8  14
TORSDOF 2
ENDMDL
MODEL 7
REMARK VINA RESULT:      -4.5     23.611     24.281
REMARK  Name = 5281416_Esculetin.pdbqt.pdb
REMARK  2 active torsions:
REMARK  status: ('A' for Active; 'I' for Inactive)
REMARK    1  A    between atoms: C_7  and  O_12
REMARK    2  A    between atoms: C_8  and  O_14
REMARK                            x       y       z     vdW  Elec       q    Type
REMARK                         _______ _______ _______ _____ _____    ______ ____
ROOT
ATOM      1  O   UNL     1      69.660  56.618  64.322  0.00  0.00    +0.000 OA
ATOM      2  O   UNL     1      70.341  54.388  64.581  0.00  0.00    +0.000 OA
ATOM      3  C   UNL     1      69.844  58.072  66.340  0.00  0.00    +0.000 A 
ATOM      4  C   UNL     1      69.497  57.901  64.971  0.00  0.00    +0.000 A 
ATOM      5  C   UNL     1      69.691  59.297  66.967  0.00  0.00    +0.000 A 
ATOM      6  C   UNL     1      68.995  58.951  64.215  0.00  0.00    +0.000 A 
ATOM      7  C   UNL     1      69.186  60.349  66.206  0.00  0.00    +0.000 A 
ATOM      8  C   UNL     1      68.845  60.176  64.856  0.00  0.00    +0.000 A 
ATOM      9  C   UNL     1      70.341  56.899  66.960  0.00  0.00    +0.000 A 
ATOM     10  C   UNL     1      70.468  55.849  66.406  0.00  0.00    +0.000 A 
ATOM     11  C   UNL     1      70.170  55.504  65.043  0.00  0.00    +0.000 A 
ENDROOT
BRANCH   7  12
ATOM     12  O   UNL     1      69.006  61.591  66.754  0.00  0.00    +0.000 OA
ATOM     13  H   UNL     1      69.812  62.113  66.584  0.00  0.00    +0.000 HD
ENDBRANCH   7  12
BRANCH   8  14
ATOM     14  O   UNL     1      68.353  61.237  64.146  0.00  0.00    +0.000 OA
ATOM     15  H   UNL     1      68.984  61.968  64.304  0.00  0.00    +0.000 HD
ENDBRANCH   8  14
TORSDOF 2
ENDMDL
MODEL 8
REMARK VINA RESULT:      -4.4      3.731      5.482
REMARK  Name = 5281416_Esculetin.pdbqt.pdb
REMARK  2 active torsions:
REMARK  status: ('A' for Active; 'I' for Inactive)
REMARK    1  A    between atoms: C_7  and  O_12
REMARK    2  A    between atoms: C_8  and  O_14
REMARK                            x       y       z     vdW  Elec       q    Type
REMARK                         _______ _______ _______ _____ _____    ______ ____
ROOT
ATOM      1  O   UNL     1      66.259  35.075  55.645  0.00  0.00    +0.000 OA
ATOM      2  O   UNL     1      67.657  33.422  54.739  0.00  0.00    +0.000 OA
ATOM      3  C   UNL     1      63.816  34.578  55.644  0.00  0.00    +0.000 A 
ATOM      4  C   UNL     1      64.896  35.451  55.950  0.00  0.00    +0.000 A 
ATOM      5  C   UNL     1      62.508  34.931  55.933  0.00  0.00    +0.000 A 
ATOM      6  C   UNL     1      64.682  36.685  56.547  0.00  0.00    +0.000 A 
ATOM      7  C   UNL     1      62.297  36.170  56.533  0.00  0.00    +0.000 A 
ATOM      8  C   UNL     1      63.365  37.029  56.833  0.00  0.00    +0.000 A 
ATOM      9  C   UNL     1      64.212  33.360  55.037  0.00  0.00    +0.000 A 
ATOM     10  C   UNL     1      65.343  33.069  54.794  0.00  0.00    +0.000 A 
ATOM     11  C   UNL     1      66.543  33.823  55.033  0.00  0.00    +0.000 A 
ENDROOT
BRANCH   7  12
ATOM     12  O   UNL     1      61.032  36.592  56.850  0.00  0.00    +0.000 OA
ATOM     13  H   UNL     1      60.451  35.809  56.866  0.00  0.00    +0.000 HD
ENDBRANCH   7  12
BRANCH   8  14
ATOM     14  O   UNL     1      63.111  38.237  57.422  0.00  0.00    +0.000 OA
ATOM     15  H   UNL     1      62.139  38.275  57.526  0.00  0.00    +0.000 HD
ENDBRANCH   8  14
TORSDOF 2
ENDMDL
MODEL 9
REMARK VINA RESULT:      -4.3     30.287     31.219
REMARK  Name = 5281416_Esculetin.pdbqt.pdb
REMARK  2 active torsions:
REMARK  status: ('A' for Active; 'I' for Inactive)
REMARK    1  A    between atoms: C_7  and  O_12
REMARK    2  A    between atoms: C_8  and  O_14
REMARK                            x       y       z     vdW  Elec       q    Type
REMARK                         _______ _______ _______ _____ _____    ______ ____
ROOT
ATOM      1  O   UNL     1      57.266  64.808  68.090  0.00  0.00    +0.000 OA
ATOM      2  O   UNL     1      57.057  63.228  66.368  0.00  0.00    +0.000 OA
ATOM      3  C   UNL     1      59.567  65.663  68.531  0.00  0.00    +0.000 A 
ATOM      4  C   UNL     1      58.177  65.653  68.832  0.00  0.00    +0.000 A 
ATOM      5  C   UNL     1      60.444  66.469  69.237  0.00  0.00    +0.000 A 
ATOM      6  C   UNL     1      57.649  66.448  69.839  0.00  0.00    +0.000 A 
ATOM      7  C   UNL     1      59.911  67.266  70.248  0.00  0.00    +0.000 A 
ATOM      8  C   UNL     1      58.539  67.254  70.541  0.00  0.00    +0.000 A 
ATOM      9  C   UNL     1      59.936  64.793  67.475  0.00  0.00    +0.000 A 
ATOM     10  C   UNL     1      59.168  64.103  66.875  0.00  0.00    +0.000 A 
ATOM     11  C   UNL     1      57.747  63.971  67.046  0.00  0.00    +0.000 A 
ENDROOT
BRANCH   7  12
ATOM     12  O   UNL     1      60.713  68.091  70.991  0.00  0.00    +0.000 OA
ATOM     13  H   UNL     1      61.415  67.544  71.391  0.00  0.00    +0.000 HD
ENDBRANCH   7  12
BRANCH   8  14
ATOM     14  O   UNL     1      58.058  68.052  71.543  0.00  0.00    +0.000 OA
ATOM     15  H   UNL     1      57.084  67.989  71.478  0.00  0.00    +0.000 HD
ENDBRANCH   8  14
TORSDOF 2
ENDMDL
