MODEL 1
REMARK VINA RESULT:      -6.9      0.000      0.000
REMARK  Name = 5281239_Fucoxanthin.pdbqt.pdb
REMARK  19 active torsions:
REMARK  status: ('A' for Active; 'I' for Inactive)
REMARK    1  A    between atoms: C_1  and  C_5
REMARK    2  A    between atoms: C_2  and  C_26
REMARK    3  A    between atoms: C_3  and  C_5
REMARK    4  A    between atoms: C_3  and  C_7
REMARK    5  A    between atoms: C_6  and  C_10
REMARK    6  A    between atoms: C_8  and  C_10
REMARK    7  A    between atoms: C_8  and  C_12
REMARK    8  A    between atoms: C_12  and  C_13
REMARK    9  A    between atoms: C_13  and  C_15
REMARK   10  A    between atoms: C_20  and  O_24
REMARK   11  A    between atoms: C_26  and  C_27
REMARK   12  A    between atoms: C_27  and  C_30
REMARK   13  A    between atoms: C_29  and  C_33
REMARK   14  A    between atoms: C_31  and  C_33
REMARK   15  A    between atoms: C_31  and  C_44
REMARK   16  A    between atoms: C_35  and  O_45
REMARK   17  A    between atoms: C_37  and  O_47
REMARK   18  A    between atoms: C_39  and  C_43
REMARK   19  A    between atoms: O_47  and  C_49
REMARK                            x       y       z     vdW  Elec       q    Type
REMARK                         _______ _______ _______ _____ _____    ______ ____
ROOT
ATOM      1  C   UNL     1      67.397  63.291  65.478  0.00  0.00    +0.000 C 
ATOM      2  C   UNL     1      67.048  64.395  65.794  0.00  0.00    +0.000 C 
ENDROOT
BRANCH   2   3
ATOM      3  C   UNL     1      66.604  65.804  66.204  0.00  0.00    +0.000 C 
BRANCH   3   4
ATOM      4  C   UNL     1      66.232  66.996  66.551  0.00  0.00    +0.000 C 
ATOM      5  C   UNL     1      67.164  68.154  66.366  0.00  0.00    +0.000 C 
BRANCH   4   7
ATOM      6  C   UNL     1      63.821  67.392  67.489  0.00  0.00    +0.000 C 
ATOM      7  C   UNL     1      64.927  67.209  67.057  0.00  0.00    +0.000 C 
BRANCH   6   8
ATOM      8  C   UNL     1      62.411  67.629  68.041  0.00  0.00    +0.000 C 
BRANCH   8   9
ATOM      9  C   UNL     1      61.221  67.829  68.517  0.00  0.00    +0.000 C 
ATOM     10  C   UNL     1      60.996  68.869  69.570  0.00  0.00    +0.000 C 
BRANCH   9  12
ATOM     11  C   UNL     1      59.253  66.260  67.788  0.00  0.00    +0.000 C 
ATOM     12  C   UNL     1      60.155  66.982  68.124  0.00  0.00    +0.000 C 
BRANCH  11  18
ATOM     13  C   UNL     1      58.332  64.616  66.136  0.00  0.00    +0.000 C 
ATOM     14  C   UNL     1      56.972  65.400  68.211  0.00  0.00    +0.000 C 
ATOM     15  C   UNL     1      57.257  63.616  66.108  0.00  0.00    +0.000 C 
ATOM     16  C   UNL     1      56.117  63.252  66.850  0.00  0.00    +0.000 C 
ATOM     17  C   UNL     1      56.155  64.248  67.848  0.00  0.00    +0.000 C 
ATOM     18  C   UNL     1      58.267  65.469  67.416  0.00  0.00    +0.000 C 
ATOM     19  C   UNL     1      58.214  65.558  64.908  0.00  0.00    +0.000 C 
ATOM     20  C   UNL     1      59.696  63.862  66.096  0.00  0.00    +0.000 C 
ATOM     21  C   UNL     1      56.183  66.707  68.083  0.00  0.00    +0.000 C 
BRANCH  14  22
ATOM     22  O   UNL     1      57.278  65.293  69.583  0.00  0.00    +0.000 OA
ATOM     23  H   UNL     1      57.946  64.584  69.578  0.00  0.00    +0.000 HD
ENDBRANCH  14  22
BRANCH  16  24
ATOM     24  O   UNL     1      54.933  62.973  66.180  0.00  0.00    +0.000 OA
BRANCH  24  26
ATOM     25  O   UNL     1      55.830  60.864  65.680  0.00  0.00    +0.000 OA
ATOM     26  C   UNL     1      54.936  61.687  65.751  0.00  0.00    +0.000 C 
ATOM     27  C   UNL     1      53.613  61.203  65.271  0.00  0.00    +0.000 C 
ENDBRANCH  24  26
ENDBRANCH  16  24
ENDBRANCH  11  18
ENDBRANCH   9  12
ENDBRANCH   8   9
ENDBRANCH   6   8
ENDBRANCH   4   7
ENDBRANCH   3   4
ENDBRANCH   2   3
BRANCH   1  28
ATOM     28  C   UNL     1      67.844  61.878  65.086  0.00  0.00    +0.000 C 
BRANCH  28  29
ATOM     29  C   UNL     1      68.215  60.680  64.762  0.00  0.00    +0.000 C 
ATOM     30  C   UNL     1      69.294  59.994  65.543  0.00  0.00    +0.000 C 
BRANCH  29  32
ATOM     31  C   UNL     1      67.137  59.485  62.700  0.00  0.00    +0.000 C 
ATOM     32  C   UNL     1      67.625  60.038  63.647  0.00  0.00    +0.000 C 
BRANCH  31  33
ATOM     33  C   UNL     1      66.528  58.772  61.487  0.00  0.00    +0.000 C 
BRANCH  33  34
ATOM     34  C   UNL     1      66.011  58.159  60.463  0.00  0.00    +0.000 C 
ATOM     35  C   UNL     1      66.826  57.035  59.856  0.00  0.00    +0.000 C 
BRANCH  34  37
ATOM     36  O   UNL     1      64.545  59.674  59.339  0.00  0.00    +0.000 OA
ATOM     37  C   UNL     1      64.694  58.596  59.905  0.00  0.00    +0.000 C 
BRANCH  37  38
ATOM     38  C   UNL     1      63.526  57.754  60.010  0.00  0.00    +0.000 C 
BRANCH  38  40
ATOM     39  O   UNL     1      62.749  55.519  59.802  0.00  0.00    +0.000 OA
ATOM     40  C   UNL     1      62.372  56.884  60.133  0.00  0.00    +0.000 C 
ATOM     41  C   UNL     1      62.398  55.738  61.167  0.00  0.00    +0.000 C 
ATOM     42  C   UNL     1      60.975  57.373  59.607  0.00  0.00    +0.000 C 
ATOM     43  C   UNL     1      61.149  55.137  61.506  0.00  0.00    +0.000 C 
ATOM     44  C   UNL     1      59.973  56.439  60.125  0.00  0.00    +0.000 C 
ATOM     45  C   UNL     1      59.847  55.369  61.032  0.00  0.00    +0.000 C 
ATOM     46  C   UNL     1      63.563  55.518  62.136  0.00  0.00    +0.000 C 
ATOM     47  C   UNL     1      60.781  58.788  60.204  0.00  0.00    +0.000 C 
ATOM     48  C   UNL     1      61.084  57.391  58.067  0.00  0.00    +0.000 C 
BRANCH  45  49
ATOM     49  O   UNL     1      58.741  55.228  61.815  0.00  0.00    +0.000 OA
ATOM     50  H   UNL     1      58.837  54.511  62.467  0.00  0.00    +0.000 HD
ENDBRANCH  45  49
ENDBRANCH  38  40
ENDBRANCH  37  38
ENDBRANCH  34  37
ENDBRANCH  33  34
ENDBRANCH  31  33
ENDBRANCH  29  32
ENDBRANCH  28  29
ENDBRANCH   1  28
TORSDOF 19
ENDMDL
MODEL 2
REMARK VINA RESULT:      -6.6     13.483     19.182
REMARK  Name = 5281239_Fucoxanthin.pdbqt.pdb
REMARK  19 active torsions:
REMARK  status: ('A' for Active; 'I' for Inactive)
REMARK    1  A    between atoms: C_1  and  C_5
REMARK    2  A    between atoms: C_2  and  C_26
REMARK    3  A    between atoms: C_3  and  C_5
REMARK    4  A    between atoms: C_3  and  C_7
REMARK    5  A    between atoms: C_6  and  C_10
REMARK    6  A    between atoms: C_8  and  C_10
REMARK    7  A    between atoms: C_8  and  C_12
REMARK    8  A    between atoms: C_12  and  C_13
REMARK    9  A    between atoms: C_13  and  C_15
REMARK   10  A    between atoms: C_20  and  O_24
REMARK   11  A    between atoms: C_26  and  C_27
REMARK   12  A    between atoms: C_27  and  C_30
REMARK   13  A    between atoms: C_29  and  C_33
REMARK   14  A    between atoms: C_31  and  C_33
REMARK   15  A    between atoms: C_31  and  C_44
REMARK   16  A    between atoms: C_35  and  O_45
REMARK   17  A    between atoms: C_37  and  O_47
REMARK   18  A    between atoms: C_39  and  C_43
REMARK   19  A    between atoms: O_47  and  C_49
REMARK                            x       y       z     vdW  Elec       q    Type
REMARK                         _______ _______ _______ _____ _____    ______ ____
ROOT
ATOM      1  C   UNL     1      65.224  45.229  54.706  0.00  0.00    +0.000 C 
ATOM      2  C   UNL     1      66.070  45.896  55.236  0.00  0.00    +0.000 C 
ENDROOT
BRANCH   2   3
ATOM      3  C   UNL     1      67.145  46.749  55.919  0.00  0.00    +0.000 C 
BRANCH   3   4
ATOM      4  C   UNL     1      68.053  47.473  56.494  0.00  0.00    +0.000 C 
ATOM      5  C   UNL     1      69.503  47.147  56.303  0.00  0.00    +0.000 C 
BRANCH   4   7
ATOM      6  C   UNL     1      67.355  49.558  57.913  0.00  0.00    +0.000 C 
ATOM      7  C   UNL     1      67.674  48.601  57.260  0.00  0.00    +0.000 C 
BRANCH   6   8
ATOM      8  C   UNL     1      66.952  50.780  58.746  0.00  0.00    +0.000 C 
BRANCH   8   9
ATOM      9  C   UNL     1      66.610  51.819  59.441  0.00  0.00    +0.000 C 
ATOM     10  C   UNL     1      67.597  52.470  60.361  0.00  0.00    +0.000 C 
BRANCH   9  12
ATOM     11  C   UNL     1      64.125  52.650  59.406  0.00  0.00    +0.000 C 
ATOM     12  C   UNL     1      65.266  52.270  59.419  0.00  0.00    +0.000 C 
BRANCH  11  18
ATOM     13  C   UNL     1      61.734  52.220  58.791  0.00  0.00    +0.000 C 
ATOM     14  C   UNL     1      62.492  54.435  59.927  0.00  0.00    +0.000 C 
ATOM     15  C   UNL     1      60.419  52.758  59.165  0.00  0.00    +0.000 C 
ATOM     16  C   UNL     1      59.872  53.870  59.834  0.00  0.00    +0.000 C 
ATOM     17  C   UNL     1      61.056  54.573  60.137  0.00  0.00    +0.000 C 
ATOM     18  C   UNL     1      62.873  53.063  59.393  0.00  0.00    +0.000 C 
ATOM     19  C   UNL     1      61.886  52.216  57.246  0.00  0.00    +0.000 C 
ATOM     20  C   UNL     1      61.835  50.763  59.337  0.00  0.00    +0.000 C 
ATOM     21  C   UNL     1      63.033  55.544  59.018  0.00  0.00    +0.000 C 
BRANCH  14  22
ATOM     22  O   UNL     1      63.128  54.641  61.168  0.00  0.00    +0.000 OA
ATOM     23  H   UNL     1      64.040  54.840  60.888  0.00  0.00    +0.000 HD
ENDBRANCH  14  22
BRANCH  16  24
ATOM     24  O   UNL     1      58.786  54.530  59.272  0.00  0.00    +0.000 OA
BRANCH  24  26
ATOM     25  O   UNL     1      59.477  54.875  57.057  0.00  0.00    +0.000 OA
ATOM     26  C   UNL     1      59.184  55.233  58.183  0.00  0.00    +0.000 C 
ATOM     27  C   UNL     1      59.292  56.699  58.411  0.00  0.00    +0.000 C 
ENDBRANCH  24  26
ENDBRANCH  16  24
ENDBRANCH  11  18
ENDBRANCH   9  12
ENDBRANCH   8   9
ENDBRANCH   6   8
ENDBRANCH   4   7
ENDBRANCH   3   4
ENDBRANCH   2   3
BRANCH   1  28
ATOM     28  C   UNL     1      64.137  44.379  54.038  0.00  0.00    +0.000 C 
BRANCH  28  29
ATOM     29  C   UNL     1      63.211  43.666  53.479  0.00  0.00    +0.000 C 
ATOM     30  C   UNL     1      62.576  44.128  52.203  0.00  0.00    +0.000 C 
BRANCH  29  32
ATOM     31  C   UNL     1      62.407  41.461  54.636  0.00  0.00    +0.000 C 
ATOM     32  C   UNL     1      62.775  42.470  54.098  0.00  0.00    +0.000 C 
BRANCH  31  33
ATOM     33  C   UNL     1      61.940  40.180  55.338  0.00  0.00    +0.000 C 
BRANCH  33  34
ATOM     34  C   UNL     1      61.549  39.089  55.926  0.00  0.00    +0.000 C 
ATOM     35  C   UNL     1      60.068  38.966  56.223  0.00  0.00    +0.000 C 
BRANCH  34  37
ATOM     36  O   UNL     1      62.695  37.685  57.484  0.00  0.00    +0.000 OA
ATOM     37  C   UNL     1      62.543  38.043  56.320  0.00  0.00    +0.000 C 
BRANCH  37  38
ATOM     38  C   UNL     1      63.375  37.399  55.331  0.00  0.00    +0.000 C 
BRANCH  38  40
ATOM     39  O   UNL     1      63.639  36.848  53.036  0.00  0.00    +0.000 OA
ATOM     40  C   UNL     1      64.223  36.731  54.363  0.00  0.00    +0.000 C 
ATOM     41  C   UNL     1      64.863  37.555  53.226  0.00  0.00    +0.000 C 
ATOM     42  C   UNL     1      64.868  35.346  54.725  0.00  0.00    +0.000 C 
ATOM     43  C   UNL     1      65.947  36.956  52.516  0.00  0.00    +0.000 C 
ATOM     44  C   UNL     1      65.884  35.068  53.707  0.00  0.00    +0.000 C 
ATOM     45  C   UNL     1      66.547  35.690  52.631  0.00  0.00    +0.000 C 
ATOM     46  C   UNL     1      64.711  39.074  53.110  0.00  0.00    +0.000 C 
ATOM     47  C   UNL     1      65.514  35.543  56.118  0.00  0.00    +0.000 C 
ATOM     48  C   UNL     1      63.706  34.329  54.751  0.00  0.00    +0.000 C 
BRANCH  45  49
ATOM     49  O   UNL     1      67.871  35.477  52.394  0.00  0.00    +0.000 OA
ATOM     50  H   UNL     1      68.405  36.281  52.522  0.00  0.00    +0.000 HD
ENDBRANCH  45  49
ENDBRANCH  38  40
ENDBRANCH  37  38
ENDBRANCH  34  37
ENDBRANCH  33  34
ENDBRANCH  31  33
ENDBRANCH  29  32
ENDBRANCH  28  29
ENDBRANCH   1  28
TORSDOF 19
ENDMDL
MODEL 3
REMARK VINA RESULT:      -6.6      7.529     15.567
REMARK  Name = 5281239_Fucoxanthin.pdbqt.pdb
REMARK  19 active torsions:
REMARK  status: ('A' for Active; 'I' for Inactive)
REMARK    1  A    between atoms: C_1  and  C_5
REMARK    2  A    between atoms: C_2  and  C_26
REMARK    3  A    between atoms: C_3  and  C_5
REMARK    4  A    between atoms: C_3  and  C_7
REMARK    5  A    between atoms: C_6  and  C_10
REMARK    6  A    between atoms: C_8  and  C_10
REMARK    7  A    between atoms: C_8  and  C_12
REMARK    8  A    between atoms: C_12  and  C_13
REMARK    9  A    between atoms: C_13  and  C_15
REMARK   10  A    between atoms: C_20  and  O_24
REMARK   11  A    between atoms: C_26  and  C_27
REMARK   12  A    between atoms: C_27  and  C_30
REMARK   13  A    between atoms: C_29  and  C_33
REMARK   14  A    between atoms: C_31  and  C_33
REMARK   15  A    between atoms: C_31  and  C_44
REMARK   16  A    between atoms: C_35  and  O_45
REMARK   17  A    between atoms: C_37  and  O_47
REMARK   18  A    between atoms: C_39  and  C_43
REMARK   19  A    between atoms: O_47  and  C_49
REMARK                            x       y       z     vdW  Elec       q    Type
REMARK                         _______ _______ _______ _____ _____    ______ ____
ROOT
ATOM      1  C   UNL     1      66.570  54.644  60.351  0.00  0.00    +0.000 C 
ATOM      2  C   UNL     1      66.938  53.506  60.257  0.00  0.00    +0.000 C 
ENDROOT
BRANCH   2   3
ATOM      3  C   UNL     1      67.406  52.050  60.144  0.00  0.00    +0.000 C 
BRANCH   3   4
ATOM      4  C   UNL     1      67.802  50.820  60.045  0.00  0.00    +0.000 C 
ATOM      5  C   UNL     1      68.599  50.199  61.152  0.00  0.00    +0.000 C 
BRANCH   4   7
ATOM      6  C   UNL     1      67.125  49.396  57.957  0.00  0.00    +0.000 C 
ATOM      7  C   UNL     1      67.437  50.051  58.915  0.00  0.00    +0.000 C 
BRANCH   6   8
ATOM      8  C   UNL     1      66.722  48.561  56.737  0.00  0.00    +0.000 C 
BRANCH   8   9
ATOM      9  C   UNL     1      66.389  47.847  55.707  0.00  0.00    +0.000 C 
ATOM     10  C   UNL     1      67.446  47.252  54.828  0.00  0.00    +0.000 C 
BRANCH   9  12
ATOM     11  C   UNL     1      63.864  47.632  55.039  0.00  0.00    +0.000 C 
ATOM     12  C   UNL     1      65.024  47.727  55.345  0.00  0.00    +0.000 C 
BRANCH  11  18
ATOM     13  C   UNL     1      62.069  46.409  53.790  0.00  0.00    +0.000 C 
ATOM     14  C   UNL     1      61.573  48.555  55.175  0.00  0.00    +0.000 C 
ATOM     15  C   UNL     1      60.601  46.339  53.820  0.00  0.00    +0.000 C 
ATOM     16  C   UNL     1      59.510  47.045  54.362  0.00  0.00    +0.000 C 
ATOM     17  C   UNL     1      60.200  48.098  54.998  0.00  0.00    +0.000 C 
ATOM     18  C   UNL     1      62.593  47.528  54.708  0.00  0.00    +0.000 C 
ATOM     19  C   UNL     1      62.557  46.687  52.343  0.00  0.00    +0.000 C 
ATOM     20  C   UNL     1      62.629  45.040  54.284  0.00  0.00    +0.000 C 
ATOM     21  C   UNL     1      61.804  49.905  54.489  0.00  0.00    +0.000 C 
BRANCH  14  22
ATOM     22  O   UNL     1      61.767  48.807  56.549  0.00  0.00    +0.000 OA
ATOM     23  H   UNL     1      60.892  48.580  56.913  0.00  0.00    +0.000 HD
ENDBRANCH  14  22
BRANCH  16  24
ATOM     24  O   UNL     1      58.410  47.310  53.558  0.00  0.00    +0.000 OA
BRANCH  24  26
ATOM     25  O   UNL     1      56.609  48.438  54.553  0.00  0.00    +0.000 OA
ATOM     26  C   UNL     1      57.301  47.464  54.324  0.00  0.00    +0.000 C 
ATOM     27  C   UNL     1      56.863  46.221  55.016  0.00  0.00    +0.000 C 
ENDBRANCH  24  26
ENDBRANCH  16  24
ENDBRANCH  11  18
ENDBRANCH   9  12
ENDBRANCH   8   9
ENDBRANCH   6   8
ENDBRANCH   4   7
ENDBRANCH   3   4
ENDBRANCH   2   3
BRANCH   1  28
ATOM     28  C   UNL     1      66.098  56.097  60.481  0.00  0.00    +0.000 C 
BRANCH  28  29
ATOM     29  C   UNL     1      65.703  57.327  60.580  0.00  0.00    +0.000 C 
ATOM     30  C   UNL     1      66.660  58.389  61.027  0.00  0.00    +0.000 C 
BRANCH  29  32
ATOM     31  C   UNL     1      63.215  57.949  60.061  0.00  0.00    +0.000 C 
ATOM     32  C   UNL     1      64.354  57.656  60.302  0.00  0.00    +0.000 C 
BRANCH  31  33
ATOM     33  C   UNL     1      61.765  58.336  59.748  0.00  0.00    +0.000 C 
BRANCH  33  34
ATOM     34  C   UNL     1      60.533  58.656  59.481  0.00  0.00    +0.000 C 
ATOM     35  C   UNL     1      60.074  60.031  59.921  0.00  0.00    +0.000 C 
BRANCH  34  37
ATOM     36  O   UNL     1      58.758  58.018  58.014  0.00  0.00    +0.000 OA
ATOM     37  C   UNL     1      59.624  57.674  58.812  0.00  0.00    +0.000 C 
BRANCH  37  38
ATOM     38  C   UNL     1      59.733  56.260  59.080  0.00  0.00    +0.000 C 
BRANCH  38  40
ATOM     39  O   UNL     1      58.701  54.405  60.146  0.00  0.00    +0.000 OA
ATOM     40  C   UNL     1      59.820  54.833  59.322  0.00  0.00    +0.000 C 
ATOM     41  C   UNL     1      58.695  53.910  58.808  0.00  0.00    +0.000 C 
ATOM     42  C   UNL     1      61.215  54.187  59.645  0.00  0.00    +0.000 C 
ATOM     43  C   UNL     1      58.972  52.511  58.750  0.00  0.00    +0.000 C 
ATOM     44  C   UNL     1      61.047  52.735  59.545  0.00  0.00    +0.000 C 
ATOM     45  C   UNL     1      60.109  51.773  59.122  0.00  0.00    +0.000 C 
ATOM     46  C   UNL     1      57.514  54.421  57.978  0.00  0.00    +0.000 C 
ATOM     47  C   UNL     1      62.177  54.714  58.553  0.00  0.00    +0.000 C 
ATOM     48  C   UNL     1      61.596  54.682  61.058  0.00  0.00    +0.000 C 
BRANCH  45  49
ATOM     49  O   UNL     1      60.497  50.640  58.474  0.00  0.00    +0.000 OA
ATOM     50  H   UNL     1      60.883  49.981  59.077  0.00  0.00    +0.000 HD
ENDBRANCH  45  49
ENDBRANCH  38  40
ENDBRANCH  37  38
ENDBRANCH  34  37
ENDBRANCH  33  34
ENDBRANCH  31  33
ENDBRANCH  29  32
ENDBRANCH  28  29
ENDBRANCH   1  28
TORSDOF 19
ENDMDL
MODEL 4
REMARK VINA RESULT:      -6.5     14.951     20.798
REMARK  Name = 5281239_Fucoxanthin.pdbqt.pdb
REMARK  19 active torsions:
REMARK  status: ('A' for Active; 'I' for Inactive)
REMARK    1  A    between atoms: C_1  and  C_5
REMARK    2  A    between atoms: C_2  and  C_26
REMARK    3  A    between atoms: C_3  and  C_5
REMARK    4  A    between atoms: C_3  and  C_7
REMARK    5  A    between atoms: C_6  and  C_10
REMARK    6  A    between atoms: C_8  and  C_10
REMARK    7  A    between atoms: C_8  and  C_12
REMARK    8  A    between atoms: C_12  and  C_13
REMARK    9  A    between atoms: C_13  and  C_15
REMARK   10  A    between atoms: C_20  and  O_24
REMARK   11  A    between atoms: C_26  and  C_27
REMARK   12  A    between atoms: C_27  and  C_30
REMARK   13  A    between atoms: C_29  and  C_33
REMARK   14  A    between atoms: C_31  and  C_33
REMARK   15  A    between atoms: C_31  and  C_44
REMARK   16  A    between atoms: C_35  and  O_45
REMARK   17  A    between atoms: C_37  and  O_47
REMARK   18  A    between atoms: C_39  and  C_43
REMARK   19  A    between atoms: O_47  and  C_49
REMARK                            x       y       z     vdW  Elec       q    Type
REMARK                         _______ _______ _______ _____ _____    ______ ____
ROOT
ATOM      1  C   UNL     1      67.407  41.704  53.876  0.00  0.00    +0.000 C 
ATOM      2  C   UNL     1      66.760  42.696  54.068  0.00  0.00    +0.000 C 
ENDROOT
BRANCH   2   3
ATOM      3  C   UNL     1      65.926  43.959  54.313  0.00  0.00    +0.000 C 
BRANCH   3   4
ATOM      4  C   UNL     1      65.217  45.024  54.519  0.00  0.00    +0.000 C 
ATOM      5  C   UNL     1      63.813  45.100  54.002  0.00  0.00    +0.000 C 
BRANCH   4   7
ATOM      6  C   UNL     1      66.208  47.000  55.919  0.00  0.00    +0.000 C 
ATOM      7  C   UNL     1      65.755  46.094  55.275  0.00  0.00    +0.000 C 
BRANCH   6   8
ATOM      8  C   UNL     1      66.788  48.155  56.745  0.00  0.00    +0.000 C 
BRANCH   8   9
ATOM      9  C   UNL     1      67.269  49.131  57.449  0.00  0.00    +0.000 C 
ATOM     10  C   UNL     1      68.708  49.125  57.863  0.00  0.00    +0.000 C 
BRANCH   9  12
ATOM     11  C   UNL     1      65.673  51.015  58.327  0.00  0.00    +0.000 C 
ATOM     12  C   UNL     1      66.404  50.148  57.926  0.00  0.00    +0.000 C 
BRANCH  11  18
ATOM     13  C   UNL     1      63.343  51.831  58.754  0.00  0.00    +0.000 C 
ATOM     14  C   UNL     1      65.434  53.290  59.270  0.00  0.00    +0.000 C 
ATOM     15  C   UNL     1      62.707  52.881  59.562  0.00  0.00    +0.000 C 
ATOM     16  C   UNL     1      63.064  54.039  60.278  0.00  0.00    +0.000 C 
ATOM     17  C   UNL     1      64.449  54.064  60.016  0.00  0.00    +0.000 C 
ATOM     18  C   UNL     1      64.876  51.967  58.769  0.00  0.00    +0.000 C 
ATOM     19  C   UNL     1      62.853  51.924  57.284  0.00  0.00    +0.000 C 
ATOM     20  C   UNL     1      62.948  50.449  59.358  0.00  0.00    +0.000 C 
ATOM     21  C   UNL     1      66.027  54.105  58.117  0.00  0.00    +0.000 C 
BRANCH  14  22
ATOM     22  O   UNL     1      66.521  53.036  60.132  0.00  0.00    +0.000 OA
ATOM     23  H   UNL     1      66.088  53.069  61.005  0.00  0.00    +0.000 HD
ENDBRANCH  14  22
BRANCH  16  24
ATOM     24  O   UNL     1      62.299  55.189  60.129  0.00  0.00    +0.000 OA
BRANCH  24  26
ATOM     25  O   UNL     1      61.548  55.088  62.350  0.00  0.00    +0.000 OA
ATOM     26  C   UNL     1      61.421  55.298  61.157  0.00  0.00    +0.000 C 
ATOM     27  C   UNL     1      60.061  55.744  60.751  0.00  0.00    +0.000 C 
ENDBRANCH  24  26
ENDBRANCH  16  24
ENDBRANCH  11  18
ENDBRANCH   9  12
ENDBRANCH   8   9
ENDBRANCH   6   8
ENDBRANCH   4   7
ENDBRANCH   3   4
ENDBRANCH   2   3
BRANCH   1  28
ATOM     28  C   UNL     1      68.226  40.431  53.631  0.00  0.00    +0.000 C 
BRANCH  28  29
ATOM     29  C   UNL     1      68.928  39.362  53.423  0.00  0.00    +0.000 C 
ATOM     30  C   UNL     1      70.396  39.471  53.148  0.00  0.00    +0.000 C 
BRANCH  29  32
ATOM     31  C   UNL     1      67.754  37.024  53.400  0.00  0.00    +0.000 C 
ATOM     32  C   UNL     1      68.295  38.096  53.418  0.00  0.00    +0.000 C 
BRANCH  31  33
ATOM     33  C   UNL     1      67.058  35.658  53.362  0.00  0.00    +0.000 C 
BRANCH  33  34
ATOM     34  C   UNL     1      66.463  34.502  53.338  0.00  0.00    +0.000 C 
ATOM     35  C   UNL     1      67.279  33.325  52.846  0.00  0.00    +0.000 C 
BRANCH  34  37
ATOM     36  O   UNL     1      64.464  33.297  53.851  0.00  0.00    +0.000 OA
ATOM     37  C   UNL     1      65.027  34.382  53.739  0.00  0.00    +0.000 C 
BRANCH  37  38
ATOM     38  C   UNL     1      64.233  35.555  54.017  0.00  0.00    +0.000 C 
BRANCH  38  40
ATOM     39  O   UNL     1      64.085  37.917  53.814  0.00  0.00    +0.000 OA
ATOM     40  C   UNL     1      63.434  36.724  54.331  0.00  0.00    +0.000 C 
ATOM     41  C   UNL     1      62.855  37.573  53.179  0.00  0.00    +0.000 C 
ATOM     42  C   UNL     1      62.766  36.848  55.747  0.00  0.00    +0.000 C 
ATOM     43  C   UNL     1      61.807  38.486  53.504  0.00  0.00    +0.000 C 
ATOM     44  C   UNL     1      61.804  37.949  55.671  0.00  0.00    +0.000 C 
ATOM     45  C   UNL     1      61.199  38.804  54.730  0.00  0.00    +0.000 C 
ATOM     46  C   UNL     1      63.018  37.196  51.704  0.00  0.00    +0.000 C 
ATOM     47  C   UNL     1      62.050  35.496  55.986  0.00  0.00    +0.000 C 
ATOM     48  C   UNL     1      63.923  37.088  56.742  0.00  0.00    +0.000 C 
BRANCH  45  49
ATOM     49  O   UNL     1      59.888  39.160  54.832  0.00  0.00    +0.000 OA
ATOM     50  H   UNL     1      59.291  38.393  54.783  0.00  0.00    +0.000 HD
ENDBRANCH  45  49
ENDBRANCH  38  40
ENDBRANCH  37  38
ENDBRANCH  34  37
ENDBRANCH  33  34
ENDBRANCH  31  33
ENDBRANCH  29  32
ENDBRANCH  28  29
ENDBRANCH   1  28
TORSDOF 19
ENDMDL
MODEL 5
REMARK VINA RESULT:      -6.4      2.135      3.754
REMARK  Name = 5281239_Fucoxanthin.pdbqt.pdb
REMARK  19 active torsions:
REMARK  status: ('A' for Active; 'I' for Inactive)
REMARK    1  A    between atoms: C_1  and  C_5
REMARK    2  A    between atoms: C_2  and  C_26
REMARK    3  A    between atoms: C_3  and  C_5
REMARK    4  A    between atoms: C_3  and  C_7
REMARK    5  A    between atoms: C_6  and  C_10
REMARK    6  A    between atoms: C_8  and  C_10
REMARK    7  A    between atoms: C_8  and  C_12
REMARK    8  A    between atoms: C_12  and  C_13
REMARK    9  A    between atoms: C_13  and  C_15
REMARK   10  A    between atoms: C_20  and  O_24
REMARK   11  A    between atoms: C_26  and  C_27
REMARK   12  A    between atoms: C_27  and  C_30
REMARK   13  A    between atoms: C_29  and  C_33
REMARK   14  A    between atoms: C_31  and  C_33
REMARK   15  A    between atoms: C_31  and  C_44
REMARK   16  A    between atoms: C_35  and  O_45
REMARK   17  A    between atoms: C_37  and  O_47
REMARK   18  A    between atoms: C_39  and  C_43
REMARK   19  A    between atoms: O_47  and  C_49
REMARK                            x       y       z     vdW  Elec       q    Type
REMARK                         _______ _______ _______ _____ _____    ______ ____
ROOT
ATOM      1  C   UNL     1      66.743  62.525  61.563  0.00  0.00    +0.000 C 
ATOM      2  C   UNL     1      67.063  63.345  62.378  0.00  0.00    +0.000 C 
ENDROOT
BRANCH   2   3
ATOM      3  C   UNL     1      67.477  64.397  63.414  0.00  0.00    +0.000 C 
BRANCH   3   4
ATOM      4  C   UNL     1      67.824  65.289  64.289  0.00  0.00    +0.000 C 
ATOM      5  C   UNL     1      69.274  65.589  64.515  0.00  0.00    +0.000 C 
BRANCH   4   7
ATOM      6  C   UNL     1      65.986  66.626  65.584  0.00  0.00    +0.000 C 
ATOM      7  C   UNL     1      66.831  66.012  64.991  0.00  0.00    +0.000 C 
BRANCH   6   8
ATOM      8  C   UNL     1      64.904  67.406  66.341  0.00  0.00    +0.000 C 
BRANCH   8   9
ATOM      9  C   UNL     1      63.995  68.064  66.989  0.00  0.00    +0.000 C 
ATOM     10  C   UNL     1      64.301  69.418  67.552  0.00  0.00    +0.000 C 
BRANCH   9  12
ATOM     11  C   UNL     1      61.684  66.939  67.500  0.00  0.00    +0.000 C 
ATOM     12  C   UNL     1      62.747  67.453  67.266  0.00  0.00    +0.000 C 
BRANCH  11  18
ATOM     13  C   UNL     1      60.030  66.126  69.197  0.00  0.00    +0.000 C 
ATOM     14  C   UNL     1      59.612  65.896  66.640  0.00  0.00    +0.000 C 
ATOM     15  C   UNL     1      58.603  65.777  69.219  0.00  0.00    +0.000 C 
ATOM     16  C   UNL     1      57.555  65.509  68.317  0.00  0.00    +0.000 C 
ATOM     17  C   UNL     1      58.255  65.624  67.098  0.00  0.00    +0.000 C 
ATOM     18  C   UNL     1      60.520  66.379  67.760  0.00  0.00    +0.000 C 
ATOM     19  C   UNL     1      60.868  64.971  69.808  0.00  0.00    +0.000 C 
ATOM     20  C   UNL     1      60.224  67.424  70.038  0.00  0.00    +0.000 C 
ATOM     21  C   UNL     1      60.217  64.680  65.933  0.00  0.00    +0.000 C 
BRANCH  14  22
ATOM     22  O   UNL     1      59.536  66.893  65.645  0.00  0.00    +0.000 OA
ATOM     23  H   UNL     1      58.685  67.317  65.860  0.00  0.00    +0.000 HD
ENDBRANCH  14  22
BRANCH  16  24
ATOM     24  O   UNL     1      56.723  64.422  68.550  0.00  0.00    +0.000 OA
BRANCH  24  26
ATOM     25  O   UNL     1      54.811  65.376  67.580  0.00  0.00    +0.000 OA
ATOM     26  C   UNL     1      55.632  64.493  67.747  0.00  0.00    +0.000 C 
ATOM     27  C   UNL     1      55.393  63.268  66.936  0.00  0.00    +0.000 C 
ENDBRANCH  24  26
ENDBRANCH  16  24
ENDBRANCH  11  18
ENDBRANCH   9  12
ENDBRANCH   8   9
ENDBRANCH   6   8
ENDBRANCH   4   7
ENDBRANCH   3   4
ENDBRANCH   2   3
BRANCH   1  28
ATOM     28  C   UNL     1      66.339  61.482  60.515  0.00  0.00    +0.000 C 
BRANCH  28  29
ATOM     29  C   UNL     1      65.989  60.606  59.627  0.00  0.00    +0.000 C 
ATOM     30  C   UNL     1      65.315  61.048  58.363  0.00  0.00    +0.000 C 
BRANCH  29  32
ATOM     31  C   UNL     1      66.389  58.058  60.067  0.00  0.00    +0.000 C 
ATOM     32  C   UNL     1      66.208  59.229  59.872  0.00  0.00    +0.000 C 
BRANCH  31  33
ATOM     33  C   UNL     1      66.611  56.559  60.302  0.00  0.00    +0.000 C 
BRANCH  33  34
ATOM     34  C   UNL     1      66.792  55.288  60.504  0.00  0.00    +0.000 C 
ATOM     35  C   UNL     1      68.167  54.859  60.972  0.00  0.00    +0.000 C 
BRANCH  34  37
ATOM     36  O   UNL     1      65.902  53.146  59.929  0.00  0.00    +0.000 OA
ATOM     37  C   UNL     1      65.688  54.314  60.235  0.00  0.00    +0.000 C 
BRANCH  37  38
ATOM     38  C   UNL     1      64.305  54.716  60.328  0.00  0.00    +0.000 C 
BRANCH  38  40
ATOM     39  O   UNL     1      62.339  55.114  59.055  0.00  0.00    +0.000 OA
ATOM     40  C   UNL     1      62.908  55.100  60.394  0.00  0.00    +0.000 C 
ATOM     41  C   UNL     1      61.829  54.103  59.922  0.00  0.00    +0.000 C 
ATOM     42  C   UNL     1      62.470  56.264  61.353  0.00  0.00    +0.000 C 
ATOM     43  C   UNL     1      60.482  54.362  60.318  0.00  0.00    +0.000 C 
ATOM     44  C   UNL     1      61.008  56.225  61.431  0.00  0.00    +0.000 C 
ATOM     45  C   UNL     1      59.917  55.418  61.055  0.00  0.00    +0.000 C 
ATOM     46  C   UNL     1      62.155  52.681  59.455  0.00  0.00    +0.000 C 
ATOM     47  C   UNL     1      63.111  55.933  62.723  0.00  0.00    +0.000 C 
ATOM     48  C   UNL     1      63.035  57.561  60.734  0.00  0.00    +0.000 C 
BRANCH  45  49
ATOM     49  O   UNL     1      58.840  55.252  61.872  0.00  0.00    +0.000 OA
ATOM     50  H   UNL     1      58.251  56.028  61.871  0.00  0.00    +0.000 HD
ENDBRANCH  45  49
ENDBRANCH  38  40
ENDBRANCH  37  38
ENDBRANCH  34  37
ENDBRANCH  33  34
ENDBRANCH  31  33
ENDBRANCH  29  32
ENDBRANCH  28  29
ENDBRANCH   1  28
TORSDOF 19
ENDMDL
MODEL 6
REMARK VINA RESULT:      -6.4      5.664     12.104
REMARK  Name = 5281239_Fucoxanthin.pdbqt.pdb
REMARK  19 active torsions:
REMARK  status: ('A' for Active; 'I' for Inactive)
REMARK    1  A    between atoms: C_1  and  C_5
REMARK    2  A    between atoms: C_2  and  C_26
REMARK    3  A    between atoms: C_3  and  C_5
REMARK    4  A    between atoms: C_3  and  C_7
REMARK    5  A    between atoms: C_6  and  C_10
REMARK    6  A    between atoms: C_8  and  C_10
REMARK    7  A    between atoms: C_8  and  C_12
REMARK    8  A    between atoms: C_12  and  C_13
REMARK    9  A    between atoms: C_13  and  C_15
REMARK   10  A    between atoms: C_20  and  O_24
REMARK   11  A    between atoms: C_26  and  C_27
REMARK   12  A    between atoms: C_27  and  C_30
REMARK   13  A    between atoms: C_29  and  C_33
REMARK   14  A    between atoms: C_31  and  C_33
REMARK   15  A    between atoms: C_31  and  C_44
REMARK   16  A    between atoms: C_35  and  O_45
REMARK   17  A    between atoms: C_37  and  O_47
REMARK   18  A    between atoms: C_39  and  C_43
REMARK   19  A    between atoms: O_47  and  C_49
REMARK                            x       y       z     vdW  Elec       q    Type
REMARK                         _______ _______ _______ _____ _____    ______ ____
ROOT
ATOM      1  C   UNL     1      61.110  53.305  58.125  0.00  0.00    +0.000 C 
ATOM      2  C   UNL     1      61.419  53.966  59.077  0.00  0.00    +0.000 C 
ENDROOT
BRANCH   2   3
ATOM      3  C   UNL     1      61.822  54.809  60.294  0.00  0.00    +0.000 C 
BRANCH   3   4
ATOM      4  C   UNL     1      62.159  55.523  61.321  0.00  0.00    +0.000 C 
ATOM      5  C   UNL     1      61.310  55.503  62.556  0.00  0.00    +0.000 C 
BRANCH   4   7
ATOM      6  C   UNL     1      64.370  56.921  61.268  0.00  0.00    +0.000 C 
ATOM      7  C   UNL     1      63.354  56.280  61.293  0.00  0.00    +0.000 C 
BRANCH   6   8
ATOM      8  C   UNL     1      65.667  57.736  61.232  0.00  0.00    +0.000 C 
BRANCH   8   9
ATOM      9  C   UNL     1      66.769  58.420  61.210  0.00  0.00    +0.000 C 
ATOM     10  C   UNL     1      68.018  57.820  60.642  0.00  0.00    +0.000 C 
BRANCH   9  12
ATOM     11  C   UNL     1      66.867  60.775  62.355  0.00  0.00    +0.000 C 
ATOM     12  C   UNL     1      66.819  59.694  61.829  0.00  0.00    +0.000 C 
BRANCH  11  18
ATOM     13  C   UNL     1      67.246  63.244  62.155  0.00  0.00    +0.000 C 
ATOM     14  C   UNL     1      66.721  62.107  64.435  0.00  0.00    +0.000 C 
ATOM     15  C   UNL     1      66.953  64.440  62.955  0.00  0.00    +0.000 C 
ATOM     16  C   UNL     1      66.551  64.778  64.262  0.00  0.00    +0.000 C 
ATOM     17  C   UNL     1      66.484  63.490  64.831  0.00  0.00    +0.000 C 
ATOM     18  C   UNL     1      66.922  61.957  62.935  0.00  0.00    +0.000 C 
ATOM     19  C   UNL     1      68.749  63.220  61.766  0.00  0.00    +0.000 C 
ATOM     20  C   UNL     1      66.367  63.294  60.868  0.00  0.00    +0.000 C 
ATOM     21  C   UNL     1      67.897  61.499  65.206  0.00  0.00    +0.000 C 
BRANCH  14  22
ATOM     22  O   UNL     1      65.598  61.350  64.829  0.00  0.00    +0.000 OA
ATOM     23  H   UNL     1      65.887  60.446  64.606  0.00  0.00    +0.000 HD
ENDBRANCH  14  22
BRANCH  16  24
ATOM     24  O   UNL     1      67.205  65.808  64.926  0.00  0.00    +0.000 OA
BRANCH  24  26
ATOM     25  O   UNL     1      66.095  66.363  66.917  0.00  0.00    +0.000 OA
ATOM     26  C   UNL     1      66.334  66.468  65.728  0.00  0.00    +0.000 C 
ATOM     27  C   UNL     1      65.519  67.496  65.026  0.00  0.00    +0.000 C 
ENDBRANCH  24  26
ENDBRANCH  16  24
ENDBRANCH  11  18
ENDBRANCH   9  12
ENDBRANCH   8   9
ENDBRANCH   6   8
ENDBRANCH   4   7
ENDBRANCH   3   4
ENDBRANCH   2   3
BRANCH   1  28
ATOM     28  C   UNL     1      60.724  52.456  56.908  0.00  0.00    +0.000 C 
BRANCH  28  29
ATOM     29  C   UNL     1      60.409  51.738  55.877  0.00  0.00    +0.000 C 
ATOM     30  C   UNL     1      61.192  51.869  54.605  0.00  0.00    +0.000 C 
BRANCH  29  32
ATOM     31  C   UNL     1      58.355  50.123  56.008  0.00  0.00    +0.000 C 
ATOM     32  C   UNL     1      59.302  50.860  55.943  0.00  0.00    +0.000 C 
BRANCH  31  33
ATOM     33  C   UNL     1      57.139  49.194  56.101  0.00  0.00    +0.000 C 
BRANCH  33  34
ATOM     34  C   UNL     1      56.109  48.406  56.189  0.00  0.00    +0.000 C 
ATOM     35  C   UNL     1      56.026  47.275  55.185  0.00  0.00    +0.000 C 
BRANCH  34  37
ATOM     36  O   UNL     1      54.420  47.751  57.748  0.00  0.00    +0.000 OA
ATOM     37  C   UNL     1      55.048  48.659  57.213  0.00  0.00    +0.000 C 
BRANCH  37  38
ATOM     38  C   UNL     1      54.718  50.003  57.624  0.00  0.00    +0.000 C 
BRANCH  38  40
ATOM     39  O   UNL     1      53.263  51.848  57.272  0.00  0.00    +0.000 OA
ATOM     40  C   UNL     1      54.414  51.365  58.018  0.00  0.00    +0.000 C 
ATOM     41  C   UNL     1      53.050  51.674  58.672  0.00  0.00    +0.000 C 
ATOM     42  C   UNL     1      55.586  52.388  58.237  0.00  0.00    +0.000 C 
ATOM     43  C   UNL     1      52.921  52.921  59.355  0.00  0.00    +0.000 C 
ATOM     44  C   UNL     1      55.013  53.559  58.904  0.00  0.00    +0.000 C 
ATOM     45  C   UNL     1      53.823  53.986  59.524  0.00  0.00    +0.000 C 
ATOM     46  C   UNL     1      52.019  50.590  59.000  0.00  0.00    +0.000 C 
ATOM     47  C   UNL     1      56.601  51.663  59.154  0.00  0.00    +0.000 C 
ATOM     48  C   UNL     1      56.162  52.680  56.833  0.00  0.00    +0.000 C 
BRANCH  45  49
ATOM     49  O   UNL     1      53.843  54.764  60.642  0.00  0.00    +0.000 OA
ATOM     50  H   UNL     1      53.811  55.714  60.433  0.00  0.00    +0.000 HD
ENDBRANCH  45  49
ENDBRANCH  38  40
ENDBRANCH  37  38
ENDBRANCH  34  37
ENDBRANCH  33  34
ENDBRANCH  31  33
ENDBRANCH  29  32
ENDBRANCH  28  29
ENDBRANCH   1  28
TORSDOF 19
ENDMDL
MODEL 7
REMARK VINA RESULT:      -6.3      9.619     17.854
REMARK  Name = 5281239_Fucoxanthin.pdbqt.pdb
REMARK  19 active torsions:
REMARK  status: ('A' for Active; 'I' for Inactive)
REMARK    1  A    between atoms: C_1  and  C_5
REMARK    2  A    between atoms: C_2  and  C_26
REMARK    3  A    between atoms: C_3  and  C_5
REMARK    4  A    between atoms: C_3  and  C_7
REMARK    5  A    between atoms: C_6  and  C_10
REMARK    6  A    between atoms: C_8  and  C_10
REMARK    7  A    between atoms: C_8  and  C_12
REMARK    8  A    between atoms: C_12  and  C_13
REMARK    9  A    between atoms: C_13  and  C_15
REMARK   10  A    between atoms: C_20  and  O_24
REMARK   11  A    between atoms: C_26  and  C_27
REMARK   12  A    between atoms: C_27  and  C_30
REMARK   13  A    between atoms: C_29  and  C_33
REMARK   14  A    between atoms: C_31  and  C_33
REMARK   15  A    between atoms: C_31  and  C_44
REMARK   16  A    between atoms: C_35  and  O_45
REMARK   17  A    between atoms: C_37  and  O_47
REMARK   18  A    between atoms: C_39  and  C_43
REMARK   19  A    between atoms: O_47  and  C_49
REMARK                            x       y       z     vdW  Elec       q    Type
REMARK                         _______ _______ _______ _____ _____    ______ ____
ROOT
ATOM      1  C   UNL     1      66.241  54.560  60.241  0.00  0.00    +0.000 C 
ATOM      2  C   UNL     1      66.571  53.420  60.070  0.00  0.00    +0.000 C 
ENDROOT
BRANCH   2   3
ATOM      3  C   UNL     1      66.993  51.960  59.859  0.00  0.00    +0.000 C 
BRANCH   3   4
ATOM      4  C   UNL     1      67.348  50.727  59.677  0.00  0.00    +0.000 C 
ATOM      5  C   UNL     1      66.628  49.883  58.670  0.00  0.00    +0.000 C 
BRANCH   4   7
ATOM      6  C   UNL     1      69.383  49.747  60.997  0.00  0.00    +0.000 C 
ATOM      7  C   UNL     1      68.448  50.196  60.392  0.00  0.00    +0.000 C 
BRANCH   6   8
ATOM      8  C   UNL     1      70.579  49.177  61.768  0.00  0.00    +0.000 C 
BRANCH   8   9
ATOM      9  C   UNL     1      71.591  48.704  62.426  0.00  0.00    +0.000 C 
ATOM     10  C   UNL     1      72.551  49.633  63.103  0.00  0.00    +0.000 C 
BRANCH   9  12
ATOM     11  C   UNL     1      72.079  46.130  62.386  0.00  0.00    +0.000 C 
ATOM     12  C   UNL     1      71.854  47.311  62.408  0.00  0.00    +0.000 C 
BRANCH  11  18
ATOM     13  C   UNL     1      71.204  43.789  62.197  0.00  0.00    +0.000 C 
ATOM     14  C   UNL     1      73.732  44.296  62.547  0.00  0.00    +0.000 C 
ATOM     15  C   UNL     1      71.757  42.461  61.899  0.00  0.00    +0.000 C 
ATOM     16  C   UNL     1      73.008  41.821  61.807  0.00  0.00    +0.000 C 
ATOM     17  C   UNL     1      73.851  42.896  62.155  0.00  0.00    +0.000 C 
ATOM     18  C   UNL     1      72.322  44.834  62.360  0.00  0.00    +0.000 C 
ATOM     19  C   UNL     1      70.380  43.739  63.511  0.00  0.00    +0.000 C 
ATOM     20  C   UNL     1      70.284  44.208  61.010  0.00  0.00    +0.000 C 
ATOM     21  C   UNL     1      74.214  44.516  63.984  0.00  0.00    +0.000 C 
BRANCH  14  22
ATOM     22  O   UNL     1      74.622  45.041  61.747  0.00  0.00    +0.000 OA
ATOM     23  H   UNL     1      75.166  44.335  61.353  0.00  0.00    +0.000 HD
ENDBRANCH  14  22
BRANCH  16  24
ATOM     24  O   UNL     1      73.176  40.575  62.397  0.00  0.00    +0.000 OA
BRANCH  24  26
ATOM     25  O   UNL     1      72.704  40.993  64.657  0.00  0.00    +0.000 OA
ATOM     26  C   UNL     1      72.481  40.516  63.560  0.00  0.00    +0.000 C 
ATOM     27  C   UNL     1      71.229  39.714  63.480  0.00  0.00    +0.000 C 
ENDBRANCH  24  26
ENDBRANCH  16  24
ENDBRANCH  11  18
ENDBRANCH   9  12
ENDBRANCH   8   9
ENDBRANCH   6   8
ENDBRANCH   4   7
ENDBRANCH   3   4
ENDBRANCH   2   3
BRANCH   1  28
ATOM     28  C   UNL     1      65.818  56.016  60.470  0.00  0.00    +0.000 C 
BRANCH  28  29
ATOM     29  C   UNL     1      65.463  57.248  60.652  0.00  0.00    +0.000 C 
ATOM     30  C   UNL     1      66.454  58.246  61.167  0.00  0.00    +0.000 C 
BRANCH  29  32
ATOM     31  C   UNL     1      62.997  57.981  60.175  0.00  0.00    +0.000 C 
ATOM     32  C   UNL     1      64.126  57.640  60.399  0.00  0.00    +0.000 C 
BRANCH  31  33
ATOM     33  C   UNL     1      61.560  58.428  59.878  0.00  0.00    +0.000 C 
BRANCH  33  34
ATOM     34  C   UNL     1      60.339  58.798  59.627  0.00  0.00    +0.000 C 
ATOM     35  C   UNL     1      59.974  60.226  59.975  0.00  0.00    +0.000 C 
BRANCH  34  37
ATOM     36  O   UNL     1      58.368  58.179  58.427  0.00  0.00    +0.000 OA
ATOM     37  C   UNL     1      59.353  57.823  59.066  0.00  0.00    +0.000 C 
BRANCH  37  38
ATOM     38  C   UNL     1      59.526  56.402  59.251  0.00  0.00    +0.000 C 
BRANCH  38  40
ATOM     39  O   UNL     1      58.558  54.457  60.213  0.00  0.00    +0.000 OA
ATOM     40  C   UNL     1      59.667  54.969  59.424  0.00  0.00    +0.000 C 
ATOM     41  C   UNL     1      58.584  54.030  58.853  0.00  0.00    +0.000 C 
ATOM     42  C   UNL     1      61.084  54.363  59.730  0.00  0.00    +0.000 C 
ATOM     43  C   UNL     1      58.917  52.648  58.729  0.00  0.00    +0.000 C 
ATOM     44  C   UNL     1      60.974  52.912  59.557  0.00  0.00    +0.000 C 
ATOM     45  C   UNL     1      60.079  51.937  59.077  0.00  0.00    +0.000 C 
ATOM     46  C   UNL     1      57.391  54.535  58.035  0.00  0.00    +0.000 C 
ATOM     47  C   UNL     1      62.034  54.981  58.676  0.00  0.00    +0.000 C 
ATOM     48  C   UNL     1      61.431  54.802  61.170  0.00  0.00    +0.000 C 
BRANCH  45  49
ATOM     49  O   UNL     1      60.517  50.853  58.378  0.00  0.00    +0.000 OA
ATOM     50  H   UNL     1      60.626  50.067  58.942  0.00  0.00    +0.000 HD
ENDBRANCH  45  49
ENDBRANCH  38  40
ENDBRANCH  37  38
ENDBRANCH  34  37
ENDBRANCH  33  34
ENDBRANCH  31  33
ENDBRANCH  29  32
ENDBRANCH  28  29
ENDBRANCH   1  28
TORSDOF 19
ENDMDL
MODEL 8
REMARK VINA RESULT:      -6.3      8.565     14.097
REMARK  Name = 5281239_Fucoxanthin.pdbqt.pdb
REMARK  19 active torsions:
REMARK  status: ('A' for Active; 'I' for Inactive)
REMARK    1  A    between atoms: C_1  and  C_5
REMARK    2  A    between atoms: C_2  and  C_26
REMARK    3  A    between atoms: C_3  and  C_5
REMARK    4  A    between atoms: C_3  and  C_7
REMARK    5  A    between atoms: C_6  and  C_10
REMARK    6  A    between atoms: C_8  and  C_10
REMARK    7  A    between atoms: C_8  and  C_12
REMARK    8  A    between atoms: C_12  and  C_13
REMARK    9  A    between atoms: C_13  and  C_15
REMARK   10  A    between atoms: C_20  and  O_24
REMARK   11  A    between atoms: C_26  and  C_27
REMARK   12  A    between atoms: C_27  and  C_30
REMARK   13  A    between atoms: C_29  and  C_33
REMARK   14  A    between atoms: C_31  and  C_33
REMARK   15  A    between atoms: C_31  and  C_44
REMARK   16  A    between atoms: C_35  and  O_45
REMARK   17  A    between atoms: C_37  and  O_47
REMARK   18  A    between atoms: C_39  and  C_43
REMARK   19  A    between atoms: O_47  and  C_49
REMARK                            x       y       z     vdW  Elec       q    Type
REMARK                         _______ _______ _______ _____ _____    ______ ____
ROOT
ATOM      1  C   UNL     1      59.695  74.789  70.076  0.00  0.00    +0.000 C 
ATOM      2  C   UNL     1      59.669  75.637  70.924  0.00  0.00    +0.000 C 
ENDROOT
BRANCH   2   3
ATOM      3  C   UNL     1      59.630  76.716  72.012  0.00  0.00    +0.000 C 
BRANCH   3   4
ATOM      4  C   UNL     1      59.594  77.627  72.934  0.00  0.00    +0.000 C 
ATOM      5  C   UNL     1      59.429  79.067  72.557  0.00  0.00    +0.000 C 
BRANCH   4   7
ATOM      6  C   UNL     1      59.715  76.933  75.454  0.00  0.00    +0.000 C 
ATOM      7  C   UNL     1      59.660  77.253  74.298  0.00  0.00    +0.000 C 
BRANCH   6   8
ATOM      8  C   UNL     1      59.785  76.521  76.929  0.00  0.00    +0.000 C 
BRANCH   8   9
ATOM      9  C   UNL     1      59.850  76.163  78.174  0.00  0.00    +0.000 C 
ATOM     10  C   UNL     1      60.891  76.754  79.074  0.00  0.00    +0.000 C 
BRANCH   9  12
ATOM     11  C   UNL     1      58.294  74.249  79.057  0.00  0.00    +0.000 C 
ATOM     12  C   UNL     1      59.010  75.127  78.654  0.00  0.00    +0.000 C 
BRANCH  11  18
ATOM     13  C   UNL     1      55.975  73.445  79.564  0.00  0.00    +0.000 C 
ATOM     14  C   UNL     1      58.077  71.985  80.031  0.00  0.00    +0.000 C 
ATOM     15  C   UNL     1      55.319  72.152  79.804  0.00  0.00    +0.000 C 
ATOM     16  C   UNL     1      55.663  70.817  80.088  0.00  0.00    +0.000 C 
ATOM     17  C   UNL     1      57.066  70.941  80.153  0.00  0.00    +0.000 C 
ATOM     18  C   UNL     1      57.505  73.290  79.500  0.00  0.00    +0.000 C 
ATOM     19  C   UNL     1      55.626  74.437  80.706  0.00  0.00    +0.000 C 
ATOM     20  C   UNL     1      55.462  74.003  78.202  0.00  0.00    +0.000 C 
ATOM     21  C   UNL     1      58.811  72.210  81.356  0.00  0.00    +0.000 C 
BRANCH  14  22
ATOM     22  O   UNL     1      59.068  71.519  79.142  0.00  0.00    +0.000 OA
ATOM     23  H   UNL     1      58.540  71.335  78.343  0.00  0.00    +0.000 HD
ENDBRANCH  14  22
BRANCH  16  24
ATOM     24  O   UNL     1      54.971  70.137  81.081  0.00  0.00    +0.000 OA
BRANCH  24  26
ATOM     25  O   UNL     1      55.797  68.051  80.394  0.00  0.00    +0.000 OA
ATOM     26  C   UNL     1      55.470  68.884  81.220  0.00  0.00    +0.000 C 
ATOM     27  C   UNL     1      55.637  68.448  82.633  0.00  0.00    +0.000 C 
ENDBRANCH  24  26
ENDBRANCH  16  24
ENDBRANCH  11  18
ENDBRANCH   9  12
ENDBRANCH   8   9
ENDBRANCH   6   8
ENDBRANCH   4   7
ENDBRANCH   3   4
ENDBRANCH   2   3
BRANCH   1  28
ATOM     28  C   UNL     1      59.723  73.700  68.997  0.00  0.00    +0.000 C 
BRANCH  28  29
ATOM     29  C   UNL     1      59.754  72.774  68.092  0.00  0.00    +0.000 C 
ATOM     30  C   UNL     1      58.586  72.584  67.173  0.00  0.00    +0.000 C 
BRANCH  29  32
ATOM     31  C   UNL     1      61.823  71.182  67.913  0.00  0.00    +0.000 C 
ATOM     32  C   UNL     1      60.877  71.918  67.999  0.00  0.00    +0.000 C 
BRANCH  31  33
ATOM     33  C   UNL     1      63.021  70.233  67.794  0.00  0.00    +0.000 C 
BRANCH  33  34
ATOM     34  C   UNL     1      64.031  69.421  67.691  0.00  0.00    +0.000 C 
ATOM     35  C   UNL     1      65.406  70.051  67.599  0.00  0.00    +0.000 C 
BRANCH  34  37
ATOM     36  O   UNL     1      64.734  67.137  67.681  0.00  0.00    +0.000 OA
ATOM     37  C   UNL     1      63.811  67.944  67.621  0.00  0.00    +0.000 C 
BRANCH  37  38
ATOM     38  C   UNL     1      62.482  67.397  67.481  0.00  0.00    +0.000 C 
BRANCH  38  40
ATOM     39  O   UNL     1      60.420  67.574  66.315  0.00  0.00    +0.000 OA
ATOM     40  C   UNL     1      61.137  66.868  67.365  0.00  0.00    +0.000 C 
ATOM     41  C   UNL     1      60.699  66.201  66.044  0.00  0.00    +0.000 C 
ATOM     42  C   UNL     1      60.322  66.534  68.667  0.00  0.00    +0.000 C 
ATOM     43  C   UNL     1      59.521  65.396  66.078  0.00  0.00    +0.000 C 
ATOM     44  C   UNL     1      59.153  65.757  68.251  0.00  0.00    +0.000 C 
ATOM     45  C   UNL     1      58.621  65.109  67.119  0.00  0.00    +0.000 C 
ATOM     46  C   UNL     1      61.648  65.997  64.860  0.00  0.00    +0.000 C 
ATOM     47  C   UNL     1      61.275  65.685  69.543  0.00  0.00    +0.000 C 
ATOM     48  C   UNL     1      59.979  67.894  69.313  0.00  0.00    +0.000 C 
BRANCH  45  49
ATOM     49  O   UNL     1      57.969  63.918  67.223  0.00  0.00    +0.000 OA
ATOM     50  H   UNL     1      58.492  63.249  67.698  0.00  0.00    +0.000 HD
ENDBRANCH  45  49
ENDBRANCH  38  40
ENDBRANCH  37  38
ENDBRANCH  34  37
ENDBRANCH  33  34
ENDBRANCH  31  33
ENDBRANCH  29  32
ENDBRANCH  28  29
ENDBRANCH   1  28
TORSDOF 19
ENDMDL
MODEL 9
REMARK VINA RESULT:      -6.2     19.386     24.635
REMARK  Name = 5281239_Fucoxanthin.pdbqt.pdb
REMARK  19 active torsions:
REMARK  status: ('A' for Active; 'I' for Inactive)
REMARK    1  A    between atoms: C_1  and  C_5
REMARK    2  A    between atoms: C_2  and  C_26
REMARK    3  A    between atoms: C_3  and  C_5
REMARK    4  A    between atoms: C_3  and  C_7
REMARK    5  A    between atoms: C_6  and  C_10
REMARK    6  A    between atoms: C_8  and  C_10
REMARK    7  A    between atoms: C_8  and  C_12
REMARK    8  A    between atoms: C_12  and  C_13
REMARK    9  A    between atoms: C_13  and  C_15
REMARK   10  A    between atoms: C_20  and  O_24
REMARK   11  A    between atoms: C_26  and  C_27
REMARK   12  A    between atoms: C_27  and  C_30
REMARK   13  A    between atoms: C_29  and  C_33
REMARK   14  A    between atoms: C_31  and  C_33
REMARK   15  A    between atoms: C_31  and  C_44
REMARK   16  A    between atoms: C_35  and  O_45
REMARK   17  A    between atoms: C_37  and  O_47
REMARK   18  A    between atoms: C_39  and  C_43
REMARK   19  A    between atoms: O_47  and  C_49
REMARK                            x       y       z     vdW  Elec       q    Type
REMARK                         _______ _______ _______ _____ _____    ______ ____
ROOT
ATOM      1  C   UNL     1      66.652  41.981  77.516  0.00  0.00    +0.000 C 
ATOM      2  C   UNL     1      66.271  41.099  76.798  0.00  0.00    +0.000 C 
ENDROOT
BRANCH   2   3
ATOM      3  C   UNL     1      65.790  39.968  75.881  0.00  0.00    +0.000 C 
BRANCH   3   4
ATOM      4  C   UNL     1      65.387  39.012  75.104  0.00  0.00    +0.000 C 
ATOM      5  C   UNL     1      64.995  37.689  75.688  0.00  0.00    +0.000 C 
BRANCH   4   7
ATOM      6  C   UNL     1      65.170  39.424  72.530  0.00  0.00    +0.000 C 
ATOM      7  C   UNL     1      65.271  39.236  73.712  0.00  0.00    +0.000 C 
BRANCH   6   8
ATOM      8  C   UNL     1      65.036  39.663  71.021  0.00  0.00    +0.000 C 
BRANCH   8   9
ATOM      9  C   UNL     1      64.932  39.868  69.745  0.00  0.00    +0.000 C 
ATOM     10  C   UNL     1      65.845  40.838  69.061  0.00  0.00    +0.000 C 
BRANCH   9  12
ATOM     11  C   UNL     1      62.983  38.749  68.398  0.00  0.00    +0.000 C 
ATOM     12  C   UNL     1      63.879  39.260  69.018  0.00  0.00    +0.000 C 
BRANCH  11  18
ATOM     13  C   UNL     1      60.528  38.598  67.922  0.00  0.00    +0.000 C 
ATOM     14  C   UNL     1      62.263  37.066  66.734  0.00  0.00    +0.000 C 
ATOM     15  C   UNL     1      59.675  38.056  66.855  0.00  0.00    +0.000 C 
ATOM     16  C   UNL     1      59.772  37.196  65.745  0.00  0.00    +0.000 C 
ATOM     17  C   UNL     1      61.126  36.818  65.854  0.00  0.00    +0.000 C 
ATOM     18  C   UNL     1      61.999  38.192  67.721  0.00  0.00    +0.000 C 
ATOM     19  C   UNL     1      60.053  38.066  69.302  0.00  0.00    +0.000 C 
ATOM     20  C   UNL     1      60.418  40.152  67.888  0.00  0.00    +0.000 C 
ATOM     21  C   UNL     1      62.693  35.790  67.463  0.00  0.00    +0.000 C 
BRANCH  14  22
ATOM     22  O   UNL     1      63.364  37.411  65.923  0.00  0.00    +0.000 OA
ATOM     23  H   UNL     1      63.834  36.558  65.863  0.00  0.00    +0.000 HD
ENDBRANCH  14  22
BRANCH  16  24
ATOM     24  O   UNL     1      58.789  36.236  65.544  0.00  0.00    +0.000 OA
BRANCH  24  26
ATOM     25  O   UNL     1      56.612  37.085  65.333  0.00  0.00    +0.000 OA
ATOM     26  C   UNL     1      57.719  36.792  64.922  0.00  0.00    +0.000 C 
ATOM     27  C   UNL     1      57.938  37.082  63.479  0.00  0.00    +0.000 C 
ENDBRANCH  24  26
ENDBRANCH  16  24
ENDBRANCH  11  18
ENDBRANCH   9  12
ENDBRANCH   8   9
ENDBRANCH   6   8
ENDBRANCH   4   7
ENDBRANCH   3   4
ENDBRANCH   2   3
BRANCH   1  28
ATOM     28  C   UNL     1      67.146  43.103  78.438  0.00  0.00    +0.000 C 
BRANCH  28  29
ATOM     29  C   UNL     1      67.563  44.057  79.208  0.00  0.00    +0.000 C 
ATOM     30  C   UNL     1      67.485  43.907  80.697  0.00  0.00    +0.000 C 
BRANCH  29  32
ATOM     31  C   UNL     1      68.472  46.280  78.169  0.00  0.00    +0.000 C 
ATOM     32  C   UNL     1      68.055  45.256  78.639  0.00  0.00    +0.000 C 
BRANCH  31  33
ATOM     33  C   UNL     1      69.003  47.593  77.583  0.00  0.00    +0.000 C 
BRANCH  33  34
ATOM     34  C   UNL     1      69.445  48.709  77.083  0.00  0.00    +0.000 C 
ATOM     35  C   UNL     1      68.423  49.617  76.431  0.00  0.00    +0.000 C 
BRANCH  34  37
ATOM     36  O   UNL     1      71.381  49.838  77.913  0.00  0.00    +0.000 OA
ATOM     37  C   UNL     1      70.906  49.030  77.121  0.00  0.00    +0.000 C 
BRANCH  37  38
ATOM     38  C   UNL     1      71.831  48.389  76.217  0.00  0.00    +0.000 C 
BRANCH  38  40
ATOM     39  O   UNL     1      73.625  46.836  76.106  0.00  0.00    +0.000 OA
ATOM     40  C   UNL     1      72.769  47.723  75.335  0.00  0.00    +0.000 C 
ATOM     41  C   UNL     1      72.726  46.185  75.210  0.00  0.00    +0.000 C 
ATOM     42  C   UNL     1      73.461  48.539  74.184  0.00  0.00    +0.000 C 
ATOM     43  C   UNL     1      73.403  45.601  74.097  0.00  0.00    +0.000 C 
ATOM     44  C   UNL     1      74.101  47.565  73.296  0.00  0.00    +0.000 C 
ATOM     45  C   UNL     1      74.168  46.177  73.068  0.00  0.00    +0.000 C 
ATOM     46  C   UNL     1      71.680  45.321  75.920  0.00  0.00    +0.000 C 
ATOM     47  C   UNL     1      72.314  49.285  73.459  0.00  0.00    +0.000 C 
ATOM     48  C   UNL     1      74.447  49.502  74.880  0.00  0.00    +0.000 C 
BRANCH  45  49
ATOM     49  O   UNL     1      74.211  45.665  71.807  0.00  0.00    +0.000 OA
ATOM     50  H   UNL     1      73.527  44.988  71.658  0.00  0.00    +0.000 HD
ENDBRANCH  45  49
ENDBRANCH  38  40
ENDBRANCH  37  38
ENDBRANCH  34  37
ENDBRANCH  33  34
ENDBRANCH  31  33
ENDBRANCH  29  32
ENDBRANCH  28  29
ENDBRANCH   1  28
TORSDOF 19
ENDMDL
