MODEL 1
REMARK VINA RESULT:      -8.1      0.000      0.000
REMARK  Name = 5281224_Astaxanthin.pdbqt.pdb
REMARK  16 active torsions:
REMARK  status: ('A' for Active; 'I' for Inactive)
REMARK    1  A    between atoms: C_1  and  C_5
REMARK    2  A    between atoms: C_2  and  C_27
REMARK    3  A    between atoms: C_3  and  C_5
REMARK    4  A    between atoms: C_3  and  C_7
REMARK    5  A    between atoms: C_6  and  C_10
REMARK    6  A    between atoms: C_8  and  C_10
REMARK    7  A    between atoms: C_8  and  C_12
REMARK    8  A    between atoms: C_11  and  C_16
REMARK    9  A    between atoms: C_17  and  O_23
REMARK   10  A    between atoms: C_25  and  C_27
REMARK   11  A    between atoms: C_25  and  C_29
REMARK   12  A    between atoms: C_28  and  C_32
REMARK   13  A    between atoms: C_30  and  C_32
REMARK   14  A    between atoms: C_30  and  C_34
REMARK   15  A    between atoms: C_33  and  C_38
REMARK   16  A    between atoms: C_39  and  O_45
REMARK                            x       y       z     vdW  Elec       q    Type
REMARK                         _______ _______ _______ _____ _____    ______ ____
ROOT
ATOM      1  C   UNL     1      67.395  63.644  65.671  0.00  0.00    +0.000 C 
ATOM      2  C   UNL     1      66.965  64.733  65.932  0.00  0.00    +0.000 C 
ENDROOT
BRANCH   2   3
ATOM      3  C   UNL     1      66.412  66.127  66.257  0.00  0.00    +0.000 C 
BRANCH   3   4
ATOM      4  C   UNL     1      65.947  67.306  66.526  0.00  0.00    +0.000 C 
ATOM      5  C   UNL     1      66.788  68.519  66.265  0.00  0.00    +0.000 C 
BRANCH   4   7
ATOM      6  C   UNL     1      63.605  67.560  67.662  0.00  0.00    +0.000 C 
ATOM      7  C   UNL     1      64.679  67.443  67.139  0.00  0.00    +0.000 C 
BRANCH   6   8
ATOM      8  C   UNL     1      62.235  67.710  68.334  0.00  0.00    +0.000 C 
BRANCH   8   9
ATOM      9  C   UNL     1      61.078  67.832  68.908  0.00  0.00    +0.000 C 
ATOM     10  C   UNL     1      60.825  68.974  69.844  0.00  0.00    +0.000 C 
BRANCH   9  12
ATOM     11  C   UNL     1      59.111  66.238  68.235  0.00  0.00    +0.000 C 
ATOM     12  C   UNL     1      60.013  66.975  68.533  0.00  0.00    +0.000 C 
BRANCH  11  16
ATOM     13  O   UNL     1      57.296  62.572  65.536  0.00  0.00    +0.000 OA
ATOM     14  C   UNL     1      56.702  65.474  68.685  0.00  0.00    +0.000 C 
ATOM     15  C   UNL     1      55.818  64.464  68.130  0.00  0.00    +0.000 C 
ATOM     16  C   UNL     1      58.026  65.340  67.889  0.00  0.00    +0.000 C 
ATOM     17  C   UNL     1      55.859  63.485  67.142  0.00  0.00    +0.000 C 
ATOM     18  C   UNL     1      56.977  65.181  70.178  0.00  0.00    +0.000 C 
ATOM     19  C   UNL     1      56.109  66.883  68.461  0.00  0.00    +0.000 C 
ATOM     20  C   UNL     1      58.202  64.418  66.898  0.00  0.00    +0.000 C 
ATOM     21  C   UNL     1      57.149  63.403  66.422  0.00  0.00    +0.000 C 
ATOM     22  C   UNL     1      59.558  64.356  66.181  0.00  0.00    +0.000 C 
BRANCH  17  23
ATOM     23  O   UNL     1      54.801  62.661  66.862  0.00  0.00    +0.000 OA
ATOM     24  H   UNL     1      54.502  62.784  65.938  0.00  0.00    +0.000 HD
ENDBRANCH  17  23
ENDBRANCH  11  16
ENDBRANCH   9  12
ENDBRANCH   8   9
ENDBRANCH   6   8
ENDBRANCH   4   7
ENDBRANCH   3   4
ENDBRANCH   2   3
BRANCH   1  25
ATOM     25  C   UNL     1      67.941  62.253  65.329  0.00  0.00    +0.000 C 
BRANCH  25  26
ATOM     26  C   UNL     1      68.407  61.078  65.041  0.00  0.00    +0.000 C 
ATOM     27  C   UNL     1      69.556  60.518  65.826  0.00  0.00    +0.000 C 
BRANCH  26  29
ATOM     28  C   UNL     1      67.454  59.760  62.993  0.00  0.00    +0.000 C 
ATOM     29  C   UNL     1      67.892  60.364  63.934  0.00  0.00    +0.000 C 
BRANCH  28  30
ATOM     30  C   UNL     1      66.894  58.991  61.789  0.00  0.00    +0.000 C 
BRANCH  30  31
ATOM     31  C   UNL     1      66.426  58.335  60.775  0.00  0.00    +0.000 C 
ATOM     32  C   UNL     1      67.323  58.001  59.621  0.00  0.00    +0.000 C 
BRANCH  31  34
ATOM     33  C   UNL     1      64.011  57.324  60.879  0.00  0.00    +0.000 C 
ATOM     34  C   UNL     1      65.115  57.799  60.828  0.00  0.00    +0.000 C 
BRANCH  33  38
ATOM     35  O   UNL     1      59.214  57.480  59.885  0.00  0.00    +0.000 OA
ATOM     36  C   UNL     1      62.548  55.358  61.641  0.00  0.00    +0.000 C 
ATOM     37  C   UNL     1      61.136  55.025  61.551  0.00  0.00    +0.000 C 
ATOM     38  C   UNL     1      62.687  56.735  60.942  0.00  0.00    +0.000 C 
ATOM     39  C   UNL     1      59.972  55.588  61.035  0.00  0.00    +0.000 C 
ATOM     40  C   UNL     1      63.392  54.313  60.873  0.00  0.00    +0.000 C 
ATOM     41  C   UNL     1      62.972  55.486  63.121  0.00  0.00    +0.000 C 
ATOM     42  C   UNL     1      61.627  57.395  60.390  0.00  0.00    +0.000 C 
ATOM     43  C   UNL     1      60.172  56.898  60.378  0.00  0.00    +0.000 C 
ATOM     44  C   UNL     1      61.876  58.746  59.707  0.00  0.00    +0.000 C 
BRANCH  39  45
ATOM     45  O   UNL     1      58.748  54.982  61.123  0.00  0.00    +0.000 OA
ATOM     46  H   UNL     1      58.205  55.397  61.825  0.00  0.00    +0.000 HD
ENDBRANCH  39  45
ENDBRANCH  33  38
ENDBRANCH  31  34
ENDBRANCH  30  31
ENDBRANCH  28  30
ENDBRANCH  26  29
ENDBRANCH  25  26
ENDBRANCH   1  25
TORSDOF 16
ENDMDL
MODEL 2
REMARK VINA RESULT:      -7.2     12.323     22.018
REMARK  Name = 5281224_Astaxanthin.pdbqt.pdb
REMARK  16 active torsions:
REMARK  status: ('A' for Active; 'I' for Inactive)
REMARK    1  A    between atoms: C_1  and  C_5
REMARK    2  A    between atoms: C_2  and  C_27
REMARK    3  A    between atoms: C_3  and  C_5
REMARK    4  A    between atoms: C_3  and  C_7
REMARK    5  A    between atoms: C_6  and  C_10
REMARK    6  A    between atoms: C_8  and  C_10
REMARK    7  A    between atoms: C_8  and  C_12
REMARK    8  A    between atoms: C_11  and  C_16
REMARK    9  A    between atoms: C_17  and  O_23
REMARK   10  A    between atoms: C_25  and  C_27
REMARK   11  A    between atoms: C_25  and  C_29
REMARK   12  A    between atoms: C_28  and  C_32
REMARK   13  A    between atoms: C_30  and  C_32
REMARK   14  A    between atoms: C_30  and  C_34
REMARK   15  A    between atoms: C_33  and  C_38
REMARK   16  A    between atoms: C_39  and  O_45
REMARK                            x       y       z     vdW  Elec       q    Type
REMARK                         _______ _______ _______ _____ _____    ______ ____
ROOT
ATOM      1  C   UNL     1      66.861  47.745  56.450  0.00  0.00    +0.000 C 
ATOM      2  C   UNL     1      66.070  47.093  55.825  0.00  0.00    +0.000 C 
ENDROOT
BRANCH   2   3
ATOM      3  C   UNL     1      65.058  46.256  55.033  0.00  0.00    +0.000 C 
BRANCH   3   4
ATOM      4  C   UNL     1      64.200  45.554  54.362  0.00  0.00    +0.000 C 
ATOM      5  C   UNL     1      62.811  46.075  54.149  0.00  0.00    +0.000 C 
BRANCH   4   7
ATOM      6  C   UNL     1      64.843  43.167  53.507  0.00  0.00    +0.000 C 
ATOM      7  C   UNL     1      64.550  44.263  53.899  0.00  0.00    +0.000 C 
BRANCH   6   8
ATOM      8  C   UNL     1      65.214  41.767  53.004  0.00  0.00    +0.000 C 
BRANCH   8   9
ATOM      9  C   UNL     1      65.533  40.585  52.573  0.00  0.00    +0.000 C 
ATOM     10  C   UNL     1      66.645  40.427  51.581  0.00  0.00    +0.000 C 
BRANCH   9  12
ATOM     11  C   UNL     1      64.439  38.471  53.666  0.00  0.00    +0.000 C 
ATOM     12  C   UNL     1      64.935  39.440  53.154  0.00  0.00    +0.000 C 
BRANCH  11  16
ATOM     13  O   UNL     1      61.305  36.456  56.850  0.00  0.00    +0.000 OA
ATOM     14  C   UNL     1      64.365  35.911  53.843  0.00  0.00    +0.000 C 
ATOM     15  C   UNL     1      63.610  34.952  54.631  0.00  0.00    +0.000 C 
ATOM     16  C   UNL     1      63.854  37.303  54.296  0.00  0.00    +0.000 C 
ATOM     17  C   UNL     1      62.623  34.969  55.612  0.00  0.00    +0.000 C 
ATOM     18  C   UNL     1      64.058  35.725  52.339  0.00  0.00    +0.000 C 
ATOM     19  C   UNL     1      65.873  35.790  54.156  0.00  0.00    +0.000 C 
ATOM     20  C   UNL     1      62.886  37.462  55.246  0.00  0.00    +0.000 C 
ATOM     21  C   UNL     1      62.175  36.325  55.998  0.00  0.00    +0.000 C 
ATOM     22  C   UNL     1      62.439  38.884  55.611  0.00  0.00    +0.000 C 
BRANCH  17  23
ATOM     23  O   UNL     1      62.104  33.831  56.170  0.00  0.00    +0.000 OA
ATOM     24  H   UNL     1      61.127  33.878  56.207  0.00  0.00    +0.000 HD
ENDBRANCH  17  23
ENDBRANCH  11  16
ENDBRANCH   9  12
ENDBRANCH   8   9
ENDBRANCH   6   8
ENDBRANCH   4   7
ENDBRANCH   3   4
ENDBRANCH   2   3
BRANCH   1  25
ATOM     25  C   UNL     1      67.868  48.572  57.257  0.00  0.00    +0.000 C 
BRANCH  25  26
ATOM     26  C   UNL     1      68.717  49.271  57.944  0.00  0.00    +0.000 C 
ATOM     27  C   UNL     1      70.130  48.792  58.094  0.00  0.00    +0.000 C 
BRANCH  26  29
ATOM     28  C   UNL     1      67.929  51.426  59.198  0.00  0.00    +0.000 C 
ATOM     29  C   UNL     1      68.289  50.437  58.621  0.00  0.00    +0.000 C 
BRANCH  28  30
ATOM     30  C   UNL     1      67.470  52.689  59.938  0.00  0.00    +0.000 C 
BRANCH  30  31
ATOM     31  C   UNL     1      67.090  53.759  60.563  0.00  0.00    +0.000 C 
ATOM     32  C   UNL     1      68.106  54.773  60.996  0.00  0.00    +0.000 C 
BRANCH  31  34
ATOM     33  C   UNL     1      64.540  54.301  60.820  0.00  0.00    +0.000 C 
ATOM     34  C   UNL     1      65.708  54.043  60.696  0.00  0.00    +0.000 C 
BRANCH  33  38
ATOM     35  O   UNL     1      59.847  53.740  59.523  0.00  0.00    +0.000 OA
ATOM     36  C   UNL     1      62.760  55.649  62.087  0.00  0.00    +0.000 C 
ATOM     37  C   UNL     1      61.314  55.771  62.017  0.00  0.00    +0.000 C 
ATOM     38  C   UNL     1      63.136  54.626  60.984  0.00  0.00    +0.000 C 
ATOM     39  C   UNL     1      60.266  55.242  61.268  0.00  0.00    +0.000 C 
ATOM     40  C   UNL     1      63.182  55.085  63.464  0.00  0.00    +0.000 C 
ATOM     41  C   UNL     1      63.425  57.008  61.777  0.00  0.00    +0.000 C 
ATOM     42  C   UNL     1      62.207  54.028  60.181  0.00  0.00    +0.000 C 
ATOM     43  C   UNL     1      60.689  54.270  60.237  0.00  0.00    +0.000 C 
ATOM     44  C   UNL     1      62.683  53.017  59.130  0.00  0.00    +0.000 C 
BRANCH  39  45
ATOM     45  O   UNL     1      58.957  55.586  61.470  0.00  0.00    +0.000 OA
ATOM     46  H   UNL     1      58.813  56.534  61.272  0.00  0.00    +0.000 HD
ENDBRANCH  39  45
ENDBRANCH  33  38
ENDBRANCH  31  34
ENDBRANCH  30  31
ENDBRANCH  28  30
ENDBRANCH  26  29
ENDBRANCH  25  26
ENDBRANCH   1  25
TORSDOF 16
ENDMDL
MODEL 3
REMARK VINA RESULT:      -7.1     18.701     23.594
REMARK  Name = 5281224_Astaxanthin.pdbqt.pdb
REMARK  16 active torsions:
REMARK  status: ('A' for Active; 'I' for Inactive)
REMARK    1  A    between atoms: C_1  and  C_5
REMARK    2  A    between atoms: C_2  and  C_27
REMARK    3  A    between atoms: C_3  and  C_5
REMARK    4  A    between atoms: C_3  and  C_7
REMARK    5  A    between atoms: C_6  and  C_10
REMARK    6  A    between atoms: C_8  and  C_10
REMARK    7  A    between atoms: C_8  and  C_12
REMARK    8  A    between atoms: C_11  and  C_16
REMARK    9  A    between atoms: C_17  and  O_23
REMARK   10  A    between atoms: C_25  and  C_27
REMARK   11  A    between atoms: C_25  and  C_29
REMARK   12  A    between atoms: C_28  and  C_32
REMARK   13  A    between atoms: C_30  and  C_32
REMARK   14  A    between atoms: C_30  and  C_34
REMARK   15  A    between atoms: C_33  and  C_38
REMARK   16  A    between atoms: C_39  and  O_45
REMARK                            x       y       z     vdW  Elec       q    Type
REMARK                         _______ _______ _______ _____ _____    ______ ____
ROOT
ATOM      1  C   UNL     1      67.952  46.555  56.906  0.00  0.00    +0.000 C 
ATOM      2  C   UNL     1      66.940  46.632  56.266  0.00  0.00    +0.000 C 
ENDROOT
BRANCH   2   3
ATOM      3  C   UNL     1      65.648  46.738  55.445  0.00  0.00    +0.000 C 
BRANCH   3   4
ATOM      4  C   UNL     1      64.561  46.829  54.746  0.00  0.00    +0.000 C 
ATOM      5  C   UNL     1      63.838  48.139  54.654  0.00  0.00    +0.000 C 
BRANCH   4   7
ATOM      6  C   UNL     1      63.553  44.694  53.619  0.00  0.00    +0.000 C 
ATOM      7  C   UNL     1      64.014  45.675  54.136  0.00  0.00    +0.000 C 
BRANCH   6   8
ATOM      8  C   UNL     1      62.968  43.441  52.957  0.00  0.00    +0.000 C 
BRANCH   8   9
ATOM      9  C   UNL     1      62.473  42.376  52.405  0.00  0.00    +0.000 C 
ATOM     10  C   UNL     1      62.016  42.418  50.979  0.00  0.00    +0.000 C 
BRANCH   9  12
ATOM     11  C   UNL     1      62.554  40.090  53.682  0.00  0.00    +0.000 C 
ATOM     12  C   UNL     1      62.507  41.143  53.102  0.00  0.00    +0.000 C 
BRANCH  11  16
ATOM     13  O   UNL     1      61.299  37.182  57.422  0.00  0.00    +0.000 OA
ATOM     14  C   UNL     1      63.488  37.700  53.729  0.00  0.00    +0.000 C 
ATOM     15  C   UNL     1      63.368  36.562  54.624  0.00  0.00    +0.000 C 
ATOM     16  C   UNL     1      62.624  38.816  54.370  0.00  0.00    +0.000 C 
ATOM     17  C   UNL     1      62.724  36.248  55.817  0.00  0.00    +0.000 C 
ATOM     18  C   UNL     1      62.909  37.348  52.338  0.00  0.00    +0.000 C 
ATOM     19  C   UNL     1      64.959  38.167  53.654  0.00  0.00    +0.000 C 
ATOM     20  C   UNL     1      61.936  38.639  55.537  0.00  0.00    +0.000 C 
ATOM     21  C   UNL     1      61.913  37.352  56.377  0.00  0.00    +0.000 C 
ATOM     22  C   UNL     1      61.096  39.804  56.080  0.00  0.00    +0.000 C 
BRANCH  17  23
ATOM     23  O   UNL     1      62.825  35.023  56.421  0.00  0.00    +0.000 OA
ATOM     24  H   UNL     1      62.117  34.906  57.087  0.00  0.00    +0.000 HD
ENDBRANCH  17  23
ENDBRANCH  11  16
ENDBRANCH   9  12
ENDBRANCH   8   9
ENDBRANCH   6   8
ENDBRANCH   4   7
ENDBRANCH   3   4
ENDBRANCH   2   3
BRANCH   1  25
ATOM     25  C   UNL     1      69.247  46.466  57.720  0.00  0.00    +0.000 C 
BRANCH  25  26
ATOM     26  C   UNL     1      70.345  46.394  58.405  0.00  0.00    +0.000 C 
ATOM     27  C   UNL     1      71.519  47.247  58.027  0.00  0.00    +0.000 C 
BRANCH  26  29
ATOM     28  C   UNL     1      70.566  44.648  60.340  0.00  0.00    +0.000 C 
ATOM     29  C   UNL     1      70.465  45.451  59.453  0.00  0.00    +0.000 C 
BRANCH  28  30
ATOM     30  C   UNL     1      70.693  43.620  61.472  0.00  0.00    +0.000 C 
BRANCH  30  31
ATOM     31  C   UNL     1      70.792  42.751  62.428  0.00  0.00    +0.000 C 
ATOM     32  C   UNL     1      70.739  41.286  62.116  0.00  0.00    +0.000 C 
BRANCH  31  34
ATOM     33  C   UNL     1      71.394  43.558  64.847  0.00  0.00    +0.000 C 
ATOM     34  C   UNL     1      71.108  43.183  63.741  0.00  0.00    +0.000 C 
BRANCH  33  38
ATOM     35  O   UNL     1      73.366  46.922  67.816  0.00  0.00    +0.000 OA
ATOM     36  C   UNL     1      71.411  43.090  67.371  0.00  0.00    +0.000 C 
ATOM     37  C   UNL     1      71.884  43.798  68.549  0.00  0.00    +0.000 C 
ATOM     38  C   UNL     1      71.756  44.015  66.175  0.00  0.00    +0.000 C 
ATOM     39  C   UNL     1      72.516  45.001  68.848  0.00  0.00    +0.000 C 
ATOM     40  C   UNL     1      69.877  42.904  67.440  0.00  0.00    +0.000 C 
ATOM     41  C   UNL     1      72.162  41.749  67.218  0.00  0.00    +0.000 C 
ATOM     42  C   UNL     1      72.372  45.224  66.328  0.00  0.00    +0.000 C 
ATOM     43  C   UNL     1      72.814  45.839  67.666  0.00  0.00    +0.000 C 
ATOM     44  C   UNL     1      72.655  46.070  65.080  0.00  0.00    +0.000 C 
BRANCH  39  45
ATOM     45  O   UNL     1      72.832  45.380  70.124  0.00  0.00    +0.000 OA
ATOM     46  H   UNL     1      73.519  44.792  70.501  0.00  0.00    +0.000 HD
ENDBRANCH  39  45
ENDBRANCH  33  38
ENDBRANCH  31  34
ENDBRANCH  30  31
ENDBRANCH  28  30
ENDBRANCH  26  29
ENDBRANCH  25  26
ENDBRANCH   1  25
TORSDOF 16
ENDMDL
MODEL 4
REMARK VINA RESULT:      -6.9     23.049     28.022
REMARK  Name = 5281224_Astaxanthin.pdbqt.pdb
REMARK  16 active torsions:
REMARK  status: ('A' for Active; 'I' for Inactive)
REMARK    1  A    between atoms: C_1  and  C_5
REMARK    2  A    between atoms: C_2  and  C_27
REMARK    3  A    between atoms: C_3  and  C_5
REMARK    4  A    between atoms: C_3  and  C_7
REMARK    5  A    between atoms: C_6  and  C_10
REMARK    6  A    between atoms: C_8  and  C_10
REMARK    7  A    between atoms: C_8  and  C_12
REMARK    8  A    between atoms: C_11  and  C_16
REMARK    9  A    between atoms: C_17  and  O_23
REMARK   10  A    between atoms: C_25  and  C_27
REMARK   11  A    between atoms: C_25  and  C_29
REMARK   12  A    between atoms: C_28  and  C_32
REMARK   13  A    between atoms: C_30  and  C_32
REMARK   14  A    between atoms: C_30  and  C_34
REMARK   15  A    between atoms: C_33  and  C_38
REMARK   16  A    between atoms: C_39  and  O_45
REMARK                            x       y       z     vdW  Elec       q    Type
REMARK                         _______ _______ _______ _____ _____    ______ ____
ROOT
ATOM      1  C   UNL     1      52.219  39.986  69.401  0.00  0.00    +0.000 C 
ATOM      2  C   UNL     1      52.356  39.210  68.496  0.00  0.00    +0.000 C 
ENDROOT
BRANCH   2   3
ATOM      3  C   UNL     1      52.532  38.224  67.334  0.00  0.00    +0.000 C 
BRANCH   3   4
ATOM      4  C   UNL     1      52.684  37.396  66.349  0.00  0.00    +0.000 C 
ATOM      5  C   UNL     1      51.529  36.556  65.894  0.00  0.00    +0.000 C 
BRANCH   4   7
ATOM      6  C   UNL     1      55.038  37.084  65.252  0.00  0.00    +0.000 C 
ATOM      7  C   UNL     1      53.959  37.227  65.758  0.00  0.00    +0.000 C 
BRANCH   6   8
ATOM      8  C   UNL     1      56.415  36.901  64.604  0.00  0.00    +0.000 C 
BRANCH   8   9
ATOM      9  C   UNL     1      57.582  36.740  64.060  0.00  0.00    +0.000 C 
ATOM     10  C   UNL     1      57.719  36.754  62.568  0.00  0.00    +0.000 C 
BRANCH   9  12
ATOM     11  C   UNL     1      59.734  36.672  65.552  0.00  0.00    +0.000 C 
ATOM     12  C   UNL     1      58.739  36.703  64.877  0.00  0.00    +0.000 C 
BRANCH  11  16
ATOM     13  O   UNL     1      63.438  38.954  67.809  0.00  0.00    +0.000 OA
ATOM     14  C   UNL     1      61.457  35.243  66.808  0.00  0.00    +0.000 C 
ATOM     15  C   UNL     1      62.659  35.514  67.577  0.00  0.00    +0.000 C 
ATOM     16  C   UNL     1      60.943  36.633  66.351  0.00  0.00    +0.000 C 
ATOM     17  C   UNL     1      63.405  36.619  67.975  0.00  0.00    +0.000 C 
ATOM     18  C   UNL     1      60.387  34.579  67.706  0.00  0.00    +0.000 C 
ATOM     19  C   UNL     1      61.799  34.388  65.568  0.00  0.00    +0.000 C 
ATOM     20  C   UNL     1      61.577  37.798  66.675  0.00  0.00    +0.000 C 
ATOM     21  C   UNL     1      62.862  37.916  67.511  0.00  0.00    +0.000 C 
ATOM     22  C   UNL     1      60.978  39.124  66.185  0.00  0.00    +0.000 C 
BRANCH  17  23
ATOM     23  O   UNL     1      64.540  36.521  68.734  0.00  0.00    +0.000 OA
ATOM     24  H   UNL     1      64.491  37.115  69.510  0.00  0.00    +0.000 HD
ENDBRANCH  17  23
ENDBRANCH  11  16
ENDBRANCH   9  12
ENDBRANCH   8   9
ENDBRANCH   6   8
ENDBRANCH   4   7
ENDBRANCH   3   4
ENDBRANCH   2   3
BRANCH   1  25
ATOM     25  C   UNL     1      52.043  40.986  70.550  0.00  0.00    +0.000 C 
BRANCH  25  26
ATOM     26  C   UNL     1      51.894  41.835  71.518  0.00  0.00    +0.000 C 
ATOM     27  C   UNL     1      53.089  42.296  72.298  0.00  0.00    +0.000 C 
BRANCH  26  29
ATOM     28  C   UNL     1      49.497  42.618  72.212  0.00  0.00    +0.000 C 
ATOM     29  C   UNL     1      50.598  42.258  71.895  0.00  0.00    +0.000 C 
BRANCH  28  30
ATOM     30  C   UNL     1      48.090  43.078  72.613  0.00  0.00    +0.000 C 
BRANCH  30  31
ATOM     31  C   UNL     1      46.905  43.474  72.956  0.00  0.00    +0.000 C 
ATOM     32  C   UNL     1      46.704  44.204  74.250  0.00  0.00    +0.000 C 
BRANCH  31  34
ATOM     33  C   UNL     1      44.927  43.239  71.253  0.00  0.00    +0.000 C 
ATOM     34  C   UNL     1      45.832  43.358  72.037  0.00  0.00    +0.000 C 
BRANCH  33  38
ATOM     35  O   UNL     1      43.196  41.512  67.005  0.00  0.00    +0.000 OA
ATOM     36  C   UNL     1      42.476  43.714  70.657  0.00  0.00    +0.000 C 
ATOM     37  C   UNL     1      41.605  43.396  69.538  0.00  0.00    +0.000 C 
ATOM     38  C   UNL     1      43.845  43.080  70.300  0.00  0.00    +0.000 C 
ATOM     39  C   UNL     1      41.686  42.719  68.325  0.00  0.00    +0.000 C 
ATOM     40  C   UNL     1      41.939  43.062  71.953  0.00  0.00    +0.000 C 
ATOM     41  C   UNL     1      42.637  45.244  70.789  0.00  0.00    +0.000 C 
ATOM     42  C   UNL     1      44.060  42.385  69.145  0.00  0.00    +0.000 C 
ATOM     43  C   UNL     1      43.015  42.134  68.045  0.00  0.00    +0.000 C 
ATOM     44  C   UNL     1      45.449  41.783  68.894  0.00  0.00    +0.000 C 
BRANCH  39  45
ATOM     45  O   UNL     1      40.628  42.599  67.466  0.00  0.00    +0.000 OA
ATOM     46  H   UNL     1      40.876  42.896  66.566  0.00  0.00    +0.000 HD
ENDBRANCH  39  45
ENDBRANCH  33  38
ENDBRANCH  31  34
ENDBRANCH  30  31
ENDBRANCH  28  30
ENDBRANCH  26  29
ENDBRANCH  25  26
ENDBRANCH   1  25
TORSDOF 16
ENDMDL
MODEL 5
REMARK VINA RESULT:      -6.9      4.127     13.181
REMARK  Name = 5281224_Astaxanthin.pdbqt.pdb
REMARK  16 active torsions:
REMARK  status: ('A' for Active; 'I' for Inactive)
REMARK    1  A    between atoms: C_1  and  C_5
REMARK    2  A    between atoms: C_2  and  C_27
REMARK    3  A    between atoms: C_3  and  C_5
REMARK    4  A    between atoms: C_3  and  C_7
REMARK    5  A    between atoms: C_6  and  C_10
REMARK    6  A    between atoms: C_8  and  C_10
REMARK    7  A    between atoms: C_8  and  C_12
REMARK    8  A    between atoms: C_11  and  C_16
REMARK    9  A    between atoms: C_17  and  O_23
REMARK   10  A    between atoms: C_25  and  C_27
REMARK   11  A    between atoms: C_25  and  C_29
REMARK   12  A    between atoms: C_28  and  C_32
REMARK   13  A    between atoms: C_30  and  C_32
REMARK   14  A    between atoms: C_30  and  C_34
REMARK   15  A    between atoms: C_33  and  C_38
REMARK   16  A    between atoms: C_39  and  O_45
REMARK                            x       y       z     vdW  Elec       q    Type
REMARK                         _______ _______ _______ _____ _____    ______ ____
ROOT
ATOM      1  C   UNL     1      59.496  60.328  60.308  0.00  0.00    +0.000 C 
ATOM      2  C   UNL     1      60.269  59.447  60.052  0.00  0.00    +0.000 C 
ENDROOT
BRANCH   2   3
ATOM      3  C   UNL     1      61.254  58.320  59.717  0.00  0.00    +0.000 C 
BRANCH   3   4
ATOM      4  C   UNL     1      62.091  57.371  59.437  0.00  0.00    +0.000 C 
ATOM      5  C   UNL     1      61.593  56.083  58.852  0.00  0.00    +0.000 C 
BRANCH   4   7
ATOM      6  C   UNL     1      64.625  57.647  60.027  0.00  0.00    +0.000 C 
ATOM      7  C   UNL     1      63.462  57.519  59.758  0.00  0.00    +0.000 C 
BRANCH   6   8
ATOM      8  C   UNL     1      66.109  57.815  60.370  0.00  0.00    +0.000 C 
BRANCH   8   9
ATOM      9  C   UNL     1      67.368  57.955  60.652  0.00  0.00    +0.000 C 
ATOM     10  C   UNL     1      68.405  57.646  59.615  0.00  0.00    +0.000 C 
BRANCH   9  12
ATOM     11  C   UNL     1      68.087  59.022  62.933  0.00  0.00    +0.000 C 
ATOM     12  C   UNL     1      67.751  58.542  61.883  0.00  0.00    +0.000 C 
BRANCH  11  16
ATOM     13  O   UNL     1      70.439  58.633  67.216  0.00  0.00    +0.000 OA
ATOM     14  C   UNL     1      68.058  61.037  64.524  0.00  0.00    +0.000 C 
ATOM     15  C   UNL     1      68.608  61.324  65.837  0.00  0.00    +0.000 C 
ATOM     16  C   UNL     1      68.499  59.585  64.204  0.00  0.00    +0.000 C 
ATOM     17  C   UNL     1      69.369  60.674  66.803  0.00  0.00    +0.000 C 
ATOM     18  C   UNL     1      68.666  61.993  63.470  0.00  0.00    +0.000 C 
ATOM     19  C   UNL     1      66.516  61.109  64.563  0.00  0.00    +0.000 C 
ATOM     20  C   UNL     1      69.252  58.837  65.063  0.00  0.00    +0.000 C 
ATOM     21  C   UNL     1      69.762  59.294  66.439  0.00  0.00    +0.000 C 
ATOM     22  C   UNL     1      69.649  57.414  64.645  0.00  0.00    +0.000 C 
BRANCH  17  23
ATOM     23  O   UNL     1      69.732  61.259  67.987  0.00  0.00    +0.000 OA
ATOM     24  H   UNL     1      70.560  60.865  68.329  0.00  0.00    +0.000 HD
ENDBRANCH  17  23
ENDBRANCH  11  16
ENDBRANCH   9  12
ENDBRANCH   8   9
ENDBRANCH   6   8
ENDBRANCH   4   7
ENDBRANCH   3   4
ENDBRANCH   2   3
BRANCH   1  25
ATOM     25  C   UNL     1      58.503  61.452  60.626  0.00  0.00    +0.000 C 
BRANCH  25  26
ATOM     26  C   UNL     1      57.660  62.399  60.895  0.00  0.00    +0.000 C 
ATOM     27  C   UNL     1      57.239  63.353  59.817  0.00  0.00    +0.000 C 
BRANCH  26  29
ATOM     28  C   UNL     1      56.820  62.747  63.347  0.00  0.00    +0.000 C 
ATOM     29  C   UNL     1      57.207  62.586  62.222  0.00  0.00    +0.000 C 
BRANCH  28  30
ATOM     30  C   UNL     1      56.324  62.956  64.784  0.00  0.00    +0.000 C 
BRANCH  30  31
ATOM     31  C   UNL     1      55.898  63.134  65.995  0.00  0.00    +0.000 C 
ATOM     32  C   UNL     1      54.717  62.357  66.493  0.00  0.00    +0.000 C 
BRANCH  31  34
ATOM     33  C   UNL     1      57.279  64.638  67.636  0.00  0.00    +0.000 C 
ATOM     34  C   UNL     1      56.642  63.940  66.892  0.00  0.00    +0.000 C 
BRANCH  33  38
ATOM     35  O   UNL     1      61.593  66.207  69.352  0.00  0.00    +0.000 OA
ATOM     36  C   UNL     1      57.276  66.448  69.456  0.00  0.00    +0.000 C 
ATOM     37  C   UNL     1      58.298  67.159  70.206  0.00  0.00    +0.000 C 
ATOM     38  C   UNL     1      58.054  65.488  68.519  0.00  0.00    +0.000 C 
ATOM     39  C   UNL     1      59.687  67.192  70.288  0.00  0.00    +0.000 C 
ATOM     40  C   UNL     1      56.458  67.440  68.597  0.00  0.00    +0.000 C 
ATOM     41  C   UNL     1      56.388  65.624  70.414  0.00  0.00    +0.000 C 
ATOM     42  C   UNL     1      59.417  65.422  68.494  0.00  0.00    +0.000 C 
ATOM     43  C   UNL     1      60.369  66.257  69.366  0.00  0.00    +0.000 C 
ATOM     44  C   UNL     1      60.090  64.448  67.517  0.00  0.00    +0.000 C 
BRANCH  39  45
ATOM     45  O   UNL     1      60.365  68.019  71.141  0.00  0.00    +0.000 OA
ATOM     46  H   UNL     1      60.713  67.517  71.906  0.00  0.00    +0.000 HD
ENDBRANCH  39  45
ENDBRANCH  33  38
ENDBRANCH  31  34
ENDBRANCH  30  31
ENDBRANCH  28  30
ENDBRANCH  26  29
ENDBRANCH  25  26
ENDBRANCH   1  25
TORSDOF 16
ENDMDL
MODEL 6
REMARK VINA RESULT:      -6.8      1.444      2.426
REMARK  Name = 5281224_Astaxanthin.pdbqt.pdb
REMARK  16 active torsions:
REMARK  status: ('A' for Active; 'I' for Inactive)
REMARK    1  A    between atoms: C_1  and  C_5
REMARK    2  A    between atoms: C_2  and  C_27
REMARK    3  A    between atoms: C_3  and  C_5
REMARK    4  A    between atoms: C_3  and  C_7
REMARK    5  A    between atoms: C_6  and  C_10
REMARK    6  A    between atoms: C_8  and  C_10
REMARK    7  A    between atoms: C_8  and  C_12
REMARK    8  A    between atoms: C_11  and  C_16
REMARK    9  A    between atoms: C_17  and  O_23
REMARK   10  A    between atoms: C_25  and  C_27
REMARK   11  A    between atoms: C_25  and  C_29
REMARK   12  A    between atoms: C_28  and  C_32
REMARK   13  A    between atoms: C_30  and  C_32
REMARK   14  A    between atoms: C_30  and  C_34
REMARK   15  A    between atoms: C_33  and  C_38
REMARK   16  A    between atoms: C_39  and  O_45
REMARK                            x       y       z     vdW  Elec       q    Type
REMARK                         _______ _______ _______ _____ _____    ______ ____
ROOT
ATOM      1  C   UNL     1      67.365  63.322  65.499  0.00  0.00    +0.000 C 
ATOM      2  C   UNL     1      67.072  64.411  65.908  0.00  0.00    +0.000 C 
ENDROOT
BRANCH   2   3
ATOM      3  C   UNL     1      66.695  65.806  66.424  0.00  0.00    +0.000 C 
BRANCH   3   4
ATOM      4  C   UNL     1      66.378  66.987  66.854  0.00  0.00    +0.000 C 
ATOM      5  C   UNL     1      67.435  68.041  66.989  0.00  0.00    +0.000 C 
BRANCH   4   7
ATOM      6  C   UNL     1      63.930  67.486  67.629  0.00  0.00    +0.000 C 
ATOM      7  C   UNL     1      65.053  67.256  67.271  0.00  0.00    +0.000 C 
BRANCH   6   8
ATOM      8  C   UNL     1      62.498  67.781  68.088  0.00  0.00    +0.000 C 
BRANCH   8   9
ATOM      9  C   UNL     1      61.288  68.031  68.485  0.00  0.00    +0.000 C 
ATOM     10  C   UNL     1      60.970  69.346  69.130  0.00  0.00    +0.000 C 
BRANCH   9  12
ATOM     11  C   UNL     1      59.352  66.371  67.887  0.00  0.00    +0.000 C 
ATOM     12  C   UNL     1      60.244  67.127  68.171  0.00  0.00    +0.000 C 
BRANCH  11  16
ATOM     13  O   UNL     1      54.908  64.490  68.745  0.00  0.00    +0.000 OA
ATOM     14  C   UNL     1      58.450  64.595  66.268  0.00  0.00    +0.000 C 
ATOM     15  C   UNL     1      57.230  63.814  66.167  0.00  0.00    +0.000 C 
ATOM     16  C   UNL     1      58.270  65.473  67.533  0.00  0.00    +0.000 C 
ATOM     17  C   UNL     1      56.035  63.668  66.865  0.00  0.00    +0.000 C 
ATOM     18  C   UNL     1      58.600  65.514  65.032  0.00  0.00    +0.000 C 
ATOM     19  C   UNL     1      59.667  63.662  66.458  0.00  0.00    +0.000 C 
ATOM     20  C   UNL     1      57.146  65.431  68.307  0.00  0.00    +0.000 C 
ATOM     21  C   UNL     1      55.921  64.535  68.060  0.00  0.00    +0.000 C 
ATOM     22  C   UNL     1      57.060  66.353  69.531  0.00  0.00    +0.000 C 
BRANCH  17  23
ATOM     23  O   UNL     1      55.046  62.804  66.481  0.00  0.00    +0.000 OA
ATOM     24  H   UNL     1      54.217  62.987  66.968  0.00  0.00    +0.000 HD
ENDBRANCH  17  23
ENDBRANCH  11  16
ENDBRANCH   9  12
ENDBRANCH   8   9
ENDBRANCH   6   8
ENDBRANCH   4   7
ENDBRANCH   3   4
ENDBRANCH   2   3
BRANCH   1  25
ATOM     25  C   UNL     1      67.737  61.934  64.966  0.00  0.00    +0.000 C 
BRANCH  25  26
ATOM     26  C   UNL     1      68.056  60.760  64.518  0.00  0.00    +0.000 C 
ATOM     27  C   UNL     1      69.100  59.949  65.227  0.00  0.00    +0.000 C 
BRANCH  26  29
ATOM     28  C   UNL     1      67.000  59.878  62.294  0.00  0.00    +0.000 C 
ATOM     29  C   UNL     1      67.485  60.281  63.316  0.00  0.00    +0.000 C 
BRANCH  28  30
ATOM     30  C   UNL     1      66.380  59.365  60.988  0.00  0.00    +0.000 C 
BRANCH  30  31
ATOM     31  C   UNL     1      65.860  58.924  59.886  0.00  0.00    +0.000 C 
ATOM     32  C   UNL     1      66.381  59.408  58.567  0.00  0.00    +0.000 C 
BRANCH  31  34
ATOM     33  C   UNL     1      64.099  56.985  59.945  0.00  0.00    +0.000 C 
ATOM     34  C   UNL     1      64.912  57.872  59.929  0.00  0.00    +0.000 C 
BRANCH  33  38
ATOM     35  O   UNL     1      62.303  52.814  58.101  0.00  0.00    +0.000 OA
ATOM     36  C   UNL     1      61.990  55.992  61.017  0.00  0.00    +0.000 C 
ATOM     37  C   UNL     1      61.166  54.818  60.781  0.00  0.00    +0.000 C 
ATOM     38  C   UNL     1      63.111  55.923  59.949  0.00  0.00    +0.000 C 
ATOM     39  C   UNL     1      61.135  53.735  59.908  0.00  0.00    +0.000 C 
ATOM     40  C   UNL     1      62.627  55.922  62.425  0.00  0.00    +0.000 C 
ATOM     41  C   UNL     1      61.158  57.277  60.810  0.00  0.00    +0.000 C 
ATOM     42  C   UNL     1      63.201  54.914  59.034  0.00  0.00    +0.000 C 
ATOM     43  C   UNL     1      62.233  53.725  58.916  0.00  0.00    +0.000 C 
ATOM     44  C   UNL     1      64.360  54.931  58.029  0.00  0.00    +0.000 C 
BRANCH  39  45
ATOM     45  O   UNL     1      60.176  52.760  59.961  0.00  0.00    +0.000 OA
ATOM     46  H   UNL     1      60.272  52.224  60.775  0.00  0.00    +0.000 HD
ENDBRANCH  39  45
ENDBRANCH  33  38
ENDBRANCH  31  34
ENDBRANCH  30  31
ENDBRANCH  28  30
ENDBRANCH  26  29
ENDBRANCH  25  26
ENDBRANCH   1  25
TORSDOF 16
ENDMDL
MODEL 7
REMARK VINA RESULT:      -6.7      7.003     12.867
REMARK  Name = 5281224_Astaxanthin.pdbqt.pdb
REMARK  16 active torsions:
REMARK  status: ('A' for Active; 'I' for Inactive)
REMARK    1  A    between atoms: C_1  and  C_5
REMARK    2  A    between atoms: C_2  and  C_27
REMARK    3  A    between atoms: C_3  and  C_5
REMARK    4  A    between atoms: C_3  and  C_7
REMARK    5  A    between atoms: C_6  and  C_10
REMARK    6  A    between atoms: C_8  and  C_10
REMARK    7  A    between atoms: C_8  and  C_12
REMARK    8  A    between atoms: C_11  and  C_16
REMARK    9  A    between atoms: C_17  and  O_23
REMARK   10  A    between atoms: C_25  and  C_27
REMARK   11  A    between atoms: C_25  and  C_29
REMARK   12  A    between atoms: C_28  and  C_32
REMARK   13  A    between atoms: C_30  and  C_32
REMARK   14  A    between atoms: C_30  and  C_34
REMARK   15  A    between atoms: C_33  and  C_38
REMARK   16  A    between atoms: C_39  and  O_45
REMARK                            x       y       z     vdW  Elec       q    Type
REMARK                         _______ _______ _______ _____ _____    ______ ____
ROOT
ATOM      1  C   UNL     1      70.457  53.278  64.335  0.00  0.00    +0.000 C 
ATOM      2  C   UNL     1      70.252  52.366  63.582  0.00  0.00    +0.000 C 
ENDROOT
BRANCH   2   3
ATOM      3  C   UNL     1      69.991  51.205  62.614  0.00  0.00    +0.000 C 
BRANCH   3   4
ATOM      4  C   UNL     1      69.770  50.229  61.791  0.00  0.00    +0.000 C 
ATOM      5  C   UNL     1      70.768  49.118  61.664  0.00  0.00    +0.000 C 
BRANCH   4   7
ATOM      6  C   UNL     1      67.662  50.275  60.243  0.00  0.00    +0.000 C 
ATOM      7  C   UNL     1      68.628  50.253  60.955  0.00  0.00    +0.000 C 
BRANCH   6   8
ATOM      8  C   UNL     1      66.430  50.303  59.331  0.00  0.00    +0.000 C 
BRANCH   8   9
ATOM      9  C   UNL     1      65.387  50.335  58.560  0.00  0.00    +0.000 C 
ATOM     10  C   UNL     1      65.235  49.323  57.466  0.00  0.00    +0.000 C 
BRANCH   9  12
ATOM     11  C   UNL     1      63.417  51.983  59.076  0.00  0.00    +0.000 C 
ATOM     12  C   UNL     1      64.326  51.228  58.850  0.00  0.00    +0.000 C 
BRANCH  11  16
ATOM     13  O   UNL     1      61.643  56.078  61.103  0.00  0.00    +0.000 OA
ATOM     14  C   UNL     1      60.936  52.538  58.722  0.00  0.00    +0.000 C 
ATOM     15  C   UNL     1      60.049  53.611  59.137  0.00  0.00    +0.000 C 
ATOM     16  C   UNL     1      62.318  52.893  59.331  0.00  0.00    +0.000 C 
ATOM     17  C   UNL     1      60.122  54.783  59.883  0.00  0.00    +0.000 C 
ATOM     18  C   UNL     1      61.056  52.510  57.180  0.00  0.00    +0.000 C 
ATOM     19  C   UNL     1      60.450  51.191  59.300  0.00  0.00    +0.000 C 
ATOM     20  C   UNL     1      62.528  54.015  60.080  0.00  0.00    +0.000 C 
ATOM     21  C   UNL     1      61.465  55.068  60.434  0.00  0.00    +0.000 C 
ATOM     22  C   UNL     1      63.938  54.283  60.625  0.00  0.00    +0.000 C 
BRANCH  17  23
ATOM     23  O   UNL     1      59.047  55.607  60.089  0.00  0.00    +0.000 OA
ATOM     24  H   UNL     1      59.209  56.490  59.699  0.00  0.00    +0.000 HD
ENDBRANCH  17  23
ENDBRANCH  11  16
ENDBRANCH   9  12
ENDBRANCH   8   9
ENDBRANCH   6   8
ENDBRANCH   4   7
ENDBRANCH   3   4
ENDBRANCH   2   3
BRANCH   1  25
ATOM     25  C   UNL     1      70.719  54.450  65.288  0.00  0.00    +0.000 C 
BRANCH  25  26
ATOM     26  C   UNL     1      70.937  55.439  66.097  0.00  0.00    +0.000 C 
ATOM     27  C   UNL     1      71.740  55.220  67.344  0.00  0.00    +0.000 C 
BRANCH  26  29
ATOM     28  C   UNL     1      69.843  57.769  65.635  0.00  0.00    +0.000 C 
ATOM     29  C   UNL     1      70.346  56.700  65.848  0.00  0.00    +0.000 C 
BRANCH  28  30
ATOM     30  C   UNL     1      69.200  59.134  65.359  0.00  0.00    +0.000 C 
BRANCH  30  31
ATOM     31  C   UNL     1      68.659  60.287  65.118  0.00  0.00    +0.000 C 
ATOM     32  C   UNL     1      68.790  61.398  66.116  0.00  0.00    +0.000 C 
BRANCH  31  34
ATOM     33  C   UNL     1      67.609  60.777  62.768  0.00  0.00    +0.000 C 
ATOM     34  C   UNL     1      68.085  60.542  63.848  0.00  0.00    +0.000 C 
BRANCH  33  38
ATOM     35  O   UNL     1      65.703  63.969  59.574  0.00  0.00    +0.000 OA
ATOM     36  C   UNL     1      66.907  59.910  60.457  0.00  0.00    +0.000 C 
ATOM     37  C   UNL     1      66.321  60.502  59.266  0.00  0.00    +0.000 C 
ATOM     38  C   UNL     1      67.043  61.078  61.467  0.00  0.00    +0.000 C 
ATOM     39  C   UNL     1      65.888  61.754  58.840  0.00  0.00    +0.000 C 
ATOM     40  C   UNL     1      68.313  59.350  60.138  0.00  0.00    +0.000 C 
ATOM     41  C   UNL     1      65.962  58.835  61.037  0.00  0.00    +0.000 C 
ATOM     42  C   UNL     1      66.661  62.356  61.177  0.00  0.00    +0.000 C 
ATOM     43  C   UNL     1      66.049  62.826  59.847  0.00  0.00    +0.000 C 
ATOM     44  C   UNL     1      66.853  63.443  62.243  0.00  0.00    +0.000 C 
BRANCH  39  45
ATOM     45  O   UNL     1      65.363  61.979  57.596  0.00  0.00    +0.000 OA
ATOM     46  H   UNL     1      66.029  62.390  57.008  0.00  0.00    +0.000 HD
ENDBRANCH  39  45
ENDBRANCH  33  38
ENDBRANCH  31  34
ENDBRANCH  30  31
ENDBRANCH  28  30
ENDBRANCH  26  29
ENDBRANCH  25  26
ENDBRANCH   1  25
TORSDOF 16
ENDMDL
MODEL 8
REMARK VINA RESULT:      -6.7      7.002     12.905
REMARK  Name = 5281224_Astaxanthin.pdbqt.pdb
REMARK  16 active torsions:
REMARK  status: ('A' for Active; 'I' for Inactive)
REMARK    1  A    between atoms: C_1  and  C_5
REMARK    2  A    between atoms: C_2  and  C_27
REMARK    3  A    between atoms: C_3  and  C_5
REMARK    4  A    between atoms: C_3  and  C_7
REMARK    5  A    between atoms: C_6  and  C_10
REMARK    6  A    between atoms: C_8  and  C_10
REMARK    7  A    between atoms: C_8  and  C_12
REMARK    8  A    between atoms: C_11  and  C_16
REMARK    9  A    between atoms: C_17  and  O_23
REMARK   10  A    between atoms: C_25  and  C_27
REMARK   11  A    between atoms: C_25  and  C_29
REMARK   12  A    between atoms: C_28  and  C_32
REMARK   13  A    between atoms: C_30  and  C_32
REMARK   14  A    between atoms: C_30  and  C_34
REMARK   15  A    between atoms: C_33  and  C_38
REMARK   16  A    between atoms: C_39  and  O_45
REMARK                            x       y       z     vdW  Elec       q    Type
REMARK                         _______ _______ _______ _____ _____    ______ ____
ROOT
ATOM      1  C   UNL     1      70.315  54.233  64.599  0.00  0.00    +0.000 C 
ATOM      2  C   UNL     1      70.275  53.247  63.915  0.00  0.00    +0.000 C 
ENDROOT
BRANCH   2   3
ATOM      3  C   UNL     1      70.226  51.992  63.035  0.00  0.00    +0.000 C 
BRANCH   3   4
ATOM      4  C   UNL     1      70.185  50.935  62.286  0.00  0.00    +0.000 C 
ATOM      5  C   UNL     1      71.320  49.956  62.312  0.00  0.00    +0.000 C 
BRANCH   4   7
ATOM      6  C   UNL     1      68.193  50.588  60.627  0.00  0.00    +0.000 C 
ATOM      7  C   UNL     1      69.108  50.747  61.387  0.00  0.00    +0.000 C 
BRANCH   6   8
ATOM      8  C   UNL     1      67.021  50.387  59.659  0.00  0.00    +0.000 C 
BRANCH   8   9
ATOM      9  C   UNL     1      66.029  50.225  58.839  0.00  0.00    +0.000 C 
ATOM     10  C   UNL     1      66.070  49.125  57.823  0.00  0.00    +0.000 C 
BRANCH   9  12
ATOM     11  C   UNL     1      63.842  51.639  59.125  0.00  0.00    +0.000 C 
ATOM     12  C   UNL     1      64.848  50.990  59.006  0.00  0.00    +0.000 C 
BRANCH  11  16
ATOM     13  O   UNL     1      58.958  51.940  59.402  0.00  0.00    +0.000 OA
ATOM     14  C   UNL     1      62.780  53.963  59.377  0.00  0.00    +0.000 C 
ATOM     15  C   UNL     1      61.424  54.471  59.488  0.00  0.00    +0.000 C 
ATOM     16  C   UNL     1      62.630  52.424  59.252  0.00  0.00    +0.000 C 
ATOM     17  C   UNL     1      60.128  53.965  59.509  0.00  0.00    +0.000 C 
ATOM     18  C   UNL     1      63.580  54.290  60.660  0.00  0.00    +0.000 C 
ATOM     19  C   UNL     1      63.456  54.518  58.104  0.00  0.00    +0.000 C 
ATOM     20  C   UNL     1      61.417  51.797  59.263  0.00  0.00    +0.000 C 
ATOM     21  C   UNL     1      60.051  52.492  59.390  0.00  0.00    +0.000 C 
ATOM     22  C   UNL     1      61.378  50.267  59.149  0.00  0.00    +0.000 C 
BRANCH  17  23
ATOM     23  O   UNL     1      59.018  54.756  59.634  0.00  0.00    +0.000 OA
ATOM     24  H   UNL     1      58.471  54.469  60.393  0.00  0.00    +0.000 HD
ENDBRANCH  17  23
ENDBRANCH  11  16
ENDBRANCH   9  12
ENDBRANCH   8   9
ENDBRANCH   6   8
ENDBRANCH   4   7
ENDBRANCH   3   4
ENDBRANCH   2   3
BRANCH   1  25
ATOM     25  C   UNL     1      70.368  55.498  65.463  0.00  0.00    +0.000 C 
BRANCH  25  26
ATOM     26  C   UNL     1      70.408  56.566  66.195  0.00  0.00    +0.000 C 
ATOM     27  C   UNL     1      71.046  56.519  67.552  0.00  0.00    +0.000 C 
BRANCH  26  29
ATOM     28  C   UNL     1      69.239  58.757  65.374  0.00  0.00    +0.000 C 
ATOM     29  C   UNL     1      69.776  57.752  65.753  0.00  0.00    +0.000 C 
BRANCH  28  30
ATOM     30  C   UNL     1      68.553  60.040  64.887  0.00  0.00    +0.000 C 
BRANCH  30  31
ATOM     31  C   UNL     1      67.981  61.125  64.471  0.00  0.00    +0.000 C 
ATOM     32  C   UNL     1      67.948  62.338  65.351  0.00  0.00    +0.000 C 
BRANCH  31  34
ATOM     33  C   UNL     1      67.151  61.309  61.993  0.00  0.00    +0.000 C 
ATOM     34  C   UNL     1      67.529  61.213  63.131  0.00  0.00    +0.000 C 
BRANCH  33  38
ATOM     35  O   UNL     1      65.090  59.413  57.971  0.00  0.00    +0.000 OA
ATOM     36  C   UNL     1      66.877  62.824  59.939  0.00  0.00    +0.000 C 
ATOM     37  C   UNL     1      66.339  62.659  58.599  0.00  0.00    +0.000 C 
ATOM     38  C   UNL     1      66.696  61.444  60.622  0.00  0.00    +0.000 C 
ATOM     39  C   UNL     1      65.750  61.655  57.837  0.00  0.00    +0.000 C 
ATOM     40  C   UNL     1      66.060  63.884  60.715  0.00  0.00    +0.000 C 
ATOM     41  C   UNL     1      68.381  63.171  59.871  0.00  0.00    +0.000 C 
ATOM     42  C   UNL     1      66.129  60.374  59.991  0.00  0.00    +0.000 C 
ATOM     43  C   UNL     1      65.601  60.365  58.547  0.00  0.00    +0.000 C 
ATOM     44  C   UNL     1      65.982  59.056  60.763  0.00  0.00    +0.000 C 
BRANCH  39  45
ATOM     45  O   UNL     1      65.337  61.841  56.546  0.00  0.00    +0.000 OA
ATOM     46  H   UNL     1      64.902  62.713  56.444  0.00  0.00    +0.000 HD
ENDBRANCH  39  45
ENDBRANCH  33  38
ENDBRANCH  31  34
ENDBRANCH  30  31
ENDBRANCH  28  30
ENDBRANCH  26  29
ENDBRANCH  25  26
ENDBRANCH   1  25
TORSDOF 16
ENDMDL
MODEL 9
REMARK VINA RESULT:      -6.7     18.189     23.643
REMARK  Name = 5281224_Astaxanthin.pdbqt.pdb
REMARK  16 active torsions:
REMARK  status: ('A' for Active; 'I' for Inactive)
REMARK    1  A    between atoms: C_1  and  C_5
REMARK    2  A    between atoms: C_2  and  C_27
REMARK    3  A    between atoms: C_3  and  C_5
REMARK    4  A    between atoms: C_3  and  C_7
REMARK    5  A    between atoms: C_6  and  C_10
REMARK    6  A    between atoms: C_8  and  C_10
REMARK    7  A    between atoms: C_8  and  C_12
REMARK    8  A    between atoms: C_11  and  C_16
REMARK    9  A    between atoms: C_17  and  O_23
REMARK   10  A    between atoms: C_25  and  C_27
REMARK   11  A    between atoms: C_25  and  C_29
REMARK   12  A    between atoms: C_28  and  C_32
REMARK   13  A    between atoms: C_30  and  C_32
REMARK   14  A    between atoms: C_30  and  C_34
REMARK   15  A    between atoms: C_33  and  C_38
REMARK   16  A    between atoms: C_39  and  O_45
REMARK                            x       y       z     vdW  Elec       q    Type
REMARK                         _______ _______ _______ _____ _____    ______ ____
ROOT
ATOM      1  C   UNL     1      68.236  47.010  57.045  0.00  0.00    +0.000 C 
ATOM      2  C   UNL     1      67.154  47.048  56.527  0.00  0.00    +0.000 C 
ENDROOT
BRANCH   2   3
ATOM      3  C   UNL     1      65.772  47.106  55.864  0.00  0.00    +0.000 C 
BRANCH   3   4
ATOM      4  C   UNL     1      64.607  47.158  55.299  0.00  0.00    +0.000 C 
ATOM      5  C   UNL     1      63.744  48.371  55.474  0.00  0.00    +0.000 C 
BRANCH   4   7
ATOM      6  C   UNL     1      63.706  45.088  53.978  0.00  0.00    +0.000 C 
ATOM      7  C   UNL     1      64.117  46.038  54.585  0.00  0.00    +0.000 C 
BRANCH   6   8
ATOM      8  C   UNL     1      63.183  43.873  53.202  0.00  0.00    +0.000 C 
BRANCH   8   9
ATOM      9  C   UNL     1      62.733  42.846  52.549  0.00  0.00    +0.000 C 
ATOM     10  C   UNL     1      62.405  42.973  51.092  0.00  0.00    +0.000 C 
BRANCH   9  12
ATOM     11  C   UNL     1      62.691  40.494  53.700  0.00  0.00    +0.000 C 
ATOM     12  C   UNL     1      62.699  41.576  53.174  0.00  0.00    +0.000 C 
BRANCH  11  16
ATOM     13  O   UNL     1      61.598  37.563  57.473  0.00  0.00    +0.000 OA
ATOM     14  C   UNL     1      63.333  38.014  53.538  0.00  0.00    +0.000 C 
ATOM     15  C   UNL     1      63.196  36.853  54.401  0.00  0.00    +0.000 C 
ATOM     16  C   UNL     1      62.698  39.187  54.329  0.00  0.00    +0.000 C 
ATOM     17  C   UNL     1      62.681  36.555  55.659  0.00  0.00    +0.000 C 
ATOM     18  C   UNL     1      62.540  37.800  52.227  0.00  0.00    +0.000 C 
ATOM     19  C   UNL     1      64.826  38.315  53.281  0.00  0.00    +0.000 C 
ATOM     20  C   UNL     1      62.152  39.032  55.571  0.00  0.00    +0.000 C 
ATOM     21  C   UNL     1      62.086  37.714  56.361  0.00  0.00    +0.000 C 
ATOM     22  C   UNL     1      61.535  40.255  56.262  0.00  0.00    +0.000 C 
BRANCH  17  23
ATOM     23  O   UNL     1      62.713  35.298  56.201  0.00  0.00    +0.000 OA
ATOM     24  H   UNL     1      63.620  34.932  56.173  0.00  0.00    +0.000 HD
ENDBRANCH  17  23
ENDBRANCH  11  16
ENDBRANCH   9  12
ENDBRANCH   8   9
ENDBRANCH   6   8
ENDBRANCH   4   7
ENDBRANCH   3   4
ENDBRANCH   2   3
BRANCH   1  25
ATOM     25  C   UNL     1      69.619  46.970  57.706  0.00  0.00    +0.000 C 
BRANCH  25  26
ATOM     26  C   UNL     1      70.790  46.940  58.260  0.00  0.00    +0.000 C 
ATOM     27  C   UNL     1      71.682  48.144  58.189  0.00  0.00    +0.000 C 
BRANCH  26  29
ATOM     28  C   UNL     1      71.658  44.731  59.359  0.00  0.00    +0.000 C 
ATOM     29  C   UNL     1      71.260  45.747  58.856  0.00  0.00    +0.000 C 
BRANCH  28  30
ATOM     30  C   UNL     1      72.165  43.433  60.001  0.00  0.00    +0.000 C 
BRANCH  30  31
ATOM     31  C   UNL     1      72.589  42.339  60.550  0.00  0.00    +0.000 C 
ATOM     32  C   UNL     1      73.726  41.583  59.931  0.00  0.00    +0.000 C 
BRANCH  31  34
ATOM     33  C   UNL     1      71.665  41.629  62.896  0.00  0.00    +0.000 C 
ATOM     34  C   UNL     1      72.084  41.945  61.814  0.00  0.00    +0.000 C 
BRANCH  33  38
ATOM     35  O   UNL     1      70.025  42.873  67.344  0.00  0.00    +0.000 OA
ATOM     36  C   UNL     1      71.022  39.751  64.523  0.00  0.00    +0.000 C 
ATOM     37  C   UNL     1      70.515  39.692  65.884  0.00  0.00    +0.000 C 
ATOM     38  C   UNL     1      71.170  41.262  64.209  0.00  0.00    +0.000 C 
ATOM     39  C   UNL     1      70.156  40.580  66.893  0.00  0.00    +0.000 C 
ATOM     40  C   UNL     1      69.999  39.128  63.545  0.00  0.00    +0.000 C 
ATOM     41  C   UNL     1      72.406  39.070  64.441  0.00  0.00    +0.000 C 
ATOM     42  C   UNL     1      70.850  42.239  65.107  0.00  0.00    +0.000 C 
ATOM     43  C   UNL     1      70.316  42.006  66.530  0.00  0.00    +0.000 C 
ATOM     44  C   UNL     1      71.018  43.707  64.691  0.00  0.00    +0.000 C 
BRANCH  39  45
ATOM     45  O   UNL     1      69.692  40.175  68.115  0.00  0.00    +0.000 OA
ATOM     46  H   UNL     1      70.394  39.708  68.615  0.00  0.00    +0.000 HD
ENDBRANCH  39  45
ENDBRANCH  33  38
ENDBRANCH  31  34
ENDBRANCH  30  31
ENDBRANCH  28  30
ENDBRANCH  26  29
ENDBRANCH  25  26
ENDBRANCH   1  25
TORSDOF 16
ENDMDL
