MODEL 1
REMARK VINA RESULT:      -6.9      0.000      0.000
REMARK  Name = 5289155_Peridinin.pdbqt.pdb
REMARK  13 active torsions:
REMARK  status: ('A' for Active; 'I' for Inactive)
REMARK    1  A    between atoms: C_1  and  C_3
REMARK    2  A    between atoms: C_3  and  C_25
REMARK    3  A    between atoms: C_6  and  C_12
REMARK    4  A    between atoms: C_11  and  C_14
REMARK    5  A    between atoms: C_19  and  O_23
REMARK    6  A    between atoms: C_26  and  C_28
REMARK    7  A    between atoms: C_27  and  C_31
REMARK    8  A    between atoms: C_29  and  C_31
REMARK    9  A    between atoms: C_29  and  C_42
REMARK   10  A    between atoms: C_33  and  O_43
REMARK   11  A    between atoms: C_35  and  O_45
REMARK   12  A    between atoms: C_37  and  C_41
REMARK   13  A    between atoms: O_45  and  C_47
REMARK                            x       y       z     vdW  Elec       q    Type
REMARK                         _______ _______ _______ _____ _____    ______ ____
ROOT
ATOM      1  C   UNL     1      70.175  49.089  60.413  0.00  0.00    +0.000 C 
ENDROOT
BRANCH   1   2
ATOM      2  C   UNL     1      69.695  50.259  60.696  0.00  0.00    +0.000 C 
ATOM      3  C   UNL     1      70.472  51.202  61.563  0.00  0.00    +0.000 C 
ATOM      4  O   UNL     1      66.356  50.084  59.351  0.00  0.00    +0.000 OA
ATOM      5  O   UNL     1      64.089  50.382  58.967  0.00  0.00    +0.000 OA
ATOM      6  C   UNL     1      65.511  52.240  59.568  0.00  0.00    +0.000 C 
ATOM      7  C   UNL     1      66.768  52.309  59.815  0.00  0.00    +0.000 C 
ATOM      8  C   UNL     1      65.185  50.830  59.252  0.00  0.00    +0.000 C 
ATOM      9  C   UNL     1      67.319  51.039  59.664  0.00  0.00    +0.000 C 
ATOM     10  C   UNL     1      68.453  50.664  60.157  0.00  0.00    +0.000 C 
BRANCH   6  12
ATOM     11  C   UNL     1      63.875  54.271  59.660  0.00  0.00    +0.000 C 
ATOM     12  C   UNL     1      64.632  53.338  59.620  0.00  0.00    +0.000 C 
BRANCH  11  14
ATOM     13  O   UNL     1      62.893  56.034  58.392  0.00  0.00    +0.000 OA
ATOM     14  C   UNL     1      62.952  55.394  59.700  0.00  0.00    +0.000 C 
ATOM     15  C   UNL     1      61.697  55.374  58.802  0.00  0.00    +0.000 C 
ATOM     16  C   UNL     1      62.951  56.347  60.945  0.00  0.00    +0.000 C 
ATOM     17  C   UNL     1      60.653  56.296  59.118  0.00  0.00    +0.000 C 
ATOM     18  C   UNL     1      61.742  57.171  60.855  0.00  0.00    +0.000 C 
ATOM     19  C   UNL     1      60.552  57.285  60.112  0.00  0.00    +0.000 C 
ATOM     20  C   UNL     1      61.315  54.189  57.910  0.00  0.00    +0.000 C 
ATOM     21  C   UNL     1      62.888  55.416  62.185  0.00  0.00    +0.000 C 
ATOM     22  C   UNL     1      64.261  57.163  60.878  0.00  0.00    +0.000 C 
BRANCH  19  23
ATOM     23  O   UNL     1      59.371  57.611  60.707  0.00  0.00    +0.000 OA
ATOM     24  H   UNL     1      59.376  57.432  61.664  0.00  0.00    +0.000 HD
ENDBRANCH  19  23
ENDBRANCH  11  14
ENDBRANCH   6  12
ENDBRANCH   1   2
BRANCH   1  25
ATOM     25  C   UNL     1      70.742  47.705  60.078  0.00  0.00    +0.000 C 
ATOM     26  C   UNL     1      71.192  46.624  59.816  0.00  0.00    +0.000 C 
BRANCH  26  28
ATOM     27  C   UNL     1      72.224  44.164  59.231  0.00  0.00    +0.000 C 
ATOM     28  C   UNL     1      71.772  45.246  59.485  0.00  0.00    +0.000 C 
BRANCH  27  29
ATOM     29  C   UNL     1      72.801  42.779  58.912  0.00  0.00    +0.000 C 
BRANCH  29  30
ATOM     30  C   UNL     1      73.292  41.609  58.654  0.00  0.00    +0.000 C 
ATOM     31  C   UNL     1      74.323  41.441  57.579  0.00  0.00    +0.000 C 
BRANCH  30  33
ATOM     32  C   UNL     1      72.408  39.505  59.941  0.00  0.00    +0.000 C 
ATOM     33  C   UNL     1      72.814  40.471  59.352  0.00  0.00    +0.000 C 
BRANCH  32  39
ATOM     34  C   UNL     1      71.449  38.515  62.035  0.00  0.00    +0.000 C 
ATOM     35  C   UNL     1      72.010  37.064  59.950  0.00  0.00    +0.000 C 
ATOM     36  C   UNL     1      70.745  37.281  62.409  0.00  0.00    +0.000 C 
ATOM     37  C   UNL     1      70.475  36.003  61.878  0.00  0.00    +0.000 C 
ATOM     38  C   UNL     1      71.179  36.098  60.660  0.00  0.00    +0.000 C 
ATOM     39  C   UNL     1      71.970  38.443  60.588  0.00  0.00    +0.000 C 
ATOM     40  C   UNL     1      70.442  39.700  62.158  0.00  0.00    +0.000 C 
ATOM     41  C   UNL     1      72.655  38.744  62.985  0.00  0.00    +0.000 C 
ATOM     42  C   UNL     1      73.451  36.565  59.813  0.00  0.00    +0.000 C 
BRANCH  35  43
ATOM     43  O   UNL     1      71.527  37.152  58.627  0.00  0.00    +0.000 OA
ATOM     44  H   UNL     1      72.346  37.019  58.114  0.00  0.00    +0.000 HD
ENDBRANCH  35  43
BRANCH  37  45
ATOM     45  O   UNL     1      70.627  34.887  62.692  0.00  0.00    +0.000 OA
BRANCH  45  47
ATOM     46  O   UNL     1      68.502  34.963  63.683  0.00  0.00    +0.000 OA
ATOM     47  C   UNL     1      69.718  34.923  63.698  0.00  0.00    +0.000 C 
ATOM     48  C   UNL     1      70.317  34.925  65.060  0.00  0.00    +0.000 C 
ENDBRANCH  45  47
ENDBRANCH  37  45
ENDBRANCH  32  39
ENDBRANCH  30  33
ENDBRANCH  29  30
ENDBRANCH  27  29
ENDBRANCH  26  28
ENDBRANCH   1  25
TORSDOF 13
ENDMDL
MODEL 2
REMARK VINA RESULT:      -6.7     11.232     17.212
REMARK  Name = 5289155_Peridinin.pdbqt.pdb
REMARK  13 active torsions:
REMARK  status: ('A' for Active; 'I' for Inactive)
REMARK    1  A    between atoms: C_1  and  C_3
REMARK    2  A    between atoms: C_3  and  C_25
REMARK    3  A    between atoms: C_6  and  C_12
REMARK    4  A    between atoms: C_11  and  C_14
REMARK    5  A    between atoms: C_19  and  O_23
REMARK    6  A    between atoms: C_26  and  C_28
REMARK    7  A    between atoms: C_27  and  C_31
REMARK    8  A    between atoms: C_29  and  C_31
REMARK    9  A    between atoms: C_29  and  C_42
REMARK   10  A    between atoms: C_33  and  O_43
REMARK   11  A    between atoms: C_35  and  O_45
REMARK   12  A    between atoms: C_37  and  C_41
REMARK   13  A    between atoms: O_45  and  C_47
REMARK                            x       y       z     vdW  Elec       q    Type
REMARK                         _______ _______ _______ _____ _____    ______ ____
ROOT
ATOM      1  C   UNL     1      66.416  63.556  64.373  0.00  0.00    +0.000 C 
ENDROOT
BRANCH   1   2
ATOM      2  C   UNL     1      65.811  64.702  64.359  0.00  0.00    +0.000 C 
ATOM      3  C   UNL     1      64.802  65.008  63.297  0.00  0.00    +0.000 C 
ATOM      4  O   UNL     1      67.553  66.537  66.926  0.00  0.00    +0.000 OA
ATOM      5  O   UNL     1      68.513  68.216  68.204  0.00  0.00    +0.000 OA
ATOM      6  C   UNL     1      66.353  68.515  67.164  0.00  0.00    +0.000 C 
ATOM      7  C   UNL     1      65.641  67.736  66.436  0.00  0.00    +0.000 C 
ATOM      8  C   UNL     1      67.598  67.794  67.521  0.00  0.00    +0.000 C 
ATOM      9  C   UNL     1      66.313  66.524  66.295  0.00  0.00    +0.000 C 
ATOM     10  C   UNL     1      66.075  65.653  65.370  0.00  0.00    +0.000 C 
BRANCH   6  12
ATOM     11  C   UNL     1      65.660  70.945  67.815  0.00  0.00    +0.000 C 
ATOM     12  C   UNL     1      65.983  69.826  67.520  0.00  0.00    +0.000 C 
BRANCH  11  14
ATOM     13  O   UNL     1      65.919  72.706  69.400  0.00  0.00    +0.000 OA
ATOM     14  C   UNL     1      65.267  72.301  68.162  0.00  0.00    +0.000 C 
ATOM     15  C   UNL     1      66.343  73.406  68.233  0.00  0.00    +0.000 C 
ATOM     16  C   UNL     1      63.772  72.740  67.984  0.00  0.00    +0.000 C 
ATOM     17  C   UNL     1      65.890  74.760  68.222  0.00  0.00    +0.000 C 
ATOM     18  C   UNL     1      63.735  74.200  68.106  0.00  0.00    +0.000 C 
ATOM     19  C   UNL     1      64.597  75.310  68.190  0.00  0.00    +0.000 C 
ATOM     20  C   UNL     1      67.815  73.176  67.879  0.00  0.00    +0.000 C 
ATOM     21  C   UNL     1      63.374  72.300  66.550  0.00  0.00    +0.000 C 
ATOM     22  C   UNL     1      62.964  72.009  69.078  0.00  0.00    +0.000 C 
BRANCH  19  23
ATOM     23  O   UNL     1      64.311  76.481  67.555  0.00  0.00    +0.000 OA
ATOM     24  H   UNL     1      63.950  76.340  66.661  0.00  0.00    +0.000 HD
ENDBRANCH  19  23
ENDBRANCH  11  14
ENDBRANCH   6  12
ENDBRANCH   1   2
BRANCH   1  25
ATOM     25  C   UNL     1      67.131  62.199  64.389  0.00  0.00    +0.000 C 
ATOM     26  C   UNL     1      67.689  61.137  64.408  0.00  0.00    +0.000 C 
BRANCH  26  28
ATOM     27  C   UNL     1      68.960  58.721  64.460  0.00  0.00    +0.000 C 
ATOM     28  C   UNL     1      68.400  59.781  64.439  0.00  0.00    +0.000 C 
BRANCH  27  29
ATOM     29  C   UNL     1      69.681  57.367  64.480  0.00  0.00    +0.000 C 
BRANCH  29  30
ATOM     30  C   UNL     1      70.299  56.229  64.501  0.00  0.00    +0.000 C 
ATOM     31  C   UNL     1      71.457  56.012  65.428  0.00  0.00    +0.000 C 
BRANCH  30  33
ATOM     32  C   UNL     1      69.588  54.326  62.846  0.00  0.00    +0.000 C 
ATOM     33  C   UNL     1      69.916  55.200  63.604  0.00  0.00    +0.000 C 
BRANCH  32  39
ATOM     34  C   UNL     1      69.408  51.877  62.342  0.00  0.00    +0.000 C 
ATOM     35  C   UNL     1      68.649  53.698  60.646  0.00  0.00    +0.000 C 
ATOM     36  C   UNL     1      68.653  51.031  61.407  0.00  0.00    +0.000 C 
ATOM     37  C   UNL     1      67.879  51.161  60.236  0.00  0.00    +0.000 C 
ATOM     38  C   UNL     1      67.993  52.551  60.028  0.00  0.00    +0.000 C 
ATOM     39  C   UNL     1      69.224  53.370  62.015  0.00  0.00    +0.000 C 
ATOM     40  C   UNL     1      68.873  51.600  63.781  0.00  0.00    +0.000 C 
ATOM     41  C   UNL     1      70.919  51.534  62.263  0.00  0.00    +0.000 C 
ATOM     42  C   UNL     1      69.723  54.288  59.728  0.00  0.00    +0.000 C 
BRANCH  35  43
ATOM     43  O   UNL     1      67.684  54.719  60.782  0.00  0.00    +0.000 OA
ATOM     44  H   UNL     1      67.549  54.981  59.852  0.00  0.00    +0.000 HD
ENDBRANCH  35  43
BRANCH  37  45
ATOM     45  O   UNL     1      68.086  50.274  59.187  0.00  0.00    +0.000 OA
BRANCH  45  47
ATOM     46  O   UNL     1      66.785  50.399  57.240  0.00  0.00    +0.000 OA
ATOM     47  C   UNL     1      66.969  50.191  58.424  0.00  0.00    +0.000 C 
ATOM     48  C   UNL     1      65.749  49.785  59.174  0.00  0.00    +0.000 C 
ENDBRANCH  45  47
ENDBRANCH  37  45
ENDBRANCH  32  39
ENDBRANCH  30  33
ENDBRANCH  29  30
ENDBRANCH  27  29
ENDBRANCH  26  28
ENDBRANCH   1  25
TORSDOF 13
ENDMDL
MODEL 3
REMARK VINA RESULT:      -6.7     22.587     31.366
REMARK  Name = 5289155_Peridinin.pdbqt.pdb
REMARK  13 active torsions:
REMARK  status: ('A' for Active; 'I' for Inactive)
REMARK    1  A    between atoms: C_1  and  C_3
REMARK    2  A    between atoms: C_3  and  C_25
REMARK    3  A    between atoms: C_6  and  C_12
REMARK    4  A    between atoms: C_11  and  C_14
REMARK    5  A    between atoms: C_19  and  O_23
REMARK    6  A    between atoms: C_26  and  C_28
REMARK    7  A    between atoms: C_27  and  C_31
REMARK    8  A    between atoms: C_29  and  C_31
REMARK    9  A    between atoms: C_29  and  C_42
REMARK   10  A    between atoms: C_33  and  O_43
REMARK   11  A    between atoms: C_35  and  O_45
REMARK   12  A    between atoms: C_37  and  C_41
REMARK   13  A    between atoms: O_45  and  C_47
REMARK                            x       y       z     vdW  Elec       q    Type
REMARK                         _______ _______ _______ _____ _____    ______ ____
ROOT
ATOM      1  C   UNL     1      69.782  70.914  68.159  0.00  0.00    +0.000 C 
ENDROOT
BRANCH   1   2
ATOM      2  C   UNL     1      69.058  69.848  68.019  0.00  0.00    +0.000 C 
ATOM      3  C   UNL     1      69.704  68.497  68.001  0.00  0.00    +0.000 C 
ATOM      4  O   UNL     1      65.795  71.202  67.308  0.00  0.00    +0.000 OA
ATOM      5  O   UNL     1      63.638  71.523  66.521  0.00  0.00    +0.000 OA
ATOM      6  C   UNL     1      64.371  69.363  67.316  0.00  0.00    +0.000 C 
ATOM      7  C   UNL     1      65.493  68.964  67.793  0.00  0.00    +0.000 C 
ATOM      8  C   UNL     1      64.500  70.803  66.992  0.00  0.00    +0.000 C 
ATOM      9  C   UNL     1      66.366  70.048  67.835  0.00  0.00    +0.000 C 
ATOM     10  C   UNL     1      67.653  69.954  67.922  0.00  0.00    +0.000 C 
BRANCH   6  12
ATOM     11  C   UNL     1      62.284  67.832  66.983  0.00  0.00    +0.000 C 
ATOM     12  C   UNL     1      63.248  68.534  67.133  0.00  0.00    +0.000 C 
BRANCH  11  14
ATOM     13  O   UNL     1      60.341  67.437  65.661  0.00  0.00    +0.000 OA
ATOM     14  C   UNL     1      61.113  66.987  66.812  0.00  0.00    +0.000 C 
ATOM     15  C   UNL     1      60.960  66.161  65.517  0.00  0.00    +0.000 C 
ATOM     16  C   UNL     1      60.293  66.540  68.072  0.00  0.00    +0.000 C 
ATOM     17  C   UNL     1      60.010  65.095  65.531  0.00  0.00    +0.000 C 
ATOM     18  C   UNL     1      59.388  65.472  67.638  0.00  0.00    +0.000 C 
ATOM     19  C   UNL     1      59.123  64.650  66.527  0.00  0.00    +0.000 C 
ATOM     20  C   UNL     1      62.022  66.114  64.414  0.00  0.00    +0.000 C 
ATOM     21  C   UNL     1      61.340  65.996  69.080  0.00  0.00    +0.000 C 
ATOM     22  C   UNL     1      59.562  67.797  68.591  0.00  0.00    +0.000 C 
BRANCH  19  23
ATOM     23  O   UNL     1      58.783  63.339  66.677  0.00  0.00    +0.000 OA
ATOM     24  H   UNL     1      58.278  62.998  65.916  0.00  0.00    +0.000 HD
ENDBRANCH  19  23
ENDBRANCH  11  14
ENDBRANCH   6  12
ENDBRANCH   1   2
BRANCH   1  25
ATOM     25  C   UNL     1      70.637  72.176  68.323  0.00  0.00    +0.000 C 
ATOM     26  C   UNL     1      71.311  73.160  68.452  0.00  0.00    +0.000 C 
BRANCH  26  28
ATOM     27  C   UNL     1      72.860  75.389  68.752  0.00  0.00    +0.000 C 
ATOM     28  C   UNL     1      72.178  74.412  68.619  0.00  0.00    +0.000 C 
BRANCH  27  29
ATOM     29  C   UNL     1      73.735  76.637  68.930  0.00  0.00    +0.000 C 
BRANCH  29  30
ATOM     30  C   UNL     1      74.473  77.692  69.069  0.00  0.00    +0.000 C 
ATOM     31  C   UNL     1      74.874  78.499  67.871  0.00  0.00    +0.000 C 
BRANCH  30  33
ATOM     32  C   UNL     1      75.353  78.364  71.444  0.00  0.00    +0.000 C 
ATOM     33  C   UNL     1      74.949  78.058  70.354  0.00  0.00    +0.000 C 
BRANCH  32  39
ATOM     34  C   UNL     1      75.049  79.674  73.558  0.00  0.00    +0.000 C 
ATOM     35  C   UNL     1      77.134  78.174  73.150  0.00  0.00    +0.000 C 
ATOM     36  C   UNL     1      75.587  79.638  74.925  0.00  0.00    +0.000 C 
ATOM     37  C   UNL     1      76.649  79.047  75.640  0.00  0.00    +0.000 C 
ATOM     38  C   UNL     1      77.290  78.360  74.588  0.00  0.00    +0.000 C 
ATOM     39  C   UNL     1      75.802  78.698  72.637  0.00  0.00    +0.000 C 
ATOM     40  C   UNL     1      73.546  79.261  73.622  0.00  0.00    +0.000 C 
ATOM     41  C   UNL     1      75.181  81.107  72.976  0.00  0.00    +0.000 C 
ATOM     42  C   UNL     1      78.301  78.795  72.377  0.00  0.00    +0.000 C 
BRANCH  35  43
ATOM     43  O   UNL     1      77.218  76.790  72.887  0.00  0.00    +0.000 OA
ATOM     44  H   UNL     1      77.643  76.786  72.009  0.00  0.00    +0.000 HD
ENDBRANCH  35  43
BRANCH  37  45
ATOM     45  O   UNL     1      77.386  79.827  76.522  0.00  0.00    +0.000 OA
BRANCH  45  47
ATOM     46  O   UNL     1      77.258  78.545  78.481  0.00  0.00    +0.000 OA
ATOM     47  C   UNL     1      77.044  79.529  77.799  0.00  0.00    +0.000 C 
ATOM     48  C   UNL     1      76.254  80.590  78.481  0.00  0.00    +0.000 C 
ENDBRANCH  45  47
ENDBRANCH  37  45
ENDBRANCH  32  39
ENDBRANCH  30  33
ENDBRANCH  29  30
ENDBRANCH  27  29
ENDBRANCH  26  28
ENDBRANCH   1  25
TORSDOF 13
ENDMDL
MODEL 4
REMARK VINA RESULT:      -6.7     12.155     18.062
REMARK  Name = 5289155_Peridinin.pdbqt.pdb
REMARK  13 active torsions:
REMARK  status: ('A' for Active; 'I' for Inactive)
REMARK    1  A    between atoms: C_1  and  C_3
REMARK    2  A    between atoms: C_3  and  C_25
REMARK    3  A    between atoms: C_6  and  C_12
REMARK    4  A    between atoms: C_11  and  C_14
REMARK    5  A    between atoms: C_19  and  O_23
REMARK    6  A    between atoms: C_26  and  C_28
REMARK    7  A    between atoms: C_27  and  C_31
REMARK    8  A    between atoms: C_29  and  C_31
REMARK    9  A    between atoms: C_29  and  C_42
REMARK   10  A    between atoms: C_33  and  O_43
REMARK   11  A    between atoms: C_35  and  O_45
REMARK   12  A    between atoms: C_37  and  C_41
REMARK   13  A    between atoms: O_45  and  C_47
REMARK                            x       y       z     vdW  Elec       q    Type
REMARK                         _______ _______ _______ _____ _____    ______ ____
ROOT
ATOM      1  C   UNL     1      66.874  64.206  65.286  0.00  0.00    +0.000 C 
ENDROOT
BRANCH   1   2
ATOM      2  C   UNL     1      66.281  65.347  65.125  0.00  0.00    +0.000 C 
ATOM      3  C   UNL     1      65.292  65.532  64.016  0.00  0.00    +0.000 C 
ATOM      4  O   UNL     1      67.998  67.463  67.484  0.00  0.00    +0.000 OA
ATOM      5  O   UNL     1      68.953  69.276  68.568  0.00  0.00    +0.000 OA
ATOM      6  C   UNL     1      66.814  69.465  67.462  0.00  0.00    +0.000 C 
ATOM      7  C   UNL     1      66.106  68.610  66.819  0.00  0.00    +0.000 C 
ATOM      8  C   UNL     1      68.045  68.782  67.924  0.00  0.00    +0.000 C 
ATOM      9  C   UNL     1      66.768  67.385  66.837  0.00  0.00    +0.000 C 
ATOM     10  C   UNL     1      66.537  66.411  66.019  0.00  0.00    +0.000 C 
BRANCH   6  12
ATOM     11  C   UNL     1      66.144  71.961  67.822  0.00  0.00    +0.000 C 
ATOM     12  C   UNL     1      66.450  70.812  67.651  0.00  0.00    +0.000 C 
BRANCH  11  14
ATOM     13  O   UNL     1      64.419  73.585  67.560  0.00  0.00    +0.000 OA
ATOM     14  C   UNL     1      65.775  73.351  68.039  0.00  0.00    +0.000 C 
ATOM     15  C   UNL     1      64.590  73.681  68.972  0.00  0.00    +0.000 C 
ATOM     16  C   UNL     1      66.823  74.482  67.751  0.00  0.00    +0.000 C 
ATOM     17  C   UNL     1      64.482  75.026  69.439  0.00  0.00    +0.000 C 
ATOM     18  C   UNL     1      66.297  75.715  68.343  0.00  0.00    +0.000 C 
ATOM     19  C   UNL     1      65.258  76.169  69.178  0.00  0.00    +0.000 C 
ATOM     20  C   UNL     1      63.813  72.621  69.759  0.00  0.00    +0.000 C 
ATOM     21  C   UNL     1      68.124  74.040  68.472  0.00  0.00    +0.000 C 
ATOM     22  C   UNL     1      66.984  74.553  66.217  0.00  0.00    +0.000 C 
BRANCH  19  23
ATOM     23  O   UNL     1      65.467  77.144  70.106  0.00  0.00    +0.000 OA
ATOM     24  H   UNL     1      65.632  78.014  69.700  0.00  0.00    +0.000 HD
ENDBRANCH  19  23
ENDBRANCH  11  14
ENDBRANCH   6  12
ENDBRANCH   1   2
BRANCH   1  25
ATOM     25  C   UNL     1      67.575  62.856  65.477  0.00  0.00    +0.000 C 
ATOM     26  C   UNL     1      68.119  61.797  65.628  0.00  0.00    +0.000 C 
BRANCH  26  28
ATOM     27  C   UNL     1      69.340  59.379  65.973  0.00  0.00    +0.000 C 
ATOM     28  C   UNL     1      68.806  60.442  65.823  0.00  0.00    +0.000 C 
BRANCH  27  29
ATOM     29  C   UNL     1      70.016  58.015  66.165  0.00  0.00    +0.000 C 
BRANCH  29  30
ATOM     30  C   UNL     1      70.593  56.866  66.318  0.00  0.00    +0.000 C 
ATOM     31  C   UNL     1      71.519  56.630  67.472  0.00  0.00    +0.000 C 
BRANCH  30  33
ATOM     32  C   UNL     1      70.222  54.970  64.547  0.00  0.00    +0.000 C 
ATOM     33  C   UNL     1      70.391  55.841  65.358  0.00  0.00    +0.000 C 
BRANCH  32  39
ATOM     34  C   UNL     1      70.102  52.520  64.032  0.00  0.00    +0.000 C 
ATOM     35  C   UNL     1      69.789  54.336  62.196  0.00  0.00    +0.000 C 
ATOM     36  C   UNL     1      69.558  51.679  62.956  0.00  0.00    +0.000 C 
ATOM     37  C   UNL     1      69.072  51.812  61.639  0.00  0.00    +0.000 C 
ATOM     38  C   UNL     1      69.263  53.196  61.453  0.00  0.00    +0.000 C 
ATOM     39  C   UNL     1      70.032  54.013  63.661  0.00  0.00    +0.000 C 
ATOM     40  C   UNL     1      69.249  52.272  65.314  0.00  0.00    +0.000 C 
ATOM     41  C   UNL     1      71.584  52.144  64.299  0.00  0.00    +0.000 C 
ATOM     42  C   UNL     1      71.056  54.893  61.540  0.00  0.00    +0.000 C 
BRANCH  35  43
ATOM     43  O   UNL     1      68.843  55.379  62.103  0.00  0.00    +0.000 OA
ATOM     44  H   UNL     1      69.353  56.133  62.453  0.00  0.00    +0.000 HD
ENDBRANCH  35  43
BRANCH  37  45
ATOM     45  O   UNL     1      69.490  50.908  60.671  0.00  0.00    +0.000 OA
BRANCH  45  47
ATOM     46  O   UNL     1      67.290  50.585  59.926  0.00  0.00    +0.000 OA
ATOM     47  C   UNL     1      68.493  50.693  59.779  0.00  0.00    +0.000 C 
ATOM     48  C   UNL     1      68.955  50.551  58.371  0.00  0.00    +0.000 C 
ENDBRANCH  45  47
ENDBRANCH  37  45
ENDBRANCH  32  39
ENDBRANCH  30  33
ENDBRANCH  29  30
ENDBRANCH  27  29
ENDBRANCH  26  28
ENDBRANCH   1  25
TORSDOF 13
ENDMDL
MODEL 5
REMARK VINA RESULT:      -6.6      7.502     17.747
REMARK  Name = 5289155_Peridinin.pdbqt.pdb
REMARK  13 active torsions:
REMARK  status: ('A' for Active; 'I' for Inactive)
REMARK    1  A    between atoms: C_1  and  C_3
REMARK    2  A    between atoms: C_3  and  C_25
REMARK    3  A    between atoms: C_6  and  C_12
REMARK    4  A    between atoms: C_11  and  C_14
REMARK    5  A    between atoms: C_19  and  O_23
REMARK    6  A    between atoms: C_26  and  C_28
REMARK    7  A    between atoms: C_27  and  C_31
REMARK    8  A    between atoms: C_29  and  C_31
REMARK    9  A    between atoms: C_29  and  C_42
REMARK   10  A    between atoms: C_33  and  O_43
REMARK   11  A    between atoms: C_35  and  O_45
REMARK   12  A    between atoms: C_37  and  C_41
REMARK   13  A    between atoms: O_45  and  C_47
REMARK                            x       y       z     vdW  Elec       q    Type
REMARK                         _______ _______ _______ _____ _____    ______ ____
ROOT
ATOM      1  C   UNL     1      65.640  51.031  58.908  0.00  0.00    +0.000 C 
ENDROOT
BRANCH   1   2
ATOM      2  C   UNL     1      64.911  50.178  58.259  0.00  0.00    +0.000 C 
ATOM      3  C   UNL     1      63.417  50.242  58.349  0.00  0.00    +0.000 C 
ATOM      4  O   UNL     1      67.363  47.873  56.968  0.00  0.00    +0.000 OA
ATOM      5  O   UNL     1      68.450  45.978  56.194  0.00  0.00    +0.000 OA
ATOM      6  C   UNL     1      66.170  46.462  55.556  0.00  0.00    +0.000 C 
ATOM      7  C   UNL     1      65.390  47.436  55.852  0.00  0.00    +0.000 C 
ATOM      8  C   UNL     1      67.465  46.693  56.240  0.00  0.00    +0.000 C 
ATOM      9  C   UNL     1      66.079  48.323  56.674  0.00  0.00    +0.000 C 
ATOM     10  C   UNL     1      65.523  49.209  57.432  0.00  0.00    +0.000 C 
BRANCH   6  12
ATOM     11  C   UNL     1      65.507  44.453  54.029  0.00  0.00    +0.000 C 
ATOM     12  C   UNL     1      65.809  45.377  54.736  0.00  0.00    +0.000 C 
BRANCH  11  14
ATOM     13  O   UNL     1      66.226  43.076  52.221  0.00  0.00    +0.000 OA
ATOM     14  C   UNL     1      65.148  43.340  53.165  0.00  0.00    +0.000 C 
ATOM     15  C   UNL     1      66.004  42.055  53.191  0.00  0.00    +0.000 C 
ATOM     16  C   UNL     1      63.687  43.239  52.604  0.00  0.00    +0.000 C 
ATOM     17  C   UNL     1      65.434  40.879  52.616  0.00  0.00    +0.000 C 
ATOM     18  C   UNL     1      63.533  41.894  52.044  0.00  0.00    +0.000 C 
ATOM     19  C   UNL     1      64.204  40.658  51.973  0.00  0.00    +0.000 C 
ATOM     20  C   UNL     1      67.185  41.847  54.143  0.00  0.00    +0.000 C 
ATOM     21  C   UNL     1      62.754  43.433  53.829  0.00  0.00    +0.000 C 
ATOM     22  C   UNL     1      63.539  44.364  51.556  0.00  0.00    +0.000 C 
BRANCH  19  23
ATOM     23  O   UNL     1      63.530  39.477  52.062  0.00  0.00    +0.000 OA
ATOM     24  H   UNL     1      62.611  39.596  52.365  0.00  0.00    +0.000 HD
ENDBRANCH  19  23
ENDBRANCH  11  14
ENDBRANCH   6  12
ENDBRANCH   1   2
BRANCH   1  25
ATOM     25  C   UNL     1      66.502  52.038  59.678  0.00  0.00    +0.000 C 
ATOM     26  C   UNL     1      67.181  52.823  60.280  0.00  0.00    +0.000 C 
BRANCH  26  28
ATOM     27  C   UNL     1      68.737  54.605  61.646  0.00  0.00    +0.000 C 
ATOM     28  C   UNL     1      68.054  53.820  61.048  0.00  0.00    +0.000 C 
BRANCH  27  29
ATOM     29  C   UNL     1      69.610  55.612  62.404  0.00  0.00    +0.000 C 
BRANCH  29  30
ATOM     30  C   UNL     1      70.339  56.467  63.049  0.00  0.00    +0.000 C 
ATOM     31  C   UNL     1      71.747  56.124  63.433  0.00  0.00    +0.000 C 
BRANCH  30  33
ATOM     32  C   UNL     1      69.321  58.769  63.776  0.00  0.00    +0.000 C 
ATOM     33  C   UNL     1      69.787  57.712  63.442  0.00  0.00    +0.000 C 
BRANCH  32  39
ATOM     34  C   UNL     1      67.781  60.682  63.274  0.00  0.00    +0.000 C 
ATOM     35  C   UNL     1      69.265  60.625  65.409  0.00  0.00    +0.000 C 
ATOM     36  C   UNL     1      67.152  61.774  64.029  0.00  0.00    +0.000 C 
ATOM     37  C   UNL     1      67.267  62.412  65.281  0.00  0.00    +0.000 C 
ATOM     38  C   UNL     1      68.359  61.695  65.813  0.00  0.00    +0.000 C 
ATOM     39  C   UNL     1      68.812  59.930  64.135  0.00  0.00    +0.000 C 
ATOM     40  C   UNL     1      66.659  59.690  62.839  0.00  0.00    +0.000 C 
ATOM     41  C   UNL     1      68.501  61.250  62.022  0.00  0.00    +0.000 C 
ATOM     42  C   UNL     1      70.703  61.133  65.274  0.00  0.00    +0.000 C 
BRANCH  35  43
ATOM     43  O   UNL     1      69.308  59.684  66.460  0.00  0.00    +0.000 OA
ATOM     44  H   UNL     1      69.604  60.240  67.205  0.00  0.00    +0.000 HD
ENDBRANCH  35  43
BRANCH  37  45
ATOM     45  O   UNL     1      67.243  63.800  65.337  0.00  0.00    +0.000 OA
BRANCH  45  47
ATOM     46  O   UNL     1      65.171  64.176  64.305  0.00  0.00    +0.000 OA
ATOM     47  C   UNL     1      66.378  64.284  64.413  0.00  0.00    +0.000 C 
ATOM     48  C   UNL     1      67.024  65.078  63.332  0.00  0.00    +0.000 C 
ENDBRANCH  45  47
ENDBRANCH  37  45
ENDBRANCH  32  39
ENDBRANCH  30  33
ENDBRANCH  29  30
ENDBRANCH  27  29
ENDBRANCH  26  28
ENDBRANCH   1  25
TORSDOF 13
ENDMDL
MODEL 6
REMARK VINA RESULT:      -6.5      8.791     14.524
REMARK  Name = 5289155_Peridinin.pdbqt.pdb
REMARK  13 active torsions:
REMARK  status: ('A' for Active; 'I' for Inactive)
REMARK    1  A    between atoms: C_1  and  C_3
REMARK    2  A    between atoms: C_3  and  C_25
REMARK    3  A    between atoms: C_6  and  C_12
REMARK    4  A    between atoms: C_11  and  C_14
REMARK    5  A    between atoms: C_19  and  O_23
REMARK    6  A    between atoms: C_26  and  C_28
REMARK    7  A    between atoms: C_27  and  C_31
REMARK    8  A    between atoms: C_29  and  C_31
REMARK    9  A    between atoms: C_29  and  C_42
REMARK   10  A    between atoms: C_33  and  O_43
REMARK   11  A    between atoms: C_35  and  O_45
REMARK   12  A    between atoms: C_37  and  C_41
REMARK   13  A    between atoms: O_45  and  C_47
REMARK                            x       y       z     vdW  Elec       q    Type
REMARK                         _______ _______ _______ _____ _____    ______ ____
ROOT
ATOM      1  C   UNL     1      66.588  59.294  62.057  0.00  0.00    +0.000 C 
ENDROOT
BRANCH   1   2
ATOM      2  C   UNL     1      67.299  60.286  62.494  0.00  0.00    +0.000 C 
ATOM      3  C   UNL     1      67.291  61.596  61.767  0.00  0.00    +0.000 C 
ATOM      4  O   UNL     1      69.218  58.770  65.141  0.00  0.00    +0.000 OA
ATOM      5  O   UNL     1      70.878  58.245  66.671  0.00  0.00    +0.000 OA
ATOM      6  C   UNL     1      70.322  60.541  66.168  0.00  0.00    +0.000 C 
ATOM      7  C   UNL     1      69.452  61.055  65.377  0.00  0.00    +0.000 C 
ATOM      8  C   UNL     1      70.213  59.067  66.067  0.00  0.00    +0.000 C 
ATOM      9  C   UNL     1      68.746  60.024  64.765  0.00  0.00    +0.000 C 
ATOM     10  C   UNL     1      68.055  60.147  63.679  0.00  0.00    +0.000 C 
BRANCH   6  12
ATOM     11  C   UNL     1      71.973  61.924  67.641  0.00  0.00    +0.000 C 
ATOM     12  C   UNL     1      71.215  61.289  66.958  0.00  0.00    +0.000 C 
BRANCH  11  14
ATOM     13  O   UNL     1      72.182  63.825  69.063  0.00  0.00    +0.000 OA
ATOM     14  C   UNL     1      72.883  62.691  68.476  0.00  0.00    +0.000 C 
ATOM     15  C   UNL     1      72.595  62.822  69.987  0.00  0.00    +0.000 C 
ATOM     16  C   UNL     1      74.348  62.955  67.980  0.00  0.00    +0.000 C 
ATOM     17  C   UNL     1      73.667  63.264  70.820  0.00  0.00    +0.000 C 
ATOM     18  C   UNL     1      75.105  63.463  69.128  0.00  0.00    +0.000 C 
ATOM     19  C   UNL     1      74.984  63.652  70.518  0.00  0.00    +0.000 C 
ATOM     20  C   UNL     1      71.431  62.117  70.689  0.00  0.00    +0.000 C 
ATOM     21  C   UNL     1      74.894  61.573  67.532  0.00  0.00    +0.000 C 
ATOM     22  C   UNL     1      74.244  63.963  66.815  0.00  0.00    +0.000 C 
BRANCH  19  23
ATOM     23  O   UNL     1      76.030  63.423  71.360  0.00  0.00    +0.000 OA
ATOM     24  H   UNL     1      76.889  63.625  70.948  0.00  0.00    +0.000 HD
ENDBRANCH  19  23
ENDBRANCH  11  14
ENDBRANCH   6  12
ENDBRANCH   1   2
BRANCH   1  25
ATOM     25  C   UNL     1      65.748  58.121  61.539  0.00  0.00    +0.000 C 
ATOM     26  C   UNL     1      65.094  57.203  61.130  0.00  0.00    +0.000 C 
BRANCH  26  28
ATOM     27  C   UNL     1      63.615  55.107  60.190  0.00  0.00    +0.000 C 
ATOM     28  C   UNL     1      64.263  56.030  60.600  0.00  0.00    +0.000 C 
BRANCH  27  29
ATOM     29  C   UNL     1      62.792  53.923  59.666  0.00  0.00    +0.000 C 
BRANCH  29  30
ATOM     30  C   UNL     1      62.095  52.920  59.235  0.00  0.00    +0.000 C 
ATOM     31  C   UNL     1      60.647  52.791  59.600  0.00  0.00    +0.000 C 
BRANCH  30  33
ATOM     32  C   UNL     1      63.244  51.050  57.804  0.00  0.00    +0.000 C 
ATOM     33  C   UNL     1      62.717  51.909  58.459  0.00  0.00    +0.000 C 
BRANCH  32  39
ATOM     34  C   UNL     1      65.285  49.692  57.281  0.00  0.00    +0.000 C 
ATOM     35  C   UNL     1      63.059  49.404  55.966  0.00  0.00    +0.000 C 
ATOM     36  C   UNL     1      65.582  48.433  56.585  0.00  0.00    +0.000 C 
ATOM     37  C   UNL     1      64.955  47.524  55.707  0.00  0.00    +0.000 C 
ATOM     38  C   UNL     1      63.719  48.179  55.530  0.00  0.00    +0.000 C 
ATOM     39  C   UNL     1      63.815  50.105  57.084  0.00  0.00    +0.000 C 
ATOM     40  C   UNL     1      65.555  49.476  58.802  0.00  0.00    +0.000 C 
ATOM     41  C   UNL     1      66.196  50.825  56.737  0.00  0.00    +0.000 C 
ATOM     42  C   UNL     1      62.814  50.355  54.791  0.00  0.00    +0.000 C 
BRANCH  35  43
ATOM     43  O   UNL     1      61.772  49.055  56.427  0.00  0.00    +0.000 OA
ATOM     44  H   UNL     1      61.337  48.784  55.596  0.00  0.00    +0.000 HD
ENDBRANCH  35  43
BRANCH  37  45
ATOM     45  O   UNL     1      65.662  47.048  54.611  0.00  0.00    +0.000 OA
BRANCH  45  47
ATOM     46  O   UNL     1      66.981  45.222  55.265  0.00  0.00    +0.000 OA
ATOM     47  C   UNL     1      65.985  45.745  54.800  0.00  0.00    +0.000 C 
ATOM     48  C   UNL     1      64.941  44.786  54.348  0.00  0.00    +0.000 C 
ENDBRANCH  45  47
ENDBRANCH  37  45
ENDBRANCH  32  39
ENDBRANCH  30  33
ENDBRANCH  29  30
ENDBRANCH  27  29
ENDBRANCH  26  28
ENDBRANCH   1  25
TORSDOF 13
ENDMDL
MODEL 7
REMARK VINA RESULT:      -6.5     16.597     21.929
REMARK  Name = 5289155_Peridinin.pdbqt.pdb
REMARK  13 active torsions:
REMARK  status: ('A' for Active; 'I' for Inactive)
REMARK    1  A    between atoms: C_1  and  C_3
REMARK    2  A    between atoms: C_3  and  C_25
REMARK    3  A    between atoms: C_6  and  C_12
REMARK    4  A    between atoms: C_11  and  C_14
REMARK    5  A    between atoms: C_19  and  O_23
REMARK    6  A    between atoms: C_26  and  C_28
REMARK    7  A    between atoms: C_27  and  C_31
REMARK    8  A    between atoms: C_29  and  C_31
REMARK    9  A    between atoms: C_29  and  C_42
REMARK   10  A    between atoms: C_33  and  O_43
REMARK   11  A    between atoms: C_35  and  O_45
REMARK   12  A    between atoms: C_37  and  C_41
REMARK   13  A    between atoms: O_45  and  C_47
REMARK                            x       y       z     vdW  Elec       q    Type
REMARK                         _______ _______ _______ _____ _____    ______ ____
ROOT
ATOM      1  C   UNL     1      58.193  34.774  64.488  0.00  0.00    +0.000 C 
ENDROOT
BRANCH   1   2
ATOM      2  C   UNL     1      59.332  34.641  65.092  0.00  0.00    +0.000 C 
ATOM      3  C   UNL     1      59.965  33.290  65.216  0.00  0.00    +0.000 C 
ATOM      4  O   UNL     1      59.878  37.927  66.468  0.00  0.00    +0.000 OA
ATOM      5  O   UNL     1      60.543  39.703  67.801  0.00  0.00    +0.000 OA
ATOM      6  C   UNL     1      62.034  37.860  67.337  0.00  0.00    +0.000 C 
ATOM      7  C   UNL     1      61.885  36.797  66.634  0.00  0.00    +0.000 C 
ATOM      8  C   UNL     1      60.774  38.636  67.261  0.00  0.00    +0.000 C 
ATOM      9  C   UNL     1      60.612  36.815  66.069  0.00  0.00    +0.000 C 
ATOM     10  C   UNL     1      59.998  35.777  65.603  0.00  0.00    +0.000 C 
BRANCH   6  12
ATOM     11  C   UNL     1      64.207  38.445  68.658  0.00  0.00    +0.000 C 
ATOM     12  C   UNL     1      63.203  38.179  68.052  0.00  0.00    +0.000 C 
BRANCH  11  14
ATOM     13  O   UNL     1      66.077  39.915  68.794  0.00  0.00    +0.000 OA
ATOM     14  C   UNL     1      65.425  38.756  69.388  0.00  0.00    +0.000 C 
ATOM     15  C   UNL     1      65.551  40.118  70.103  0.00  0.00    +0.000 C 
ATOM     16  C   UNL     1      66.363  37.589  69.856  0.00  0.00    +0.000 C 
ATOM     17  C   UNL     1      66.580  40.247  71.085  0.00  0.00    +0.000 C 
ATOM     18  C   UNL     1      67.317  38.161  70.811  0.00  0.00    +0.000 C 
ATOM     19  C   UNL     1      67.566  39.348  71.525  0.00  0.00    +0.000 C 
ATOM     20  C   UNL     1      64.422  41.151  70.158  0.00  0.00    +0.000 C 
ATOM     21  C   UNL     1      65.435  36.562  70.557  0.00  0.00    +0.000 C 
ATOM     22  C   UNL     1      67.029  37.022  68.584  0.00  0.00    +0.000 C 
BRANCH  19  23
ATOM     23  O   UNL     1      68.017  39.323  72.811  0.00  0.00    +0.000 OA
ATOM     24  H   UNL     1      67.802  38.487  73.263  0.00  0.00    +0.000 HD
ENDBRANCH  19  23
ENDBRANCH  11  14
ENDBRANCH   6  12
ENDBRANCH   1   2
BRANCH   1  25
ATOM     25  C   UNL     1      56.845  34.930  63.775  0.00  0.00    +0.000 C 
ATOM     26  C   UNL     1      55.791  35.059  63.216  0.00  0.00    +0.000 C 
BRANCH  26  28
ATOM     27  C   UNL     1      53.393  35.367  61.945  0.00  0.00    +0.000 C 
ATOM     28  C   UNL     1      54.447  35.230  62.500  0.00  0.00    +0.000 C 
BRANCH  27  29
ATOM     29  C   UNL     1      52.042  35.545  61.240  0.00  0.00    +0.000 C 
BRANCH  29  30
ATOM     30  C   UNL     1      50.900  35.706  60.650  0.00  0.00    +0.000 C 
ATOM     31  C   UNL     1      50.832  35.854  59.160  0.00  0.00    +0.000 C 
BRANCH  30  33
ATOM     32  C   UNL     1      48.706  35.871  62.072  0.00  0.00    +0.000 C 
ATOM     33  C   UNL     1      49.713  35.797  61.420  0.00  0.00    +0.000 C 
BRANCH  32  39
ATOM     34  C   UNL     1      47.621  36.246  64.300  0.00  0.00    +0.000 C 
ATOM     35  C   UNL     1      46.241  35.687  62.167  0.00  0.00    +0.000 C 
ATOM     36  C   UNL     1      46.277  36.580  64.792  0.00  0.00    +0.000 C 
ATOM     37  C   UNL     1      44.948  36.623  64.324  0.00  0.00    +0.000 C 
ATOM     38  C   UNL     1      45.145  36.154  63.008  0.00  0.00    +0.000 C 
ATOM     39  C   UNL     1      47.603  35.948  62.790  0.00  0.00    +0.000 C 
ATOM     40  C   UNL     1      48.550  37.469  64.569  0.00  0.00    +0.000 C 
ATOM     41  C   UNL     1      48.162  34.996  65.045  0.00  0.00    +0.000 C 
ATOM     42  C   UNL     1      46.078  34.207  61.808  0.00  0.00    +0.000 C 
BRANCH  35  43
ATOM     43  O   UNL     1      46.156  36.372  60.936  0.00  0.00    +0.000 OA
ATOM     44  H   UNL     1      46.422  37.274  61.199  0.00  0.00    +0.000 HD
ENDBRANCH  35  43
BRANCH  37  45
ATOM     45  O   UNL     1      43.935  36.095  65.114  0.00  0.00    +0.000 OA
BRANCH  45  47
ATOM     46  O   UNL     1      42.364  37.739  64.540  0.00  0.00    +0.000 OA
ATOM     47  C   UNL     1      42.737  36.596  64.724  0.00  0.00    +0.000 C 
ATOM     48  C   UNL     1      41.692  35.562  64.492  0.00  0.00    +0.000 C 
ENDBRANCH  45  47
ENDBRANCH  37  45
ENDBRANCH  32  39
ENDBRANCH  30  33
ENDBRANCH  29  30
ENDBRANCH  27  29
ENDBRANCH  26  28
ENDBRANCH   1  25
TORSDOF 13
ENDMDL
MODEL 8
REMARK VINA RESULT:      -6.5     10.894     18.259
REMARK  Name = 5289155_Peridinin.pdbqt.pdb
REMARK  13 active torsions:
REMARK  status: ('A' for Active; 'I' for Inactive)
REMARK    1  A    between atoms: C_1  and  C_3
REMARK    2  A    between atoms: C_3  and  C_25
REMARK    3  A    between atoms: C_6  and  C_12
REMARK    4  A    between atoms: C_11  and  C_14
REMARK    5  A    between atoms: C_19  and  O_23
REMARK    6  A    between atoms: C_26  and  C_28
REMARK    7  A    between atoms: C_27  and  C_31
REMARK    8  A    between atoms: C_29  and  C_31
REMARK    9  A    between atoms: C_29  and  C_42
REMARK   10  A    between atoms: C_33  and  O_43
REMARK   11  A    between atoms: C_35  and  O_45
REMARK   12  A    between atoms: C_37  and  C_41
REMARK   13  A    between atoms: O_45  and  C_47
REMARK                            x       y       z     vdW  Elec       q    Type
REMARK                         _______ _______ _______ _____ _____    ______ ____
ROOT
ATOM      1  C   UNL     1      55.448  51.260  58.542  0.00  0.00    +0.000 C 
ENDROOT
BRANCH   1   2
ATOM      2  C   UNL     1      54.167  51.101  58.422  0.00  0.00    +0.000 C 
ATOM      3  C   UNL     1      53.231  51.795  59.362  0.00  0.00    +0.000 C 
ATOM      4  O   UNL     1      53.928  48.525  55.912  0.00  0.00    +0.000 OA
ATOM      5  O   UNL     1      53.236  46.729  54.621  0.00  0.00    +0.000 OA
ATOM      6  C   UNL     1      51.658  48.368  55.431  0.00  0.00    +0.000 C 
ATOM      7  C   UNL     1      51.814  49.426  56.141  0.00  0.00    +0.000 C 
ATOM      8  C   UNL     1      52.990  47.747  55.242  0.00  0.00    +0.000 C 
ATOM      9  C   UNL     1      53.170  49.573  56.424  0.00  0.00    +0.000 C 
ATOM     10  C   UNL     1      53.648  50.302  57.379  0.00  0.00    +0.000 C 
BRANCH   6  12
ATOM     11  C   UNL     1      49.351  47.518  54.559  0.00  0.00    +0.000 C 
ATOM     12  C   UNL     1      50.415  47.909  54.956  0.00  0.00    +0.000 C 
BRANCH  11  14
ATOM     13  O   UNL     1      47.912  47.328  52.669  0.00  0.00    +0.000 OA
ATOM     14  C   UNL     1      48.059  47.043  54.090  0.00  0.00    +0.000 C 
ATOM     15  C   UNL     1      48.006  45.946  53.005  0.00  0.00    +0.000 C 
ATOM     16  C   UNL     1      46.787  47.258  54.982  0.00  0.00    +0.000 C 
ATOM     17  C   UNL     1      46.765  45.262  52.828  0.00  0.00    +0.000 C 
ATOM     18  C   UNL     1      45.722  46.423  54.419  0.00  0.00    +0.000 C 
ATOM     19  C   UNL     1      45.517  45.419  53.454  0.00  0.00    +0.000 C 
ATOM     20  C   UNL     1      49.251  45.260  52.436  0.00  0.00    +0.000 C 
ATOM     21  C   UNL     1      47.181  46.763  56.399  0.00  0.00    +0.000 C 
ATOM     22  C   UNL     1      46.472  48.769  54.944  0.00  0.00    +0.000 C 
BRANCH  19  23
ATOM     23  O   UNL     1      44.672  44.375  53.683  0.00  0.00    +0.000 OA
ATOM     24  H   UNL     1      44.686  43.721  52.961  0.00  0.00    +0.000 HD
ENDBRANCH  19  23
ENDBRANCH  11  14
ENDBRANCH   6  12
ENDBRANCH   1   2
BRANCH   1  25
ATOM     25  C   UNL     1      56.963  51.447  58.683  0.00  0.00    +0.000 C 
ATOM     26  C   UNL     1      58.148  51.592  58.799  0.00  0.00    +0.000 C 
BRANCH  26  28
ATOM     27  C   UNL     1      60.846  51.914  59.079  0.00  0.00    +0.000 C 
ATOM     28  C   UNL     1      59.661  51.776  58.955  0.00  0.00    +0.000 C 
BRANCH  27  29
ATOM     29  C   UNL     1      62.361  52.085  59.242  0.00  0.00    +0.000 C 
BRANCH  29  30
ATOM     30  C   UNL     1      63.640  52.235  59.389  0.00  0.00    +0.000 C 
ATOM     31  C   UNL     1      64.559  51.057  59.274  0.00  0.00    +0.000 C 
BRANCH  30  33
ATOM     32  C   UNL     1      64.616  54.592  59.987  0.00  0.00    +0.000 C 
ATOM     33  C   UNL     1      64.169  53.510  59.714  0.00  0.00    +0.000 C 
BRANCH  32  39
ATOM     34  C   UNL     1      64.204  56.952  60.726  0.00  0.00    +0.000 C 
ATOM     35  C   UNL     1      66.587  56.077  60.157  0.00  0.00    +0.000 C 
ATOM     36  C   UNL     1      65.001  58.050  61.290  0.00  0.00    +0.000 C 
ATOM     37  C   UNL     1      66.353  58.405  61.470  0.00  0.00    +0.000 C 
ATOM     38  C   UNL     1      66.973  57.300  60.851  0.00  0.00    +0.000 C 
ATOM     39  C   UNL     1      65.101  55.780  60.287  0.00  0.00    +0.000 C 
ATOM     40  C   UNL     1      63.220  56.455  61.829  0.00  0.00    +0.000 C 
ATOM     41  C   UNL     1      63.407  57.455  59.493  0.00  0.00    +0.000 C 
ATOM     42  C   UNL     1      67.011  56.113  58.685  0.00  0.00    +0.000 C 
BRANCH  35  43
ATOM     43  O   UNL     1      67.322  55.014  60.722  0.00  0.00    +0.000 OA
ATOM     44  H   UNL     1      68.238  55.292  60.535  0.00  0.00    +0.000 HD
ENDBRANCH  35  43
BRANCH  37  45
ATOM     45  O   UNL     1      66.758  59.699  61.168  0.00  0.00    +0.000 OA
BRANCH  45  47
ATOM     46  O   UNL     1      68.779  60.453  62.089  0.00  0.00    +0.000 OA
ATOM     47  C   UNL     1      67.600  60.154  62.128  0.00  0.00    +0.000 C 
ATOM     48  C   UNL     1      66.972  60.304  63.469  0.00  0.00    +0.000 C 
ENDBRANCH  45  47
ENDBRANCH  37  45
ENDBRANCH  32  39
ENDBRANCH  30  33
ENDBRANCH  29  30
ENDBRANCH  27  29
ENDBRANCH  26  28
ENDBRANCH   1  25
TORSDOF 13
ENDMDL
MODEL 9
REMARK VINA RESULT:      -6.5     11.360     17.145
REMARK  Name = 5289155_Peridinin.pdbqt.pdb
REMARK  13 active torsions:
REMARK  status: ('A' for Active; 'I' for Inactive)
REMARK    1  A    between atoms: C_1  and  C_3
REMARK    2  A    between atoms: C_3  and  C_25
REMARK    3  A    between atoms: C_6  and  C_12
REMARK    4  A    between atoms: C_11  and  C_14
REMARK    5  A    between atoms: C_19  and  O_23
REMARK    6  A    between atoms: C_26  and  C_28
REMARK    7  A    between atoms: C_27  and  C_31
REMARK    8  A    between atoms: C_29  and  C_31
REMARK    9  A    between atoms: C_29  and  C_42
REMARK   10  A    between atoms: C_33  and  O_43
REMARK   11  A    between atoms: C_35  and  O_45
REMARK   12  A    between atoms: C_37  and  C_41
REMARK   13  A    between atoms: O_45  and  C_47
REMARK                            x       y       z     vdW  Elec       q    Type
REMARK                         _______ _______ _______ _____ _____    ______ ____
ROOT
ATOM      1  C   UNL     1      66.354  63.431  62.745  0.00  0.00    +0.000 C 
ENDROOT
BRANCH   1   2
ATOM      2  C   UNL     1      65.841  64.620  62.803  0.00  0.00    +0.000 C 
ATOM      3  C   UNL     1      65.286  65.261  61.568  0.00  0.00    +0.000 C 
ATOM      4  O   UNL     1      66.634  65.655  66.163  0.00  0.00    +0.000 OA
ATOM      5  O   UNL     1      67.147  66.902  68.048  0.00  0.00    +0.000 OA
ATOM      6  C   UNL     1      65.509  67.671  66.448  0.00  0.00    +0.000 C 
ATOM      7  C   UNL     1      65.070  67.152  65.360  0.00  0.00    +0.000 C 
ATOM      8  C   UNL     1      66.516  66.745  67.019  0.00  0.00    +0.000 C 
ATOM      9  C   UNL     1      65.698  65.924  65.169  0.00  0.00    +0.000 C 
ATOM     10  C   UNL     1      65.768  65.300  64.039  0.00  0.00    +0.000 C 
BRANCH   6  12
ATOM     11  C   UNL     1      64.725  69.974  67.389  0.00  0.00    +0.000 C 
ATOM     12  C   UNL     1      65.090  68.913  66.959  0.00  0.00    +0.000 C 
BRANCH  11  14
ATOM     13  O   UNL     1      63.133  71.729  67.131  0.00  0.00    +0.000 OA
ATOM     14  C   UNL     1      64.279  71.261  67.899  0.00  0.00    +0.000 C 
ATOM     15  C   UNL     1      62.858  71.390  68.488  0.00  0.00    +0.000 C 
ATOM     16  C   UNL     1      65.342  72.343  68.299  0.00  0.00    +0.000 C 
ATOM     17  C   UNL     1      62.584  72.540  69.287  0.00  0.00    +0.000 C 
ATOM     18  C   UNL     1      64.635  73.382  69.053  0.00  0.00    +0.000 C 
ATOM     19  C   UNL     1      63.380  73.646  69.634  0.00  0.00    +0.000 C 
ATOM     20  C   UNL     1      61.897  70.207  68.641  0.00  0.00    +0.000 C 
ATOM     21  C   UNL     1      66.366  71.609  69.206  0.00  0.00    +0.000 C 
ATOM     22  C   UNL     1      65.969  72.853  66.983  0.00  0.00    +0.000 C 
BRANCH  19  23
ATOM     23  O   UNL     1      63.272  74.283  70.833  0.00  0.00    +0.000 OA
ATOM     24  H   UNL     1      64.131  74.601  71.163  0.00  0.00    +0.000 HD
ENDBRANCH  19  23
ENDBRANCH  11  14
ENDBRANCH   6  12
ENDBRANCH   1   2
BRANCH   1  25
ATOM     25  C   UNL     1      66.961  62.025  62.677  0.00  0.00    +0.000 C 
ATOM     26  C   UNL     1      67.435  60.924  62.630  0.00  0.00    +0.000 C 
BRANCH  26  28
ATOM     27  C   UNL     1      68.513  58.416  62.532  0.00  0.00    +0.000 C 
ATOM     28  C   UNL     1      68.037  59.516  62.576  0.00  0.00    +0.000 C 
BRANCH  27  29
ATOM     29  C   UNL     1      69.126  57.012  62.469  0.00  0.00    +0.000 C 
BRANCH  29  30
ATOM     30  C   UNL     1      69.650  55.828  62.425  0.00  0.00    +0.000 C 
ATOM     31  C   UNL     1      69.485  54.972  61.205  0.00  0.00    +0.000 C 
BRANCH  30  33
ATOM     32  C   UNL     1      70.920  54.881  64.512  0.00  0.00    +0.000 C 
ATOM     33  C   UNL     1      70.336  55.316  63.555  0.00  0.00    +0.000 C 
BRANCH  32  39
ATOM     34  C   UNL     1      72.089  55.320  66.685  0.00  0.00    +0.000 C 
ATOM     35  C   UNL     1      71.876  52.927  65.688  0.00  0.00    +0.000 C 
ATOM     36  C   UNL     1      72.486  54.536  67.863  0.00  0.00    +0.000 C 
ATOM     37  C   UNL     1      72.622  53.188  68.252  0.00  0.00    +0.000 C 
ATOM     38  C   UNL     1      72.267  52.554  67.043  0.00  0.00    +0.000 C 
ATOM     39  C   UNL     1      71.564  54.409  65.561  0.00  0.00    +0.000 C 
ATOM     40  C   UNL     1      70.957  56.301  67.119  0.00  0.00    +0.000 C 
ATOM     41  C   UNL     1      73.306  56.119  66.147  0.00  0.00    +0.000 C 
ATOM     42  C   UNL     1      72.932  52.499  64.665  0.00  0.00    +0.000 C 
BRANCH  35  43
ATOM     43  O   UNL     1      70.724  52.181  65.357  0.00  0.00    +0.000 OA
ATOM     44  H   UNL     1      71.059  51.268  65.429  0.00  0.00    +0.000 HD
ENDBRANCH  35  43
BRANCH  37  45
ATOM     45  O   UNL     1      73.761  52.796  68.944  0.00  0.00    +0.000 OA
BRANCH  45  47
ATOM     46  O   UNL     1      73.209  50.703  69.849  0.00  0.00    +0.000 OA
ATOM     47  C   UNL     1      73.431  51.898  69.905  0.00  0.00    +0.000 C 
ATOM     48  C   UNL     1      73.309  52.483  71.268  0.00  0.00    +0.000 C 
ENDBRANCH  45  47
ENDBRANCH  37  45
ENDBRANCH  32  39
ENDBRANCH  30  33
ENDBRANCH  29  30
ENDBRANCH  27  29
ENDBRANCH  26  28
ENDBRANCH   1  25
TORSDOF 13
ENDMDL
