MODEL 1
REMARK VINA RESULT:      -5.9      0.000      0.000
REMARK  Name = 5318517_Andrographolide.pdbqt.pdb
REMARK  6 active torsions:
REMARK  status: ('A' for Active; 'I' for Inactive)
REMARK    1  A    between atoms: C_3  and  C_16
REMARK    2  A    between atoms: C_4  and  C_19
REMARK    3  A    between atoms: C_6  and  O_14
REMARK    4  A    between atoms: C_16  and  O_17
REMARK    5  A    between atoms: C_22  and  C_23
REMARK    6  A    between atoms: C_24  and  O_27
REMARK                            x       y       z     vdW  Elec       q    Type
REMARK                         _______ _______ _______ _____ _____    ______ ____
ROOT
ATOM      1  C   UNL     1      49.721  35.660  62.710  0.00  0.00    +0.000 C 
ATOM      2  C   UNL     1      49.256  36.468  63.959  0.00  0.00    +0.000 C 
ATOM      3  C   UNL     1      47.818  36.994  64.117  0.00  0.00    +0.000 C 
ATOM      4  C   UNL     1      51.219  35.779  62.312  0.00  0.00    +0.000 C 
ATOM      5  C   UNL     1      48.877  36.145  61.622  0.00  0.00    +0.000 C 
ATOM      6  C   UNL     1      46.999  37.226  62.812  0.00  0.00    +0.000 C 
ATOM      7  C   UNL     1      50.295  36.709  64.902  0.00  0.00    +0.000 C 
ATOM      8  C   UNL     1      47.581  36.882  61.579  0.00  0.00    +0.000 C 
ATOM      9  C   UNL     1      49.428  34.156  63.000  0.00  0.00    +0.000 C 
ATOM     10  C   UNL     1      51.740  36.486  64.586  0.00  0.00    +0.000 C 
ATOM     11  C   UNL     1      52.235  36.040  63.343  0.00  0.00    +0.000 C 
ATOM     12  C   UNL     1      47.894  38.396  64.822  0.00  0.00    +0.000 C 
ATOM     13  C   UNL     1      53.549  36.116  63.130  0.00  0.00    +0.000 C 
ENDROOT
BRANCH   6  14
ATOM     14  O   UNL     1      45.659  37.569  62.868  0.00  0.00    +0.000 OA
ATOM     15  H   UNL     1      45.239  37.562  61.990  0.00  0.00    +0.000 HD
ENDBRANCH   6  14
BRANCH   4  16
ATOM     16  C   UNL     1      51.634  35.507  60.964  0.00  0.00    +0.000 C 
ATOM     17  C   UNL     1      52.084  35.211  59.531  0.00  0.00    +0.000 C 
BRANCH  17  20
ATOM     18  O   UNL     1      53.208  33.691  56.512  0.00  0.00    +0.000 OA
ATOM     19  O   UNL     1      53.354  32.683  58.610  0.00  0.00    +0.000 OA
ATOM     20  C   UNL     1      52.461  34.952  58.319  0.00  0.00    +0.000 C 
ATOM     21  C   UNL     1      52.305  35.782  57.151  0.00  0.00    +0.000 C 
ATOM     22  C   UNL     1      53.059  33.625  57.895  0.00  0.00    +0.000 C 
ATOM     23  C   UNL     1      52.767  34.895  56.177  0.00  0.00    +0.000 C 
BRANCH  21  24
ATOM     24  O   UNL     1      51.203  36.577  57.013  0.00  0.00    +0.000 OA
ATOM     25  H   UNL     1      50.645  36.295  56.267  0.00  0.00    +0.000 HD
ENDBRANCH  21  24
ENDBRANCH  17  20
ENDBRANCH   4  16
BRANCH   3  26
ATOM     26  C   UNL     1      47.076  36.026  64.975  0.00  0.00    +0.000 C 
BRANCH  26  27
ATOM     27  O   UNL     1      46.412  35.151  65.735  0.00  0.00    +0.000 OA
ATOM     28  H   UNL     1      45.707  35.598  66.238  0.00  0.00    +0.000 HD
ENDBRANCH  26  27
ENDBRANCH   3  26
TORSDOF 6
ENDMDL
MODEL 2
REMARK VINA RESULT:      -5.9     34.439     36.379
REMARK  Name = 5318517_Andrographolide.pdbqt.pdb
REMARK  6 active torsions:
REMARK  status: ('A' for Active; 'I' for Inactive)
REMARK    1  A    between atoms: C_3  and  C_16
REMARK    2  A    between atoms: C_4  and  C_19
REMARK    3  A    between atoms: C_6  and  O_14
REMARK    4  A    between atoms: C_16  and  O_17
REMARK    5  A    between atoms: C_22  and  C_23
REMARK    6  A    between atoms: C_24  and  O_27
REMARK                            x       y       z     vdW  Elec       q    Type
REMARK                         _______ _______ _______ _____ _____    ______ ____
ROOT
ATOM      1  C   UNL     1      64.806  69.153  67.036  0.00  0.00    +0.000 C 
ATOM      2  C   UNL     1      65.967  70.097  67.471  0.00  0.00    +0.000 C 
ATOM      3  C   UNL     1      67.446  69.674  67.411  0.00  0.00    +0.000 C 
ATOM      4  C   UNL     1      63.434  69.354  67.741  0.00  0.00    +0.000 C 
ATOM      5  C   UNL     1      65.307  67.807  67.298  0.00  0.00    +0.000 C 
ATOM      6  C   UNL     1      67.750  68.146  67.472  0.00  0.00    +0.000 C 
ATOM      7  C   UNL     1      65.524  71.356  67.968  0.00  0.00    +0.000 C 
ATOM      8  C   UNL     1      66.672  67.244  67.508  0.00  0.00    +0.000 C 
ATOM      9  C   UNL     1      64.586  69.368  65.508  0.00  0.00    +0.000 C 
ATOM     10  C   UNL     1      64.098  71.625  68.328  0.00  0.00    +0.000 C 
ATOM     11  C   UNL     1      63.051  70.684  68.239  0.00  0.00    +0.000 C 
ATOM     12  C   UNL     1      68.176  70.299  68.654  0.00  0.00    +0.000 C 
ATOM     13  C   UNL     1      61.887  70.987  68.815  0.00  0.00    +0.000 C 
ENDROOT
BRANCH   6  14
ATOM     14  O   UNL     1      69.038  67.673  67.291  0.00  0.00    +0.000 OA
ATOM     15  H   UNL     1      69.667  68.060  67.926  0.00  0.00    +0.000 HD
ENDBRANCH   6  14
BRANCH   4  16
ATOM     16  C   UNL     1      62.484  68.279  67.794  0.00  0.00    +0.000 C 
ATOM     17  C   UNL     1      61.463  67.139  67.856  0.00  0.00    +0.000 C 
BRANCH  17  20
ATOM     18  O   UNL     1      59.059  64.617  67.117  0.00  0.00    +0.000 OA
ATOM     19  O   UNL     1      59.714  66.273  65.610  0.00  0.00    +0.000 OA
ATOM     20  C   UNL     1      60.595  66.178  67.900  0.00  0.00    +0.000 C 
ATOM     21  C   UNL     1      60.321  65.289  69.001  0.00  0.00    +0.000 C 
ATOM     22  C   UNL     1      59.764  65.747  66.708  0.00  0.00    +0.000 C 
ATOM     23  C   UNL     1      59.421  64.423  68.376  0.00  0.00    +0.000 C 
BRANCH  21  24
ATOM     24  O   UNL     1      61.329  64.890  69.832  0.00  0.00    +0.000 OA
ATOM     25  H   UNL     1      62.196  64.921  69.389  0.00  0.00    +0.000 HD
ENDBRANCH  21  24
ENDBRANCH  17  20
ENDBRANCH   4  16
BRANCH   3  26
ATOM     26  C   UNL     1      68.020  70.220  66.149  0.00  0.00    +0.000 C 
BRANCH  26  27
ATOM     27  O   UNL     1      68.539  70.720  65.023  0.00  0.00    +0.000 OA
ATOM     28  H   UNL     1      68.287  70.173  64.257  0.00  0.00    +0.000 HD
ENDBRANCH  26  27
ENDBRANCH   3  26
TORSDOF 6
ENDMDL
MODEL 3
REMARK VINA RESULT:      -5.8      2.407      3.904
REMARK  Name = 5318517_Andrographolide.pdbqt.pdb
REMARK  6 active torsions:
REMARK  status: ('A' for Active; 'I' for Inactive)
REMARK    1  A    between atoms: C_3  and  C_16
REMARK    2  A    between atoms: C_4  and  C_19
REMARK    3  A    between atoms: C_6  and  O_14
REMARK    4  A    between atoms: C_16  and  O_17
REMARK    5  A    between atoms: C_22  and  C_23
REMARK    6  A    between atoms: C_24  and  O_27
REMARK                            x       y       z     vdW  Elec       q    Type
REMARK                         _______ _______ _______ _____ _____    ______ ____
ROOT
ATOM      1  C   UNL     1      47.031  36.267  62.597  0.00  0.00    +0.000 C 
ATOM      2  C   UNL     1      46.173  35.981  63.866  0.00  0.00    +0.000 C 
ATOM      3  C   UNL     1      45.918  37.044  64.949  0.00  0.00    +0.000 C 
ATOM      4  C   UNL     1      47.784  35.059  61.969  0.00  0.00    +0.000 C 
ATOM      5  C   UNL     1      47.989  37.284  63.020  0.00  0.00    +0.000 C 
ATOM      6  C   UNL     1      46.963  38.193  65.078  0.00  0.00    +0.000 C 
ATOM      7  C   UNL     1      45.697  34.642  63.943  0.00  0.00    +0.000 C 
ATOM      8  C   UNL     1      48.033  38.238  64.165  0.00  0.00    +0.000 C 
ATOM      9  C   UNL     1      46.070  36.838  61.510  0.00  0.00    +0.000 C 
ATOM     10  C   UNL     1      46.220  33.547  63.070  0.00  0.00    +0.000 C 
ATOM     11  C   UNL     1      47.235  33.701  62.102  0.00  0.00    +0.000 C 
ATOM     12  C   UNL     1      45.916  36.319  66.343  0.00  0.00    +0.000 C 
ATOM     13  C   UNL     1      47.764  32.599  61.570  0.00  0.00    +0.000 C 
ENDROOT
BRANCH   6  14
ATOM     14  O   UNL     1      46.743  39.259  65.933  0.00  0.00    +0.000 OA
ATOM     15  H   UNL     1      46.301  40.004  65.488  0.00  0.00    +0.000 HD
ENDBRANCH   6  14
BRANCH   4  16
ATOM     16  C   UNL     1      48.944  35.275  61.152  0.00  0.00    +0.000 C 
ATOM     17  C   UNL     1      50.182  35.494  60.278  0.00  0.00    +0.000 C 
BRANCH  17  20
ATOM     18  O   UNL     1      52.583  36.675  57.927  0.00  0.00    +0.000 OA
ATOM     19  O   UNL     1      50.353  37.358  57.965  0.00  0.00    +0.000 OA
ATOM     20  C   UNL     1      51.225  35.679  59.530  0.00  0.00    +0.000 C 
ATOM     21  C   UNL     1      52.529  35.084  59.676  0.00  0.00    +0.000 C 
ATOM     22  C   UNL     1      51.271  36.680  58.393  0.00  0.00    +0.000 C 
ATOM     23  C   UNL     1      53.212  35.786  58.680  0.00  0.00    +0.000 C 
BRANCH  21  24
ATOM     24  O   UNL     1      53.031  34.818  60.918  0.00  0.00    +0.000 OA
ATOM     25  H   UNL     1      53.655  34.071  60.904  0.00  0.00    +0.000 HD
ENDBRANCH  21  24
ENDBRANCH  17  20
ENDBRANCH   4  16
BRANCH   3  26
ATOM     26  C   UNL     1      44.582  37.649  64.682  0.00  0.00    +0.000 C 
BRANCH  26  27
ATOM     27  O   UNL     1      43.390  38.201  64.436  0.00  0.00    +0.000 OA
ATOM     28  H   UNL     1      42.779  37.543  64.058  0.00  0.00    +0.000 HD
ENDBRANCH  26  27
ENDBRANCH   3  26
TORSDOF 6
ENDMDL
MODEL 4
REMARK VINA RESULT:      -5.8      4.053      6.965
REMARK  Name = 5318517_Andrographolide.pdbqt.pdb
REMARK  6 active torsions:
REMARK  status: ('A' for Active; 'I' for Inactive)
REMARK    1  A    between atoms: C_3  and  C_16
REMARK    2  A    between atoms: C_4  and  C_19
REMARK    3  A    between atoms: C_6  and  O_14
REMARK    4  A    between atoms: C_16  and  O_17
REMARK    5  A    between atoms: C_22  and  C_23
REMARK    6  A    between atoms: C_24  and  O_27
REMARK                            x       y       z     vdW  Elec       q    Type
REMARK                         _______ _______ _______ _____ _____    ______ ____
ROOT
ATOM      1  C   UNL     1      52.549  33.280  57.271  0.00  0.00    +0.000 C 
ATOM      2  C   UNL     1      52.488  33.598  58.795  0.00  0.00    +0.000 C 
ATOM      3  C   UNL     1      52.110  34.989  59.337  0.00  0.00    +0.000 C 
ATOM      4  C   UNL     1      53.548  32.176  56.822  0.00  0.00    +0.000 C 
ATOM      5  C   UNL     1      52.897  34.552  56.643  0.00  0.00    +0.000 C 
ATOM      6  C   UNL     1      52.352  36.207  58.396  0.00  0.00    +0.000 C 
ATOM      7  C   UNL     1      52.858  32.500  59.622  0.00  0.00    +0.000 C 
ATOM      8  C   UNL     1      52.830  35.971  57.094  0.00  0.00    +0.000 C 
ATOM      9  C   UNL     1      51.121  32.828  56.837  0.00  0.00    +0.000 C 
ATOM     10  C   UNL     1      53.533  31.278  59.088  0.00  0.00    +0.000 C 
ATOM     11  C   UNL     1      53.891  31.079  57.738  0.00  0.00    +0.000 C 
ATOM     12  C   UNL     1      52.985  35.261  60.613  0.00  0.00    +0.000 C 
ATOM     13  C   UNL     1      54.695  30.054  57.450  0.00  0.00    +0.000 C 
ENDROOT
BRANCH   6  14
ATOM     14  O   UNL     1      51.919  37.473  58.751  0.00  0.00    +0.000 OA
ATOM     15  H   UNL     1      52.268  38.162  58.158  0.00  0.00    +0.000 HD
ENDBRANCH   6  14
BRANCH   4  16
ATOM     16  C   UNL     1      54.039  32.150  55.473  0.00  0.00    +0.000 C 
ATOM     17  C   UNL     1      54.556  32.113  54.032  0.00  0.00    +0.000 C 
BRANCH  17  20
ATOM     18  O   UNL     1      55.175  31.375  50.603  0.00  0.00    +0.000 OA
ATOM     19  O   UNL     1      54.024  29.956  52.053  0.00  0.00    +0.000 OA
ATOM     20  C   UNL     1      54.985  32.085  52.809  0.00  0.00    +0.000 C 
ATOM     21  C   UNL     1      55.752  33.094  52.122  0.00  0.00    +0.000 C 
ATOM     22  C   UNL     1      54.642  30.982  51.828  0.00  0.00    +0.000 C 
ATOM     23  C   UNL     1      55.758  32.541  50.840  0.00  0.00    +0.000 C 
BRANCH  21  24
ATOM     24  O   UNL     1      55.549  34.417  52.393  0.00  0.00    +0.000 OA
ATOM     25  H   UNL     1      56.270  34.791  52.930  0.00  0.00    +0.000 HD
ENDBRANCH  21  24
ENDBRANCH  17  20
ENDBRANCH   4  16
BRANCH   3  26
ATOM     26  C   UNL     1      50.665  34.954  59.702  0.00  0.00    +0.000 C 
BRANCH  26  27
ATOM     27  O   UNL     1      49.367  34.923  60.017  0.00  0.00    +0.000 OA
ATOM     28  H   UNL     1      48.851  34.502  59.305  0.00  0.00    +0.000 HD
ENDBRANCH  26  27
ENDBRANCH   3  26
TORSDOF 6
ENDMDL
MODEL 5
REMARK VINA RESULT:      -5.8     26.864     29.384
REMARK  Name = 5318517_Andrographolide.pdbqt.pdb
REMARK  6 active torsions:
REMARK  status: ('A' for Active; 'I' for Inactive)
REMARK    1  A    between atoms: C_3  and  C_16
REMARK    2  A    between atoms: C_4  and  C_19
REMARK    3  A    between atoms: C_6  and  O_14
REMARK    4  A    between atoms: C_16  and  O_17
REMARK    5  A    between atoms: C_22  and  C_23
REMARK    6  A    between atoms: C_24  and  O_27
REMARK                            x       y       z     vdW  Elec       q    Type
REMARK                         _______ _______ _______ _____ _____    ______ ____
ROOT
ATOM      1  C   UNL     1      70.138  56.021  63.311  0.00  0.00    +0.000 C 
ATOM      2  C   UNL     1      70.114  54.463  63.262  0.00  0.00    +0.000 C 
ATOM      3  C   UNL     1      69.652  53.681  62.020  0.00  0.00    +0.000 C 
ATOM      4  C   UNL     1      69.938  56.684  64.704  0.00  0.00    +0.000 C 
ATOM      5  C   UNL     1      69.072  56.435  62.404  0.00  0.00    +0.000 C 
ATOM      6  C   UNL     1      68.679  54.408  61.044  0.00  0.00    +0.000 C 
ATOM      7  C   UNL     1      70.512  53.847  64.483  0.00  0.00    +0.000 C 
ATOM      8  C   UNL     1      68.334  55.746  61.307  0.00  0.00    +0.000 C 
ATOM      9  C   UNL     1      71.527  56.476  62.768  0.00  0.00    +0.000 C 
ATOM     10  C   UNL     1      70.636  54.604  65.766  0.00  0.00    +0.000 C 
ATOM     11  C   UNL     1      70.364  55.979  65.922  0.00  0.00    +0.000 C 
ATOM     12  C   UNL     1      68.876  52.407  62.516  0.00  0.00    +0.000 C 
ATOM     13  C   UNL     1      70.286  56.465  67.162  0.00  0.00    +0.000 C 
ENDROOT
BRANCH   6  14
ATOM     14  O   UNL     1      68.320  53.829  59.839  0.00  0.00    +0.000 OA
ATOM     15  H   UNL     1      67.881  52.969  59.959  0.00  0.00    +0.000 HD
ENDBRANCH   6  14
BRANCH   4  16
ATOM     16  C   UNL     1      69.457  58.033  64.799  0.00  0.00    +0.000 C 
ATOM     17  C   UNL     1      68.935  59.469  64.907  0.00  0.00    +0.000 C 
BRANCH  17  20
ATOM     18  O   UNL     1      67.114  62.518  64.636  0.00  0.00    +0.000 OA
ATOM     19  O   UNL     1      66.831  60.701  63.202  0.00  0.00    +0.000 OA
ATOM     20  C   UNL     1      68.495  60.684  65.007  0.00  0.00    +0.000 C 
ATOM     21  C   UNL     1      68.869  61.679  65.980  0.00  0.00    +0.000 C 
ATOM     22  C   UNL     1      67.383  61.244  64.142  0.00  0.00    +0.000 C 
ATOM     23  C   UNL     1      67.958  62.682  65.644  0.00  0.00    +0.000 C 
BRANCH  21  24
ATOM     24  O   UNL     1      69.178  61.310  67.259  0.00  0.00    +0.000 OA
ATOM     25  H   UNL     1      68.379  61.140  67.789  0.00  0.00    +0.000 HD
ENDBRANCH  21  24
ENDBRANCH  17  20
ENDBRANCH   4  16
BRANCH   3  26
ATOM     26  C   UNL     1      70.870  53.279  61.261  0.00  0.00    +0.000 C 
BRANCH  26  27
ATOM     27  O   UNL     1      71.966  52.930  60.580  0.00  0.00    +0.000 OA
ATOM     28  H   UNL     1      72.367  53.710  60.154  0.00  0.00    +0.000 HD
ENDBRANCH  26  27
ENDBRANCH   3  26
TORSDOF 6
ENDMDL
MODEL 6
REMARK VINA RESULT:      -5.8     26.166     29.809
REMARK  Name = 5318517_Andrographolide.pdbqt.pdb
REMARK  6 active torsions:
REMARK  status: ('A' for Active; 'I' for Inactive)
REMARK    1  A    between atoms: C_3  and  C_16
REMARK    2  A    between atoms: C_4  and  C_19
REMARK    3  A    between atoms: C_6  and  O_14
REMARK    4  A    between atoms: C_16  and  O_17
REMARK    5  A    between atoms: C_22  and  C_23
REMARK    6  A    between atoms: C_24  and  O_27
REMARK                            x       y       z     vdW  Elec       q    Type
REMARK                         _______ _______ _______ _____ _____    ______ ____
ROOT
ATOM      1  C   UNL     1      52.579  58.111  81.953  0.00  0.00    +0.000 C 
ATOM      2  C   UNL     1      53.983  57.996  82.621  0.00  0.00    +0.000 C 
ATOM      3  C   UNL     1      55.168  58.891  82.217  0.00  0.00    +0.000 C 
ATOM      4  C   UNL     1      51.718  56.817  81.898  0.00  0.00    +0.000 C 
ATOM      5  C   UNL     1      52.852  58.587  80.600  0.00  0.00    +0.000 C 
ATOM      6  C   UNL     1      55.144  59.496  80.781  0.00  0.00    +0.000 C 
ATOM      7  C   UNL     1      54.068  56.960  83.595  0.00  0.00    +0.000 C 
ATOM      8  C   UNL     1      54.024  59.254  79.965  0.00  0.00    +0.000 C 
ATOM      9  C   UNL     1      51.774  59.178  82.757  0.00  0.00    +0.000 C 
ATOM     10  C   UNL     1      53.026  55.898  83.737  0.00  0.00    +0.000 C 
ATOM     11  C   UNL     1      51.872  55.786  82.934  0.00  0.00    +0.000 C 
ATOM     12  C   UNL     1      56.474  58.018  82.285  0.00  0.00    +0.000 C 
ATOM     13  C   UNL     1      51.160  54.662  83.017  0.00  0.00    +0.000 C 
ENDROOT
BRANCH   6  14
ATOM     14  O   UNL     1      56.100  60.415  80.383  0.00  0.00    +0.000 OA
ATOM     15  H   UNL     1      56.589  60.121  79.594  0.00  0.00    +0.000 HD
ENDBRANCH   6  14
BRANCH   4  16
ATOM     16  C   UNL     1      50.683  56.680  80.912  0.00  0.00    +0.000 C 
ATOM     17  C   UNL     1      49.580  56.544  79.858  0.00  0.00    +0.000 C 
BRANCH  17  20
ATOM     18  O   UNL     1      46.563  56.672  77.969  0.00  0.00    +0.000 OA
ATOM     19  O   UNL     1      46.700  57.181  80.241  0.00  0.00    +0.000 OA
ATOM     20  C   UNL     1      48.654  56.429  78.959  0.00  0.00    +0.000 C 
ATOM     21  C   UNL     1      48.807  56.033  77.582  0.00  0.00    +0.000 C 
ATOM     22  C   UNL     1      47.207  56.816  79.195  0.00  0.00    +0.000 C 
ATOM     23  C   UNL     1      47.502  56.249  77.135  0.00  0.00    +0.000 C 
BRANCH  21  24
ATOM     24  O   UNL     1      49.931  56.378  76.886  0.00  0.00    +0.000 OA
ATOM     25  H   UNL     1      50.375  55.600  76.506  0.00  0.00    +0.000 HD
ENDBRANCH  21  24
ENDBRANCH  17  20
ENDBRANCH   4  16
BRANCH   3  26
ATOM     26  C   UNL     1      55.244  60.009  83.199  0.00  0.00    +0.000 C 
BRANCH  26  27
ATOM     27  O   UNL     1      55.307  61.005  84.088  0.00  0.00    +0.000 OA
ATOM     28  H   UNL     1      54.417  61.225  84.420  0.00  0.00    +0.000 HD
ENDBRANCH  26  27
ENDBRANCH   3  26
TORSDOF 6
ENDMDL
MODEL 7
REMARK VINA RESULT:      -5.7     16.504     19.620
REMARK  Name = 5318517_Andrographolide.pdbqt.pdb
REMARK  6 active torsions:
REMARK  status: ('A' for Active; 'I' for Inactive)
REMARK    1  A    between atoms: C_3  and  C_16
REMARK    2  A    between atoms: C_4  and  C_19
REMARK    3  A    between atoms: C_6  and  O_14
REMARK    4  A    between atoms: C_16  and  O_17
REMARK    5  A    between atoms: C_22  and  C_23
REMARK    6  A    between atoms: C_24  and  O_27
REMARK                            x       y       z     vdW  Elec       q    Type
REMARK                         _______ _______ _______ _____ _____    ______ ____
ROOT
ATOM      1  C   UNL     1      63.670  46.676  54.319  0.00  0.00    +0.000 C 
ATOM      2  C   UNL     1      64.326  45.286  54.054  0.00  0.00    +0.000 C 
ATOM      3  C   UNL     1      63.534  44.091  53.494  0.00  0.00    +0.000 C 
ATOM      4  C   UNL     1      64.286  47.539  55.457  0.00  0.00    +0.000 C 
ATOM      5  C   UNL     1      62.275  46.374  54.621  0.00  0.00    +0.000 C 
ATOM      6  C   UNL     1      61.994  44.083  53.733  0.00  0.00    +0.000 C 
ATOM      7  C   UNL     1      65.699  45.224  54.424  0.00  0.00    +0.000 C 
ATOM      8  C   UNL     1      61.405  45.187  54.377  0.00  0.00    +0.000 C 
ATOM      9  C   UNL     1      63.779  47.494  52.996  0.00  0.00    +0.000 C 
ATOM     10  C   UNL     1      66.358  46.271  55.263  0.00  0.00    +0.000 C 
ATOM     11  C   UNL     1      65.712  47.409  55.789  0.00  0.00    +0.000 C 
ATOM     12  C   UNL     1      64.074  42.789  54.190  0.00  0.00    +0.000 C 
ATOM     13  C   UNL     1      66.359  48.125  56.709  0.00  0.00    +0.000 C 
ENDROOT
BRANCH   6  14
ATOM     14  O   UNL     1      61.192  43.118  53.151  0.00  0.00    +0.000 OA
ATOM     15  H   UNL     1      61.709  42.376  52.791  0.00  0.00    +0.000 HD
ENDBRANCH   6  14
BRANCH   4  16
ATOM     16  C   UNL     1      63.500  48.554  56.100  0.00  0.00    +0.000 C 
ATOM     17  C   UNL     1      62.653  49.629  56.788  0.00  0.00    +0.000 C 
BRANCH  17  20
ATOM     18  O   UNL     1      60.404  52.267  57.605  0.00  0.00    +0.000 OA
ATOM     19  O   UNL     1      61.087  51.764  55.432  0.00  0.00    +0.000 OA
ATOM     20  C   UNL     1      61.940  50.535  57.379  0.00  0.00    +0.000 C 
ATOM     21  C   UNL     1      61.696  50.681  58.792  0.00  0.00    +0.000 C 
ATOM     22  C   UNL     1      61.120  51.570  56.635  0.00  0.00    +0.000 C 
ATOM     23  C   UNL     1      60.763  51.720  58.756  0.00  0.00    +0.000 C 
BRANCH  21  24
ATOM     24  O   UNL     1      61.596  49.578  59.592  0.00  0.00    +0.000 OA
ATOM     25  H   UNL     1      62.424  49.066  59.607  0.00  0.00    +0.000 HD
ENDBRANCH  21  24
ENDBRANCH  17  20
ENDBRANCH   4  16
BRANCH   3  26
ATOM     26  C   UNL     1      63.785  44.032  52.026  0.00  0.00    +0.000 C 
BRANCH  26  27
ATOM     27  O   UNL     1      64.014  43.990  50.710  0.00  0.00    +0.000 OA
ATOM     28  H   UNL     1      63.199  43.766  50.227  0.00  0.00    +0.000 HD
ENDBRANCH  26  27
ENDBRANCH   3  26
TORSDOF 6
ENDMDL
MODEL 8
REMARK VINA RESULT:      -5.7     33.382     35.068
REMARK  Name = 5318517_Andrographolide.pdbqt.pdb
REMARK  6 active torsions:
REMARK  status: ('A' for Active; 'I' for Inactive)
REMARK    1  A    between atoms: C_3  and  C_16
REMARK    2  A    between atoms: C_4  and  C_19
REMARK    3  A    between atoms: C_6  and  O_14
REMARK    4  A    between atoms: C_16  and  O_17
REMARK    5  A    between atoms: C_22  and  C_23
REMARK    6  A    between atoms: C_24  and  O_27
REMARK                            x       y       z     vdW  Elec       q    Type
REMARK                         _______ _______ _______ _____ _____    ______ ____
ROOT
ATOM      1  C   UNL     1      60.663  68.060  67.876  0.00  0.00    +0.000 C 
ATOM      2  C   UNL     1      59.350  67.247  68.091  0.00  0.00    +0.000 C 
ATOM      3  C   UNL     1      58.547  67.303  69.402  0.00  0.00    +0.000 C 
ATOM      4  C   UNL     1      61.714  67.455  66.902  0.00  0.00    +0.000 C 
ATOM      5  C   UNL     1      61.239  68.190  69.211  0.00  0.00    +0.000 C 
ATOM      6  C   UNL     1      59.323  67.697  70.695  0.00  0.00    +0.000 C 
ATOM      7  C   UNL     1      59.003  66.422  66.983  0.00  0.00    +0.000 C 
ATOM      8  C   UNL     1      60.682  68.045  70.587  0.00  0.00    +0.000 C 
ATOM      9  C   UNL     1      60.252  69.457  67.318  0.00  0.00    +0.000 C 
ATOM     10  C   UNL     1      59.952  66.126  65.867  0.00  0.00    +0.000 C 
ATOM     11  C   UNL     1      61.277  66.602  65.787  0.00  0.00    +0.000 C 
ATOM     12  C   UNL     1      57.975  65.865  69.677  0.00  0.00    +0.000 C 
ATOM     13  C   UNL     1      62.078  66.068  64.864  0.00  0.00    +0.000 C 
ENDROOT
BRANCH   6  14
ATOM     14  O   UNL     1      58.654  67.900  71.889  0.00  0.00    +0.000 OA
ATOM     15  H   UNL     1      57.870  68.467  71.781  0.00  0.00    +0.000 HD
ENDBRANCH   6  14
BRANCH   4  16
ATOM     16  C   UNL     1      63.096  67.829  67.007  0.00  0.00    +0.000 C 
ATOM     17  C   UNL     1      64.572  68.220  67.129  0.00  0.00    +0.000 C 
BRANCH  17  20
ATOM     18  O   UNL     1      67.683  69.888  67.604  0.00  0.00    +0.000 OA
ATOM     19  O   UNL     1      65.637  70.986  67.384  0.00  0.00    +0.000 OA
ATOM     20  C   UNL     1      65.823  68.543  67.229  0.00  0.00    +0.000 C 
ATOM     21  C   UNL     1      66.958  67.657  67.297  0.00  0.00    +0.000 C 
ATOM     22  C   UNL     1      66.307  69.968  67.407  0.00  0.00    +0.000 C 
ATOM     23  C   UNL     1      67.964  68.595  67.540  0.00  0.00    +0.000 C 
BRANCH  21  24
ATOM     24  O   UNL     1      66.854  66.452  67.931  0.00  0.00    +0.000 OA
ATOM     25  H   UNL     1      66.114  66.438  68.563  0.00  0.00    +0.000 HD
ENDBRANCH  21  24
ENDBRANCH  17  20
ENDBRANCH   4  16
BRANCH   3  26
ATOM     26  C   UNL     1      57.431  68.272  69.207  0.00  0.00    +0.000 C 
BRANCH  26  27
ATOM     27  O   UNL     1      56.426  69.136  69.042  0.00  0.00    +0.000 OA
ATOM     28  H   UNL     1      55.569  68.700  69.201  0.00  0.00    +0.000 HD
ENDBRANCH  26  27
ENDBRANCH   3  26
TORSDOF 6
ENDMDL
MODEL 9
REMARK VINA RESULT:      -5.6     39.918     41.992
REMARK  Name = 5318517_Andrographolide.pdbqt.pdb
REMARK  6 active torsions:
REMARK  status: ('A' for Active; 'I' for Inactive)
REMARK    1  A    between atoms: C_3  and  C_16
REMARK    2  A    between atoms: C_4  and  C_19
REMARK    3  A    between atoms: C_6  and  O_14
REMARK    4  A    between atoms: C_16  and  O_17
REMARK    5  A    between atoms: C_22  and  C_23
REMARK    6  A    between atoms: C_24  and  O_27
REMARK                            x       y       z     vdW  Elec       q    Type
REMARK                         _______ _______ _______ _____ _____    ______ ____
ROOT
ATOM      1  C   UNL     1      77.795  63.610  77.871  0.00  0.00    +0.000 C 
ATOM      2  C   UNL     1      77.900  63.737  79.421  0.00  0.00    +0.000 C 
ATOM      3  C   UNL     1      77.204  62.755  80.381  0.00  0.00    +0.000 C 
ATOM      4  C   UNL     1      77.903  64.925  77.048  0.00  0.00    +0.000 C 
ATOM      5  C   UNL     1      76.496  62.983  77.639  0.00  0.00    +0.000 C 
ATOM      6  C   UNL     1      75.949  62.004  79.843  0.00  0.00    +0.000 C 
ATOM      7  C   UNL     1      78.655  64.865  79.851  0.00  0.00    +0.000 C 
ATOM      8  C   UNL     1      75.565  62.204  78.505  0.00  0.00    +0.000 C 
ATOM      9  C   UNL     1      78.948  62.669  77.407  0.00  0.00    +0.000 C 
ATOM     10  C   UNL     1      79.038  65.979  78.930  0.00  0.00    +0.000 C 
ATOM     11  C   UNL     1      78.692  66.053  77.565  0.00  0.00    +0.000 C 
ATOM     12  C   UNL     1      76.703  63.575  81.625  0.00  0.00    +0.000 C 
ATOM     13  C   UNL     1      78.895  67.209  76.931  0.00  0.00    +0.000 C 
ENDROOT
BRANCH   6  14
ATOM     14  O   UNL     1      75.345  61.009  80.591  0.00  0.00    +0.000 OA
ATOM     15  H   UNL     1      74.485  61.289  80.951  0.00  0.00    +0.000 HD
ENDBRANCH   6  14
BRANCH   4  16
ATOM     16  C   UNL     1      77.342  65.001  75.728  0.00  0.00    +0.000 C 
ATOM     17  C   UNL     1      76.747  65.070  74.319  0.00  0.00    +0.000 C 
BRANCH  17  20
ATOM     18  O   UNL     1      75.333  64.353  71.130  0.00  0.00    +0.000 OA
ATOM     19  O   UNL     1      76.354  62.756  72.490  0.00  0.00    +0.000 OA
ATOM     20  C   UNL     1      76.235  65.124  73.130  0.00  0.00    +0.000 C 
ATOM     21  C   UNL     1      75.696  66.278  72.454  0.00  0.00    +0.000 C 
ATOM     22  C   UNL     1      76.012  63.903  72.259  0.00  0.00    +0.000 C 
ATOM     23  C   UNL     1      75.189  65.656  71.311  0.00  0.00    +0.000 C 
BRANCH  21  24
ATOM     24  O   UNL     1      75.045  67.249  73.161  0.00  0.00    +0.000 OA
ATOM     25  H   UNL     1      74.489  67.803  72.586  0.00  0.00    +0.000 HD
ENDBRANCH  21  24
ENDBRANCH  17  20
ENDBRANCH   4  16
BRANCH   3  26
ATOM     26  C   UNL     1      78.215  61.745  80.804  0.00  0.00    +0.000 C 
BRANCH  26  27
ATOM     27  O   UNL     1      79.119  60.833  81.172  0.00  0.00    +0.000 OA
ATOM     28  H   UNL     1      78.838  59.941  80.899  0.00  0.00    +0.000 HD
ENDBRANCH  26  27
ENDBRANCH   3  26
TORSDOF 6
ENDMDL
