MODEL 1
REMARK VINA RESULT:      -6.6      0.000      0.000
REMARK  Name = 5326018_Caulerpin.pdbqt.pdb
REMARK  4 active torsions:
REMARK  status: ('A' for Active; 'I' for Inactive)
REMARK    1  A    between atoms: C_11  and  C_26
REMARK    2  A    between atoms: C_12  and  C_30
REMARK    3  A    between atoms: C_26  and  O_27
REMARK    4  A    between atoms: C_30  and  O_31
REMARK                            x       y       z     vdW  Elec       q    Type
REMARK                         _______ _______ _______ _____ _____    ______ ____
ROOT
ATOM      1  N   UNL     1      69.477  61.460  66.639  0.00  0.00    +0.000 N 
ATOM      2  N   UNL     1      71.164  55.169  66.121  0.00  0.00    +0.000 N 
ATOM      3  C   UNL     1      69.359  59.583  65.465  0.00  0.00    +0.000 C 
ATOM      4  C   UNL     1      71.573  57.145  67.038  0.00  0.00    +0.000 C 
ATOM      5  C   UNL     1      70.095  60.242  66.447  0.00  0.00    +0.000 C 
ATOM      6  C   UNL     1      70.939  56.521  65.967  0.00  0.00    +0.000 C 
ATOM      7  C   UNL     1      68.326  60.438  65.012  0.00  0.00    +0.000 A 
ATOM      8  C   UNL     1      72.243  56.166  67.812  0.00  0.00    +0.000 A 
ATOM      9  C   UNL     1      68.425  61.611  65.761  0.00  0.00    +0.000 A 
ATOM     10  C   UNL     1      71.974  54.936  67.212  0.00  0.00    +0.000 A 
ATOM     11  C   UNL     1      71.223  59.833  67.243  0.00  0.00    +0.000 C 
ATOM     12  C   UNL     1      70.117  57.034  64.902  0.00  0.00    +0.000 C 
ATOM     13  C   UNL     1      71.496  58.554  67.270  0.00  0.00    +0.000 C 
ATOM     14  C   UNL     1      69.646  58.246  65.048  0.00  0.00    +0.000 C 
ATOM     15  C   UNL     1      67.302  60.329  64.052  0.00  0.00    +0.000 A 
ATOM     16  C   UNL     1      73.038  56.196  68.972  0.00  0.00    +0.000 A 
ATOM     17  C   UNL     1      67.550  62.691  65.596  0.00  0.00    +0.000 A 
ATOM     18  C   UNL     1      72.466  53.726  67.713  0.00  0.00    +0.000 A 
ATOM     19  C   UNL     1      66.425  61.400  63.871  0.00  0.00    +0.000 A 
ATOM     20  C   UNL     1      73.541  54.999  69.483  0.00  0.00    +0.000 A 
ATOM     21  C   UNL     1      66.550  62.559  64.630  0.00  0.00    +0.000 A 
ATOM     22  C   UNL     1      73.259  53.787  68.861  0.00  0.00    +0.000 A 
ATOM     23  H   UNL     1      69.725  62.163  67.323  0.00  0.00    +0.000 HD
ATOM     24  H   UNL     1      70.795  54.423  65.543  0.00  0.00    +0.000 HD
ENDROOT
BRANCH  11  26
ATOM     25  O   UNL     1      73.374  60.791  67.668  0.00  0.00    +0.000 OA
ATOM     26  C   UNL     1      72.177  60.753  67.927  0.00  0.00    +0.000 C 
BRANCH  26  27
ATOM     27  O   UNL     1      71.487  61.514  68.825  0.00  0.00    +0.000 OA
ATOM     28  C   UNL     1      72.158  62.575  69.451  0.00  0.00    +0.000 C 
ENDBRANCH  26  27
ENDBRANCH  11  26
BRANCH  12  30
ATOM     29  O   UNL     1      69.858  55.135  63.468  0.00  0.00    +0.000 OA
ATOM     30  C   UNL     1      69.868  56.354  63.597  0.00  0.00    +0.000 C 
BRANCH  30  31
ATOM     31  O   UNL     1      69.642  57.303  62.643  0.00  0.00    +0.000 OA
ATOM     32  C   UNL     1      68.716  57.016  61.628  0.00  0.00    +0.000 C 
ENDBRANCH  30  31
ENDBRANCH  12  30
TORSDOF 4
ENDMDL
MODEL 2
REMARK VINA RESULT:      -6.5      2.195      3.102
REMARK  Name = 5326018_Caulerpin.pdbqt.pdb
REMARK  4 active torsions:
REMARK  status: ('A' for Active; 'I' for Inactive)
REMARK    1  A    between atoms: C_11  and  C_26
REMARK    2  A    between atoms: C_12  and  C_30
REMARK    3  A    between atoms: C_26  and  O_27
REMARK    4  A    between atoms: C_30  and  O_31
REMARK                            x       y       z     vdW  Elec       q    Type
REMARK                         _______ _______ _______ _____ _____    ______ ____
ROOT
ATOM      1  N   UNL     1      68.598  61.429  66.161  0.00  0.00    +0.000 N 
ATOM      2  N   UNL     1      69.394  55.906  62.761  0.00  0.00    +0.000 N 
ATOM      3  C   UNL     1      68.487  60.411  64.195  0.00  0.00    +0.000 C 
ATOM      4  C   UNL     1      69.861  57.054  64.600  0.00  0.00    +0.000 C 
ATOM      5  C   UNL     1      69.053  60.328  65.465  0.00  0.00    +0.000 C 
ATOM      6  C   UNL     1      69.419  57.182  63.286  0.00  0.00    +0.000 C 
ATOM      7  C   UNL     1      67.735  61.608  64.103  0.00  0.00    +0.000 A 
ATOM      8  C   UNL     1      70.167  55.695  64.853  0.00  0.00    +0.000 A 
ATOM      9  C   UNL     1      67.825  62.229  65.348  0.00  0.00    +0.000 A 
ATOM     10  C   UNL     1      69.870  54.997  63.683  0.00  0.00    +0.000 A 
ATOM     11  C   UNL     1      69.880  59.328  66.088  0.00  0.00    +0.000 C 
ATOM     12  C   UNL     1      68.967  58.319  62.527  0.00  0.00    +0.000 C 
ATOM     13  C   UNL     1      69.942  58.161  65.501  0.00  0.00    +0.000 C 
ATOM     14  C   UNL     1      68.662  59.398  63.202  0.00  0.00    +0.000 C 
ATOM     15  C   UNL     1      66.971  62.218  63.091  0.00  0.00    +0.000 A 
ATOM     16  C   UNL     1      70.653  54.981  65.964  0.00  0.00    +0.000 A 
ATOM     17  C   UNL     1      67.190  63.442  65.636  0.00  0.00    +0.000 A 
ATOM     18  C   UNL     1      70.038  53.613  63.563  0.00  0.00    +0.000 A 
ATOM     19  C   UNL     1      66.335  63.432  63.360  0.00  0.00    +0.000 A 
ATOM     20  C   UNL     1      70.831  53.601  65.860  0.00  0.00    +0.000 A 
ATOM     21  C   UNL     1      66.445  64.031  64.611  0.00  0.00    +0.000 A 
ATOM     22  C   UNL     1      70.529  52.932  64.678  0.00  0.00    +0.000 A 
ATOM     23  H   UNL     1      68.775  61.645  67.134  0.00  0.00    +0.000 HD
ATOM     24  H   UNL     1      69.068  55.635  61.842  0.00  0.00    +0.000 HD
ENDROOT
BRANCH  11  26
ATOM     25  O   UNL     1      70.749  60.579  67.933  0.00  0.00    +0.000 OA
ATOM     26  C   UNL     1      70.767  59.552  67.267  0.00  0.00    +0.000 C 
BRANCH  26  27
ATOM     27  O   UNL     1      71.535  58.440  67.456  0.00  0.00    +0.000 OA
ATOM     28  C   UNL     1      72.915  58.610  67.642  0.00  0.00    +0.000 C 
ENDBRANCH  26  27
ENDBRANCH  11  26
BRANCH  12  30
ATOM     29  O   UNL     1      69.562  59.260  60.408  0.00  0.00    +0.000 OA
ATOM     30  C   UNL     1      68.942  58.411  61.038  0.00  0.00    +0.000 C 
BRANCH  30  31
ATOM     31  O   UNL     1      68.158  57.407  60.549  0.00  0.00    +0.000 OA
ATOM     32  C   UNL     1      66.804  57.680  60.306  0.00  0.00    +0.000 C 
ENDBRANCH  30  31
ENDBRANCH  12  30
TORSDOF 4
ENDMDL
MODEL 3
REMARK VINA RESULT:      -6.5      8.640     12.171
REMARK  Name = 5326018_Caulerpin.pdbqt.pdb
REMARK  4 active torsions:
REMARK  status: ('A' for Active; 'I' for Inactive)
REMARK    1  A    between atoms: C_11  and  C_26
REMARK    2  A    between atoms: C_12  and  C_30
REMARK    3  A    between atoms: C_26  and  O_27
REMARK    4  A    between atoms: C_30  and  O_31
REMARK                            x       y       z     vdW  Elec       q    Type
REMARK                         _______ _______ _______ _____ _____    ______ ____
ROOT
ATOM      1  N   UNL     1      65.129  53.180  59.408  0.00  0.00    +0.000 N 
ATOM      2  N   UNL     1      60.951  58.199  59.585  0.00  0.00    +0.000 N 
ATOM      3  C   UNL     1      63.052  53.872  59.754  0.00  0.00    +0.000 C 
ATOM      4  C   UNL     1      63.060  57.520  59.637  0.00  0.00    +0.000 C 
ATOM      5  C   UNL     1      64.378  54.298  59.704  0.00  0.00    +0.000 C 
ATOM      6  C   UNL     1      61.747  57.099  59.827  0.00  0.00    +0.000 C 
ATOM      7  C   UNL     1      63.010  52.471  59.552  0.00  0.00    +0.000 A 
ATOM      8  C   UNL     1      63.063  58.905  59.341  0.00  0.00    +0.000 A 
ATOM      9  C   UNL     1      64.326  52.061  59.342  0.00  0.00    +0.000 A 
ATOM     10  C   UNL     1      61.728  59.308  59.319  0.00  0.00    +0.000 A 
ATOM     11  C   UNL     1      64.976  55.601  59.825  0.00  0.00    +0.000 C 
ATOM     12  C   UNL     1      61.182  55.809  60.125  0.00  0.00    +0.000 C 
ATOM     13  C   UNL     1      64.178  56.632  59.720  0.00  0.00    +0.000 C 
ATOM     14  C   UNL     1      61.958  54.769  59.959  0.00  0.00    +0.000 C 
ATOM     15  C   UNL     1      61.983  51.510  59.508  0.00  0.00    +0.000 A 
ATOM     16  C   UNL     1      64.064  59.857  59.073  0.00  0.00    +0.000 A 
ATOM     17  C   UNL     1      64.674  50.729  59.093  0.00  0.00    +0.000 A 
ATOM     18  C   UNL     1      61.338  60.623  59.044  0.00  0.00    +0.000 A 
ATOM     19  C   UNL     1      62.313  50.175  59.266  0.00  0.00    +0.000 A 
ATOM     20  C   UNL     1      63.693  61.175  58.802  0.00  0.00    +0.000 A 
ATOM     21  C   UNL     1      63.636  49.795  59.064  0.00  0.00    +0.000 A 
ATOM     22  C   UNL     1      62.353  61.548  58.791  0.00  0.00    +0.000 A 
ATOM     23  H   UNL     1      66.128  53.148  59.245  0.00  0.00    +0.000 HD
ATOM     24  H   UNL     1      59.939  58.227  59.582  0.00  0.00    +0.000 HD
ENDROOT
BRANCH  11  26
ATOM     25  O   UNL     1      67.136  55.022  60.677  0.00  0.00    +0.000 OA
ATOM     26  C   UNL     1      66.398  55.869  60.188  0.00  0.00    +0.000 C 
BRANCH  26  27
ATOM     27  O   UNL     1      66.700  57.159  59.863  0.00  0.00    +0.000 OA
ATOM     28  C   UNL     1      67.677  57.385  58.881  0.00  0.00    +0.000 C 
ENDBRANCH  26  27
ENDBRANCH  11  26
BRANCH  12  30
ATOM     29  O   UNL     1      59.464  56.107  61.765  0.00  0.00    +0.000 OA
ATOM     30  C   UNL     1      59.837  55.572  60.728  0.00  0.00    +0.000 C 
BRANCH  30  31
ATOM     31  O   UNL     1      59.142  54.713  59.927  0.00  0.00    +0.000 OA
ATOM     32  C   UNL     1      58.751  55.161  58.655  0.00  0.00    +0.000 C 
ENDBRANCH  30  31
ENDBRANCH  12  30
TORSDOF 4
ENDMDL
MODEL 4
REMARK VINA RESULT:      -6.4     10.022     14.480
REMARK  Name = 5326018_Caulerpin.pdbqt.pdb
REMARK  4 active torsions:
REMARK  status: ('A' for Active; 'I' for Inactive)
REMARK    1  A    between atoms: C_11  and  C_26
REMARK    2  A    between atoms: C_12  and  C_30
REMARK    3  A    between atoms: C_26  and  O_27
REMARK    4  A    between atoms: C_30  and  O_31
REMARK                            x       y       z     vdW  Elec       q    Type
REMARK                         _______ _______ _______ _____ _____    ______ ____
ROOT
ATOM      1  N   UNL     1      59.902  69.116  69.440  0.00  0.00    +0.000 N 
ATOM      2  N   UNL     1      66.118  69.818  67.554  0.00  0.00    +0.000 N 
ATOM      3  C   UNL     1      61.682  68.199  68.489  0.00  0.00    +0.000 C 
ATOM      4  C   UNL     1      64.216  70.802  68.130  0.00  0.00    +0.000 C 
ATOM      5  C   UNL     1      61.096  69.419  68.820  0.00  0.00    +0.000 C 
ATOM      6  C   UNL     1      64.759  69.606  67.668  0.00  0.00    +0.000 C 
ATOM      7  C   UNL     1      60.803  67.152  68.854  0.00  0.00    +0.000 A 
ATOM      8  C   UNL     1      65.247  71.767  68.234  0.00  0.00    +0.000 A 
ATOM      9  C   UNL     1      59.692  67.753  69.444  0.00  0.00    +0.000 A 
ATOM     10  C   UNL     1      66.428  71.126  67.863  0.00  0.00    +0.000 A 
ATOM     11  C   UNL     1      61.556  70.777  68.687  0.00  0.00    +0.000 C 
ATOM     12  C   UNL     1      64.172  68.318  67.406  0.00  0.00    +0.000 C 
ATOM     13  C   UNL     1      62.830  70.950  68.450  0.00  0.00    +0.000 C 
ATOM     14  C   UNL     1      62.980  68.099  67.898  0.00  0.00    +0.000 C 
ATOM     15  C   UNL     1      60.845  65.748  68.760  0.00  0.00    +0.000 A 
ATOM     16  C   UNL     1      65.300  73.118  68.623  0.00  0.00    +0.000 A 
ATOM     17  C   UNL     1      58.610  67.021  69.945  0.00  0.00    +0.000 A 
ATOM     18  C   UNL     1      67.670  71.772  67.856  0.00  0.00    +0.000 A 
ATOM     19  C   UNL     1      59.771  65.002  69.249  0.00  0.00    +0.000 A 
ATOM     20  C   UNL     1      66.530  73.779  68.616  0.00  0.00    +0.000 A 
ATOM     21  C   UNL     1      58.675  65.630  69.829  0.00  0.00    +0.000 A 
ATOM     22  C   UNL     1      67.691  73.115  68.237  0.00  0.00    +0.000 A 
ATOM     23  H   UNL     1      59.252  69.772  69.856  0.00  0.00    +0.000 HD
ATOM     24  H   UNL     1      66.819  69.135  67.295  0.00  0.00    +0.000 HD
ENDROOT
BRANCH  11  26
ATOM     25  O   UNL     1      59.460  71.930  68.622  0.00  0.00    +0.000 OA
ATOM     26  C   UNL     1      60.683  71.987  68.667  0.00  0.00    +0.000 C 
BRANCH  26  27
ATOM     27  O   UNL     1      61.472  73.099  68.731  0.00  0.00    +0.000 OA
ATOM     28  C   UNL     1      61.022  74.189  69.490  0.00  0.00    +0.000 C 
ENDBRANCH  26  27
ENDBRANCH  11  26
BRANCH  12  30
ATOM     29  O   UNL     1      64.263  66.965  65.434  0.00  0.00    +0.000 OA
ATOM     30  C   UNL     1      64.750  67.268  66.516  0.00  0.00    +0.000 C 
BRANCH  30  31
ATOM     31  O   UNL     1      65.874  66.765  67.104  0.00  0.00    +0.000 OA
ATOM     32  C   UNL     1      66.787  66.066  66.299  0.00  0.00    +0.000 C 
ENDBRANCH  30  31
ENDBRANCH  12  30
TORSDOF 4
ENDMDL
MODEL 5
REMARK VINA RESULT:      -6.4     10.024     14.739
REMARK  Name = 5326018_Caulerpin.pdbqt.pdb
REMARK  4 active torsions:
REMARK  status: ('A' for Active; 'I' for Inactive)
REMARK    1  A    between atoms: C_11  and  C_26
REMARK    2  A    between atoms: C_12  and  C_30
REMARK    3  A    between atoms: C_26  and  O_27
REMARK    4  A    between atoms: C_30  and  O_31
REMARK                            x       y       z     vdW  Elec       q    Type
REMARK                         _______ _______ _______ _____ _____    ______ ____
ROOT
ATOM      1  N   UNL     1      66.138  69.785  67.541  0.00  0.00    +0.000 N 
ATOM      2  N   UNL     1      59.902  69.202  69.404  0.00  0.00    +0.000 N 
ATOM      3  C   UNL     1      64.252  70.805  68.104  0.00  0.00    +0.000 C 
ATOM      4  C   UNL     1      61.670  68.249  68.465  0.00  0.00    +0.000 C 
ATOM      5  C   UNL     1      64.776  69.596  67.650  0.00  0.00    +0.000 C 
ATOM      6  C   UNL     1      61.105  69.480  68.787  0.00  0.00    +0.000 C 
ATOM      7  C   UNL     1      65.299  71.752  68.207  0.00  0.00    +0.000 A 
ATOM      8  C   UNL     1      60.771  67.218  68.832  0.00  0.00    +0.000 A 
ATOM      9  C   UNL     1      66.470  71.088  67.844  0.00  0.00    +0.000 A 
ATOM     10  C   UNL     1      59.669  67.843  69.414  0.00  0.00    +0.000 A 
ATOM     11  C   UNL     1      64.166  68.318  67.392  0.00  0.00    +0.000 C 
ATOM     12  C   UNL     1      61.589  70.829  68.649  0.00  0.00    +0.000 C 
ATOM     13  C   UNL     1      62.968  68.123  67.879  0.00  0.00    +0.000 C 
ATOM     14  C   UNL     1      62.867  70.979  68.417  0.00  0.00    +0.000 C 
ATOM     15  C   UNL     1      65.374  73.104  68.590  0.00  0.00    +0.000 A 
ATOM     16  C   UNL     1      60.789  65.814  68.745  0.00  0.00    +0.000 A 
ATOM     17  C   UNL     1      67.723  71.712  67.839  0.00  0.00    +0.000 A 
ATOM     18  C   UNL     1      58.572  67.132  69.914  0.00  0.00    +0.000 A 
ATOM     19  C   UNL     1      66.615  73.743  68.585  0.00  0.00    +0.000 A 
ATOM     20  C   UNL     1      59.700  65.090  69.233  0.00  0.00    +0.000 A 
ATOM     21  C   UNL     1      67.767  73.056  68.214  0.00  0.00    +0.000 A 
ATOM     22  C   UNL     1      58.612  65.741  69.805  0.00  0.00    +0.000 A 
ATOM     23  H   UNL     1      66.827  69.088  67.289  0.00  0.00    +0.000 HD
ATOM     24  H   UNL     1      59.262  69.871  69.813  0.00  0.00    +0.000 HD
ENDROOT
BRANCH  11  26
ATOM     25  O   UNL     1      64.250  66.962  65.422  0.00  0.00    +0.000 OA
ATOM     26  C   UNL     1      64.730  67.254  66.511  0.00  0.00    +0.000 C 
BRANCH  26  27
ATOM     27  O   UNL     1      65.833  66.723  67.113  0.00  0.00    +0.000 OA
ATOM     28  C   UNL     1      66.831  66.166  66.299  0.00  0.00    +0.000 C 
ENDBRANCH  26  27
ENDBRANCH  11  26
BRANCH  12  30
ATOM     29  O   UNL     1      59.513  72.021  68.622  0.00  0.00    +0.000 OA
ATOM     30  C   UNL     1      60.738  72.055  68.619  0.00  0.00    +0.000 C 
BRANCH  30  31
ATOM     31  O   UNL     1      61.549  73.152  68.614  0.00  0.00    +0.000 OA
ATOM     32  C   UNL     1      61.267  74.189  69.517  0.00  0.00    +0.000 C 
ENDBRANCH  30  31
ENDBRANCH  12  30
TORSDOF 4
ENDMDL
MODEL 6
REMARK VINA RESULT:      -6.3     12.561     16.288
REMARK  Name = 5326018_Caulerpin.pdbqt.pdb
REMARK  4 active torsions:
REMARK  status: ('A' for Active; 'I' for Inactive)
REMARK    1  A    between atoms: C_11  and  C_26
REMARK    2  A    between atoms: C_12  and  C_30
REMARK    3  A    between atoms: C_26  and  O_27
REMARK    4  A    between atoms: C_30  and  O_31
REMARK                            x       y       z     vdW  Elec       q    Type
REMARK                         _______ _______ _______ _____ _____    ______ ____
ROOT
ATOM      1  N   UNL     1      79.365  67.202  77.263  0.00  0.00    +0.000 N 
ATOM      2  N   UNL     1      76.168  62.543  80.544  0.00  0.00    +0.000 N 
ATOM      3  C   UNL     1      78.080  65.398  77.172  0.00  0.00    +0.000 C 
ATOM      4  C   UNL     1      77.753  64.093  80.566  0.00  0.00    +0.000 C 
ATOM      5  C   UNL     1      78.960  66.103  77.991  0.00  0.00    +0.000 C 
ATOM      6  C   UNL     1      76.980  63.299  79.723  0.00  0.00    +0.000 C 
ATOM      7  C   UNL     1      78.005  66.042  75.914  0.00  0.00    +0.000 A 
ATOM      8  C   UNL     1      77.454  63.767  81.911  0.00  0.00    +0.000 A 
ATOM      9  C   UNL     1      78.824  67.168  75.995  0.00  0.00    +0.000 A 
ATOM     10  C   UNL     1      76.460  62.790  81.869  0.00  0.00    +0.000 A 
ATOM     11  C   UNL     1      79.381  65.900  79.352  0.00  0.00    +0.000 C 
ATOM     12  C   UNL     1      76.874  63.233  78.289  0.00  0.00    +0.000 C 
ATOM     13  C   UNL     1      78.669  65.077  80.077  0.00  0.00    +0.000 C 
ATOM     14  C   UNL     1      77.382  64.229  77.611  0.00  0.00    +0.000 C 
ATOM     15  C   UNL     1      77.309  65.793  74.717  0.00  0.00    +0.000 A 
ATOM     16  C   UNL     1      77.913  64.216  83.163  0.00  0.00    +0.000 A 
ATOM     17  C   UNL     1      78.988  68.063  74.932  0.00  0.00    +0.000 A 
ATOM     18  C   UNL     1      75.900  62.230  83.023  0.00  0.00    +0.000 A 
ATOM     19  C   UNL     1      77.467  66.673  73.644  0.00  0.00    +0.000 A 
ATOM     20  C   UNL     1      77.370  63.664  84.324  0.00  0.00    +0.000 A 
ATOM     21  C   UNL     1      78.293  67.786  73.753  0.00  0.00    +0.000 A 
ATOM     22  C   UNL     1      76.382  62.688  84.251  0.00  0.00    +0.000 A 
ATOM     23  H   UNL     1      79.964  67.952  77.583  0.00  0.00    +0.000 HD
ATOM     24  H   UNL     1      75.443  61.899  80.253  0.00  0.00    +0.000 HD
ENDROOT
BRANCH  11  26
ATOM     25  O   UNL     1      81.487  65.741  80.477  0.00  0.00    +0.000 OA
ATOM     26  C   UNL     1      80.629  66.446  79.961  0.00  0.00    +0.000 C 
BRANCH  26  27
ATOM     27  O   UNL     1      80.633  67.803  79.814  0.00  0.00    +0.000 OA
ATOM     28  C   UNL     1      80.882  68.593  80.946  0.00  0.00    +0.000 C 
ENDBRANCH  26  27
ENDBRANCH  11  26
BRANCH  12  30
ATOM     29  O   UNL     1      75.306  61.496  77.786  0.00  0.00    +0.000 OA
ATOM     30  C   UNL     1      76.354  62.069  77.513  0.00  0.00    +0.000 C 
BRANCH  30  31
ATOM     31  O   UNL     1      77.215  61.806  76.487  0.00  0.00    +0.000 OA
ATOM     32  C   UNL     1      76.674  61.528  75.222  0.00  0.00    +0.000 C 
ENDBRANCH  30  31
ENDBRANCH  12  30
TORSDOF 4
ENDMDL
MODEL 7
REMARK VINA RESULT:      -6.3     15.723     20.029
REMARK  Name = 5326018_Caulerpin.pdbqt.pdb
REMARK  4 active torsions:
REMARK  status: ('A' for Active; 'I' for Inactive)
REMARK    1  A    between atoms: C_11  and  C_26
REMARK    2  A    between atoms: C_12  and  C_30
REMARK    3  A    between atoms: C_26  and  O_27
REMARK    4  A    between atoms: C_30  and  O_31
REMARK                            x       y       z     vdW  Elec       q    Type
REMARK                         _______ _______ _______ _____ _____    ______ ____
ROOT
ATOM      1  N   UNL     1      71.473  37.325  60.991  0.00  0.00    +0.000 N 
ATOM      2  N   UNL     1      71.619  43.823  60.329  0.00  0.00    +0.000 N 
ATOM      3  C   UNL     1      70.909  39.302  61.820  0.00  0.00    +0.000 C 
ATOM      4  C   UNL     1      72.488  41.866  59.757  0.00  0.00    +0.000 C 
ATOM      5  C   UNL     1      71.784  38.668  60.941  0.00  0.00    +0.000 C 
ATOM      6  C   UNL     1      71.721  42.506  60.726  0.00  0.00    +0.000 C 
ATOM      7  C   UNL     1      70.107  38.325  62.457  0.00  0.00    +0.000 A 
ATOM      8  C   UNL     1      72.909  42.819  58.797  0.00  0.00    +0.000 A 
ATOM      9  C   UNL     1      70.484  37.093  61.923  0.00  0.00    +0.000 A 
ATOM     10  C   UNL     1      72.355  44.039  59.182  0.00  0.00    +0.000 A 
ATOM     11  C   UNL     1      72.786  39.179  60.042  0.00  0.00    +0.000 C 
ATOM     12  C   UNL     1      71.040  42.016  61.896  0.00  0.00    +0.000 C 
ATOM     13  C   UNL     1      72.748  40.460  59.779  0.00  0.00    +0.000 C 
ATOM     14  C   UNL     1      70.870  40.722  61.984  0.00  0.00    +0.000 C 
ATOM     15  C   UNL     1      69.084  38.363  63.423  0.00  0.00    +0.000 A 
ATOM     16  C   UNL     1      73.692  42.766  57.629  0.00  0.00    +0.000 A 
ATOM     17  C   UNL     1      69.890  35.887  62.309  0.00  0.00    +0.000 A 
ATOM     18  C   UNL     1      72.547  45.220  58.457  0.00  0.00    +0.000 A 
ATOM     19  C   UNL     1      68.485  37.167  63.824  0.00  0.00    +0.000 A 
ATOM     20  C   UNL     1      73.899  43.936  56.897  0.00  0.00    +0.000 A 
ATOM     21  C   UNL     1      68.884  35.953  63.276  0.00  0.00    +0.000 A 
ATOM     22  C   UNL     1      73.336  45.140  57.307  0.00  0.00    +0.000 A 
ATOM     23  H   UNL     1      71.883  36.588  60.432  0.00  0.00    +0.000 HD
ATOM     24  H   UNL     1      71.082  44.554  60.780  0.00  0.00    +0.000 HD
ENDROOT
BRANCH  11  26
ATOM     25  O   UNL     1      75.103  38.726  59.653  0.00  0.00    +0.000 OA
ATOM     26  C   UNL     1      73.933  38.399  59.493  0.00  0.00    +0.000 C 
BRANCH  26  27
ATOM     27  O   UNL     1      73.448  37.304  58.839  0.00  0.00    +0.000 OA
ATOM     28  C   UNL     1      72.957  37.472  57.535  0.00  0.00    +0.000 C 
ENDBRANCH  26  27
ENDBRANCH  11  26
BRANCH  12  30
ATOM     29  O   UNL     1      70.011  43.893  62.966  0.00  0.00    +0.000 OA
ATOM     30  C   UNL     1      70.633  42.843  63.070  0.00  0.00    +0.000 C 
BRANCH  30  31
ATOM     31  O   UNL     1      71.045  42.219  64.211  0.00  0.00    +0.000 OA
ATOM     32  C   UNL     1      70.831  42.868  65.437  0.00  0.00    +0.000 C 
ENDBRANCH  30  31
ENDBRANCH  12  30
TORSDOF 4
ENDMDL
MODEL 8
REMARK VINA RESULT:      -6.3     12.577     17.546
REMARK  Name = 5326018_Caulerpin.pdbqt.pdb
REMARK  4 active torsions:
REMARK  status: ('A' for Active; 'I' for Inactive)
REMARK    1  A    between atoms: C_11  and  C_26
REMARK    2  A    between atoms: C_12  and  C_30
REMARK    3  A    between atoms: C_26  and  O_27
REMARK    4  A    between atoms: C_30  and  O_31
REMARK                            x       y       z     vdW  Elec       q    Type
REMARK                         _______ _______ _______ _____ _____    ______ ____
ROOT
ATOM      1  N   UNL     1      76.236  62.561  80.539  0.00  0.00    +0.000 N 
ATOM      2  N   UNL     1      79.349  67.279  77.262  0.00  0.00    +0.000 N 
ATOM      3  C   UNL     1      77.788  64.143  80.564  0.00  0.00    +0.000 C 
ATOM      4  C   UNL     1      78.102  65.448  77.169  0.00  0.00    +0.000 C 
ATOM      5  C   UNL     1      77.034  63.331  79.719  0.00  0.00    +0.000 C 
ATOM      6  C   UNL     1      78.963  66.172  77.990  0.00  0.00    +0.000 C 
ATOM      7  C   UNL     1      77.490  63.813  81.907  0.00  0.00    +0.000 A 
ATOM      8  C   UNL     1      78.018  66.089  75.909  0.00  0.00    +0.000 A 
ATOM      9  C   UNL     1      76.517  62.815  81.864  0.00  0.00    +0.000 A 
ATOM     10  C   UNL     1      78.813  67.231  75.992  0.00  0.00    +0.000 A 
ATOM     11  C   UNL     1      76.936  63.261  78.285  0.00  0.00    +0.000 C 
ATOM     12  C   UNL     1      79.383  65.981  79.353  0.00  0.00    +0.000 C 
ATOM     13  C   UNL     1      77.427  64.266  77.607  0.00  0.00    +0.000 C 
ATOM     14  C   UNL     1      78.685  65.145  80.077  0.00  0.00    +0.000 C 
ATOM     15  C   UNL     1      77.935  64.274  83.160  0.00  0.00    +0.000 A 
ATOM     16  C   UNL     1      77.332  65.823  74.709  0.00  0.00    +0.000 A 
ATOM     17  C   UNL     1      75.964  62.246  83.017  0.00  0.00    +0.000 A 
ATOM     18  C   UNL     1      78.963  68.128  74.928  0.00  0.00    +0.000 A 
ATOM     19  C   UNL     1      77.399  63.712  84.321  0.00  0.00    +0.000 A 
ATOM     20  C   UNL     1      77.476  66.704  73.636  0.00  0.00    +0.000 A 
ATOM     21  C   UNL     1      76.431  62.716  84.246  0.00  0.00    +0.000 A 
ATOM     22  C   UNL     1      78.279  67.835  73.746  0.00  0.00    +0.000 A 
ATOM     23  H   UNL     1      75.526  61.902  80.246  0.00  0.00    +0.000 HD
ATOM     24  H   UNL     1      79.931  68.042  77.582  0.00  0.00    +0.000 HD
ENDROOT
BRANCH  11  26
ATOM     25  O   UNL     1      75.432  61.462  77.807  0.00  0.00    +0.000 OA
ATOM     26  C   UNL     1      76.443  62.086  77.509  0.00  0.00    +0.000 C 
BRANCH  26  27
ATOM     27  O   UNL     1      77.279  61.875  76.451  0.00  0.00    +0.000 OA
ATOM     28  C   UNL     1      76.714  61.507  75.221  0.00  0.00    +0.000 C 
ENDBRANCH  26  27
ENDBRANCH  11  26
BRANCH  12  30
ATOM     29  O   UNL     1      81.516  65.864  80.433  0.00  0.00    +0.000 OA
ATOM     30  C   UNL     1      80.618  66.554  79.966  0.00  0.00    +0.000 C 
BRANCH  30  31
ATOM     31  O   UNL     1      80.558  67.915  79.884  0.00  0.00    +0.000 OA
ATOM     32  C   UNL     1      80.872  68.663  81.029  0.00  0.00    +0.000 C 
ENDBRANCH  30  31
ENDBRANCH  12  30
TORSDOF 4
ENDMDL
MODEL 9
REMARK VINA RESULT:      -6.3     14.060     18.101
REMARK  Name = 5326018_Caulerpin.pdbqt.pdb
REMARK  4 active torsions:
REMARK  status: ('A' for Active; 'I' for Inactive)
REMARK    1  A    between atoms: C_11  and  C_26
REMARK    2  A    between atoms: C_12  and  C_30
REMARK    3  A    between atoms: C_26  and  O_27
REMARK    4  A    between atoms: C_30  and  O_31
REMARK                            x       y       z     vdW  Elec       q    Type
REMARK                         _______ _______ _______ _____ _____    ______ ____
ROOT
ATOM      1  N   UNL     1      71.844  44.204  63.911  0.00  0.00    +0.000 N 
ATOM      2  N   UNL     1      71.727  38.600  60.554  0.00  0.00    +0.000 N 
ATOM      3  C   UNL     1      71.083  42.128  63.766  0.00  0.00    +0.000 C 
ATOM      4  C   UNL     1      72.135  40.778  60.541  0.00  0.00    +0.000 C 
ATOM      5  C   UNL     1      71.636  43.169  63.023  0.00  0.00    +0.000 C 
ATOM      6  C   UNL     1      71.459  39.774  61.228  0.00  0.00    +0.000 C 
ATOM      7  C   UNL     1      70.895  42.562  65.100  0.00  0.00    +0.000 A 
ATOM      8  C   UNL     1      72.765  40.217  59.404  0.00  0.00    +0.000 A 
ATOM      9  C   UNL     1      71.376  43.869  65.163  0.00  0.00    +0.000 A 
ATOM     10  C   UNL     1      72.489  38.851  59.433  0.00  0.00    +0.000 A 
ATOM     11  C   UNL     1      72.040  43.261  61.645  0.00  0.00    +0.000 C 
ATOM     12  C   UNL     1      70.682  39.788  62.440  0.00  0.00    +0.000 C 
ATOM     13  C   UNL     1      72.163  42.137  60.988  0.00  0.00    +0.000 C 
ATOM     14  C   UNL     1      70.799  40.843  63.205  0.00  0.00    +0.000 C 
ATOM     15  C   UNL     1      70.380  41.970  66.268  0.00  0.00    +0.000 A 
ATOM     16  C   UNL     1      73.557  40.729  58.359  0.00  0.00    +0.000 A 
ATOM     17  C   UNL     1      71.365  44.624  66.341  0.00  0.00    +0.000 A 
ATOM     18  C   UNL     1      72.964  37.962  58.462  0.00  0.00    +0.000 A 
ATOM     19  C   UNL     1      70.356  42.711  67.451  0.00  0.00    +0.000 A 
ATOM     20  C   UNL     1      74.034  39.857  57.379  0.00  0.00    +0.000 A 
ATOM     21  C   UNL     1      70.840  44.015  67.483  0.00  0.00    +0.000 A 
ATOM     22  C   UNL     1      73.740  38.498  57.433  0.00  0.00    +0.000 A 
ATOM     23  H   UNL     1      72.285  45.093  63.710  0.00  0.00    +0.000 HD
ATOM     24  H   UNL     1      71.433  37.668  60.820  0.00  0.00    +0.000 HD
ENDROOT
BRANCH  11  26
ATOM     25  O   UNL     1      73.101  44.709  60.063  0.00  0.00    +0.000 OA
ATOM     26  C   UNL     1      72.202  44.528  60.875  0.00  0.00    +0.000 C 
BRANCH  26  27
ATOM     27  O   UNL     1      71.193  45.382  61.216  0.00  0.00    +0.000 OA
ATOM     28  C   UNL     1      71.397  46.757  61.030  0.00  0.00    +0.000 C 
ENDBRANCH  26  27
ENDBRANCH  11  26
BRANCH  12  30
ATOM     29  O   UNL     1      69.118  38.026  62.021  0.00  0.00    +0.000 OA
ATOM     30  C   UNL     1      69.665  38.768  62.829  0.00  0.00    +0.000 C 
BRANCH  30  31
ATOM     31  O   UNL     1      69.498  38.808  64.182  0.00  0.00    +0.000 OA
ATOM     32  C   UNL     1      68.549  37.949  64.759  0.00  0.00    +0.000 C 
ENDBRANCH  30  31
ENDBRANCH  12  30
TORSDOF 4
ENDMDL
