MODEL 1
REMARK VINA RESULT:      -3.6      0.000      0.000
REMARK  Name = 5350_Sulforaphane.pdbqt.pdb
REMARK  3 active torsions:
REMARK  status: ('A' for Active; 'I' for Inactive)
REMARK    1  A    between atoms: C_1  and  C_2
REMARK    2  A    between atoms: C_3  and  N_5
REMARK    3  A    between atoms: C_7  and  S_8
REMARK                            x       y       z     vdW  Elec       q    Type
REMARK                         _______ _______ _______ _____ _____    ______ ____
ROOT
ATOM      1  C   UNL     1      49.791  42.528  71.518  0.00  0.00    +0.000 C 
ATOM      2  C   UNL     1      48.374  42.759  70.981  0.00  0.00    +0.000 C 
ENDROOT
BRANCH   2   3
ATOM      3  S   UNL     1      46.747  43.026  70.359  0.00  0.00    +0.000 S 
ATOM      4  O   UNL     1      47.185  44.223  69.570  0.00  0.00    +0.000 OA
ATOM      5  C   UNL     1      46.274  44.022  71.732  0.00  0.00    +0.000 C 
ENDBRANCH   2   3
BRANCH   1   6
ATOM      6  C   UNL     1      51.206  42.299  72.054  0.00  0.00    +0.000 C 
ATOM      7  C   UNL     1      52.624  42.070  72.592  0.00  0.00    +0.000 C 
BRANCH   7   9
ATOM      8  S   UNL     1      54.801  39.344  72.440  0.00  0.00    +0.000 S 
ATOM      9  N   UNL     1      53.858  41.867  73.073  0.00  0.00    +0.000 NA
ATOM     10  C   UNL     1      54.240  40.793  72.794  0.00  0.00    +0.000 C 
ENDBRANCH   7   9
ENDBRANCH   1   6
TORSDOF 3
ENDMDL
MODEL 2
REMARK VINA RESULT:      -3.4     20.129     20.794
REMARK  Name = 5350_Sulforaphane.pdbqt.pdb
REMARK  3 active torsions:
REMARK  status: ('A' for Active; 'I' for Inactive)
REMARK    1  A    between atoms: C_1  and  C_2
REMARK    2  A    between atoms: C_3  and  N_5
REMARK    3  A    between atoms: C_7  and  S_8
REMARK                            x       y       z     vdW  Elec       q    Type
REMARK                         _______ _______ _______ _____ _____    ______ ____
ROOT
ATOM      1  C   UNL     1      62.135  41.246  55.209  0.00  0.00    +0.000 C 
ATOM      2  C   UNL     1      62.160  42.602  54.495  0.00  0.00    +0.000 C 
ENDROOT
BRANCH   2   3
ATOM      3  S   UNL     1      62.186  44.159  53.670  0.00  0.00    +0.000 S 
ATOM      4  O   UNL     1      60.899  43.864  52.958  0.00  0.00    +0.000 OA
ATOM      5  C   UNL     1      63.146  43.547  52.326  0.00  0.00    +0.000 C 
ENDBRANCH   2   3
BRANCH   1   6
ATOM      6  C   UNL     1      62.114  39.891  55.922  0.00  0.00    +0.000 C 
ATOM      7  C   UNL     1      62.092  38.535  56.636  0.00  0.00    +0.000 C 
BRANCH   7   9
ATOM      8  S   UNL     1      63.137  35.352  55.649  0.00  0.00    +0.000 S 
ATOM      9  N   UNL     1      62.071  37.343  57.249  0.00  0.00    +0.000 NA
ATOM     10  C   UNL     1      62.527  36.513  56.555  0.00  0.00    +0.000 C 
ENDBRANCH   7   9
ENDBRANCH   1   6
TORSDOF 3
ENDMDL
MODEL 3
REMARK VINA RESULT:      -3.2      6.149      7.890
REMARK  Name = 5350_Sulforaphane.pdbqt.pdb
REMARK  3 active torsions:
REMARK  status: ('A' for Active; 'I' for Inactive)
REMARK    1  A    between atoms: C_1  and  C_2
REMARK    2  A    between atoms: C_3  and  N_5
REMARK    3  A    between atoms: C_7  and  S_8
REMARK                            x       y       z     vdW  Elec       q    Type
REMARK                         _______ _______ _______ _____ _____    ______ ____
ROOT
ATOM      1  C   UNL     1      44.205  41.574  67.566  0.00  0.00    +0.000 C 
ATOM      2  C   UNL     1      43.273  40.713  66.707  0.00  0.00    +0.000 C 
ENDROOT
BRANCH   2   3
ATOM      3  S   UNL     1      42.203  39.719  65.722  0.00  0.00    +0.000 S 
ATOM      4  O   UNL     1      43.354  39.151  64.946  0.00  0.00    +0.000 OA
ATOM      5  C   UNL     1      41.945  40.993  64.533  0.00  0.00    +0.000 C 
ENDBRANCH   2   3
BRANCH   1   6
ATOM      6  C   UNL     1      45.139  42.435  68.422  0.00  0.00    +0.000 C 
ATOM      7  C   UNL     1      46.074  43.297  69.278  0.00  0.00    +0.000 C 
BRANCH   7   9
ATOM      8  S   UNL     1      46.265  43.830  72.724  0.00  0.00    +0.000 S 
ATOM      9  N   UNL     1      46.890  44.041  70.037  0.00  0.00    +0.000 NA
ATOM     10  C   UNL     1      46.609  43.938  71.172  0.00  0.00    +0.000 C 
ENDBRANCH   7   9
ENDBRANCH   1   6
TORSDOF 3
ENDMDL
MODEL 4
REMARK VINA RESULT:      -3.2     13.061     13.334
REMARK  Name = 5350_Sulforaphane.pdbqt.pdb
REMARK  3 active torsions:
REMARK  status: ('A' for Active; 'I' for Inactive)
REMARK    1  A    between atoms: C_1  and  C_2
REMARK    2  A    between atoms: C_3  and  N_5
REMARK    3  A    between atoms: C_7  and  S_8
REMARK                            x       y       z     vdW  Elec       q    Type
REMARK                         _______ _______ _______ _____ _____    ______ ____
ROOT
ATOM      1  C   UNL     1      49.206  36.025  61.035  0.00  0.00    +0.000 C 
ATOM      2  C   UNL     1      47.879  36.236  61.772  0.00  0.00    +0.000 C 
ENDROOT
BRANCH   2   3
ATOM      3  S   UNL     1      46.355  36.478  62.622  0.00  0.00    +0.000 S 
ATOM      4  O   UNL     1      45.970  37.615  61.722  0.00  0.00    +0.000 OA
ATOM      5  C   UNL     1      47.068  37.570  63.805  0.00  0.00    +0.000 C 
ENDBRANCH   2   3
BRANCH   1   6
ATOM      6  C   UNL     1      50.532  35.812  60.299  0.00  0.00    +0.000 C 
ATOM      7  C   UNL     1      51.859  35.598  59.562  0.00  0.00    +0.000 C 
BRANCH   7   9
ATOM      8  S   UNL     1      52.591  34.820  56.237  0.00  0.00    +0.000 S 
ATOM      9  N   UNL     1      53.013  35.416  58.906  0.00  0.00    +0.000 NA
ATOM     10  C   UNL     1      52.813  35.165  57.777  0.00  0.00    +0.000 C 
ENDBRANCH   7   9
ENDBRANCH   1   6
TORSDOF 3
ENDMDL
MODEL 5
REMARK VINA RESULT:      -3.1     12.446     13.683
REMARK  Name = 5350_Sulforaphane.pdbqt.pdb
REMARK  3 active torsions:
REMARK  status: ('A' for Active; 'I' for Inactive)
REMARK    1  A    between atoms: C_1  and  C_2
REMARK    2  A    between atoms: C_3  and  N_5
REMARK    3  A    between atoms: C_7  and  S_8
REMARK                            x       y       z     vdW  Elec       q    Type
REMARK                         _______ _______ _______ _____ _____    ______ ____
ROOT
ATOM      1  C   UNL     1      49.671  35.867  60.824  0.00  0.00    +0.000 C 
ATOM      2  C   UNL     1      51.004  35.383  60.243  0.00  0.00    +0.000 C 
ENDROOT
BRANCH   2   3
ATOM      3  S   UNL     1      52.535  34.825  59.572  0.00  0.00    +0.000 S 
ATOM      4  O   UNL     1      53.322  35.535  60.633  0.00  0.00    +0.000 OA
ATOM      5  C   UNL     1      52.667  36.190  58.467  0.00  0.00    +0.000 C 
ENDBRANCH   2   3
BRANCH   1   6
ATOM      6  C   UNL     1      48.339  36.348  61.406  0.00  0.00    +0.000 C 
ATOM      7  C   UNL     1      47.006  36.830  61.989  0.00  0.00    +0.000 C 
BRANCH   7   9
ATOM      8  S   UNL     1      45.468  36.412  65.097  0.00  0.00    +0.000 S 
ATOM      9  N   UNL     1      45.836  37.256  62.487  0.00  0.00    +0.000 NA
ATOM     10  C   UNL     1      45.699  36.888  63.593  0.00  0.00    +0.000 C 
ENDBRANCH   7   9
ENDBRANCH   1   6
TORSDOF 3
ENDMDL
MODEL 6
REMARK VINA RESULT:      -3.0     24.047     24.308
REMARK  Name = 5350_Sulforaphane.pdbqt.pdb
REMARK  3 active torsions:
REMARK  status: ('A' for Active; 'I' for Inactive)
REMARK    1  A    between atoms: C_1  and  C_2
REMARK    2  A    between atoms: C_3  and  N_5
REMARK    3  A    between atoms: C_7  and  S_8
REMARK                            x       y       z     vdW  Elec       q    Type
REMARK                         _______ _______ _______ _____ _____    ______ ____
ROOT
ATOM      1  C   UNL     1      58.451  63.832  66.592  0.00  0.00    +0.000 C 
ATOM      2  C   UNL     1      57.479  63.301  65.533  0.00  0.00    +0.000 C 
ENDROOT
BRANCH   2   3
ATOM      3  S   UNL     1      56.360  62.687  64.318  0.00  0.00    +0.000 S 
ATOM      4  O   UNL     1      56.641  61.264  64.700  0.00  0.00    +0.000 OA
ATOM      5  C   UNL     1      57.586  62.658  63.054  0.00  0.00    +0.000 C 
ENDBRANCH   2   3
BRANCH   1   6
ATOM      6  C   UNL     1      59.425  64.362  67.648  0.00  0.00    +0.000 C 
ATOM      7  C   UNL     1      60.400  64.892  68.706  0.00  0.00    +0.000 C 
BRANCH   7   9
ATOM      8  S   UNL     1      60.525  67.902  70.472  0.00  0.00    +0.000 S 
ATOM      9  N   UNL     1      61.247  65.367  69.629  0.00  0.00    +0.000 NA
ATOM     10  C   UNL     1      60.924  66.442  69.973  0.00  0.00    +0.000 C 
ENDBRANCH   7   9
ENDBRANCH   1   6
TORSDOF 3
ENDMDL
MODEL 7
REMARK VINA RESULT:      -3.0     12.677     14.081
REMARK  Name = 5350_Sulforaphane.pdbqt.pdb
REMARK  3 active torsions:
REMARK  status: ('A' for Active; 'I' for Inactive)
REMARK    1  A    between atoms: C_1  and  C_2
REMARK    2  A    between atoms: C_3  and  N_5
REMARK    3  A    between atoms: C_7  and  S_8
REMARK                            x       y       z     vdW  Elec       q    Type
REMARK                         _______ _______ _______ _____ _____    ______ ____
ROOT
ATOM      1  C   UNL     1      54.402  35.448  62.467  0.00  0.00    +0.000 C 
ATOM      2  C   UNL     1      55.463  35.623  63.559  0.00  0.00    +0.000 C 
ENDROOT
BRANCH   2   3
ATOM      3  S   UNL     1      56.681  35.828  64.816  0.00  0.00    +0.000 S 
ATOM      4  O   UNL     1      56.261  37.245  65.068  0.00  0.00    +0.000 OA
ATOM      5  C   UNL     1      57.924  36.329  63.674  0.00  0.00    +0.000 C 
ENDBRANCH   2   3
BRANCH   1   6
ATOM      6  C   UNL     1      53.344  35.274  61.374  0.00  0.00    +0.000 C 
ATOM      7  C   UNL     1      52.285  35.101  60.279  0.00  0.00    +0.000 C 
BRANCH   7   9
ATOM      8  S   UNL     1      51.196  37.146  57.666  0.00  0.00    +0.000 S 
ATOM      9  N   UNL     1      51.353  34.940  59.330  0.00  0.00    +0.000 NA
ATOM     10  C   UNL     1      51.302  35.884  58.635  0.00  0.00    +0.000 C 
ENDBRANCH   7   9
ENDBRANCH   1   6
TORSDOF 3
ENDMDL
MODEL 8
REMARK VINA RESULT:      -2.9     12.282     12.487
REMARK  Name = 5350_Sulforaphane.pdbqt.pdb
REMARK  3 active torsions:
REMARK  status: ('A' for Active; 'I' for Inactive)
REMARK    1  A    between atoms: C_1  and  C_2
REMARK    2  A    between atoms: C_3  and  N_5
REMARK    3  A    between atoms: C_7  and  S_8
REMARK                            x       y       z     vdW  Elec       q    Type
REMARK                         _______ _______ _______ _____ _____    ______ ____
ROOT
ATOM      1  C   UNL     1      60.074  37.531  66.188  0.00  0.00    +0.000 C 
ATOM      2  C   UNL     1      59.448  36.320  65.487  0.00  0.00    +0.000 C 
ENDROOT
BRANCH   2   3
ATOM      3  S   UNL     1      58.725  34.931  64.681  0.00  0.00    +0.000 S 
ATOM      4  O   UNL     1      58.208  35.782  63.559  0.00  0.00    +0.000 OA
ATOM      5  C   UNL     1      57.213  35.070  65.572  0.00  0.00    +0.000 C 
ENDBRANCH   2   3
BRANCH   1   6
ATOM      6  C   UNL     1      60.699  38.740  66.890  0.00  0.00    +0.000 C 
ATOM      7  C   UNL     1      61.324  39.951  67.594  0.00  0.00    +0.000 C 
BRANCH   7   9
ATOM      8  S   UNL     1      63.834  40.274  70.000  0.00  0.00    +0.000 S 
ATOM      9  N   UNL     1      61.870  41.015  68.197  0.00  0.00    +0.000 NA
ATOM     10  C   UNL     1      62.700  40.680  68.956  0.00  0.00    +0.000 C 
ENDBRANCH   7   9
ENDBRANCH   1   6
TORSDOF 3
ENDMDL
MODEL 9
REMARK VINA RESULT:      -2.8     24.740     26.061
REMARK  Name = 5350_Sulforaphane.pdbqt.pdb
REMARK  3 active torsions:
REMARK  status: ('A' for Active; 'I' for Inactive)
REMARK    1  A    between atoms: C_1  and  C_2
REMARK    2  A    between atoms: C_3  and  N_5
REMARK    3  A    between atoms: C_7  and  S_8
REMARK                            x       y       z     vdW  Elec       q    Type
REMARK                         _______ _______ _______ _____ _____    ______ ____
ROOT
ATOM      1  C   UNL     1      70.228  56.252  65.812  0.00  0.00    +0.000 C 
ATOM      2  C   UNL     1      70.519  54.813  65.372  0.00  0.00    +0.000 C 
ENDROOT
BRANCH   2   3
ATOM      3  S   UNL     1      70.851  53.159  64.864  0.00  0.00    +0.000 S 
ATOM      4  O   UNL     1      70.506  52.616  66.219  0.00  0.00    +0.000 OA
ATOM      5  C   UNL     1      72.561  53.267  65.270  0.00  0.00    +0.000 C 
ENDBRANCH   2   3
BRANCH   1   6
ATOM      6  C   UNL     1      69.935  57.689  66.254  0.00  0.00    +0.000 C 
ATOM      7  C   UNL     1      69.643  59.127  66.697  0.00  0.00    +0.000 C 
BRANCH   7   9
ATOM      8  S   UNL     1      71.519  61.498  68.444  0.00  0.00    +0.000 S 
ATOM      9  N   UNL     1      69.379  60.380  67.092  0.00  0.00    +0.000 NA
ATOM     10  C   UNL     1      70.297  60.836  67.663  0.00  0.00    +0.000 C 
ENDBRANCH   7   9
ENDBRANCH   1   6
TORSDOF 3
ENDMDL
