MODEL 1
REMARK VINA RESULT:      -4.7      0.000      0.000
REMARK  Name = 5357283_Methylferulate.pdbqt.pdb
REMARK  5 active torsions:
REMARK  status: ('A' for Active; 'I' for Inactive)
REMARK    1  A    between atoms: C_1  and  C_11
REMARK    2  A    between atoms: C_2  and  O_7
REMARK    3  A    between atoms: C_5  and  O_9
REMARK    4  A    between atoms: C_12  and  C_14
REMARK    5  A    between atoms: C_14  and  O_15
REMARK                            x       y       z     vdW  Elec       q    Type
REMARK                         _______ _______ _______ _____ _____    ______ ____
ROOT
ATOM      1  C   UNL     1      62.885  56.771  61.407  0.00  0.00    +0.000 A 
ATOM      2  C   UNL     1      60.528  56.796  60.837  0.00  0.00    +0.000 A 
ATOM      3  C   UNL     1      61.833  57.251  60.628  0.00  0.00    +0.000 A 
ATOM      4  C   UNL     1      62.643  55.829  62.404  0.00  0.00    +0.000 A 
ATOM      5  C   UNL     1      60.300  55.850  61.840  0.00  0.00    +0.000 A 
ATOM      6  C   UNL     1      61.348  55.367  62.622  0.00  0.00    +0.000 A 
ENDROOT
BRANCH   2   7
ATOM      7  O   UNL     1      59.437  57.216  60.115  0.00  0.00    +0.000 OA
ATOM      8  C   UNL     1      59.532  58.510  59.579  0.00  0.00    +0.000 C 
ENDBRANCH   2   7
BRANCH   5   9
ATOM      9  O   UNL     1      59.030  55.391  62.059  0.00  0.00    +0.000 OA
ATOM     10  H   UNL     1      59.006  54.934  62.919  0.00  0.00    +0.000 HD
ENDBRANCH   5   9
BRANCH   1  11
ATOM     11  C   UNL     1      64.210  57.248  61.182  0.00  0.00    +0.000 C 
ATOM     12  C   UNL     1      65.326  57.652  60.991  0.00  0.00    +0.000 C 
BRANCH  12  14
ATOM     13  O   UNL     1      67.113  58.162  59.618  0.00  0.00    +0.000 OA
ATOM     14  C   UNL     1      66.666  58.137  60.757  0.00  0.00    +0.000 C 
BRANCH  14  15
ATOM     15  O   UNL     1      67.265  58.516  61.924  0.00  0.00    +0.000 OA
ATOM     16  C   UNL     1      66.859  59.728  62.508  0.00  0.00    +0.000 C 
ENDBRANCH  14  15
ENDBRANCH  12  14
ENDBRANCH   1  11
TORSDOF 5
ENDMDL
MODEL 2
REMARK VINA RESULT:      -4.4     18.609     20.769
REMARK  Name = 5357283_Methylferulate.pdbqt.pdb
REMARK  5 active torsions:
REMARK  status: ('A' for Active; 'I' for Inactive)
REMARK    1  A    between atoms: C_1  and  C_11
REMARK    2  A    between atoms: C_2  and  O_7
REMARK    3  A    between atoms: C_5  and  O_9
REMARK    4  A    between atoms: C_12  and  C_14
REMARK    5  A    between atoms: C_14  and  O_15
REMARK                            x       y       z     vdW  Elec       q    Type
REMARK                         _______ _______ _______ _____ _____    ______ ____
ROOT
ATOM      1  C   UNL     1      60.427  37.113  66.093  0.00  0.00    +0.000 A 
ATOM      2  C   UNL     1      58.958  35.669  64.813  0.00  0.00    +0.000 A 
ATOM      3  C   UNL     1      59.240  36.910  65.390  0.00  0.00    +0.000 A 
ATOM      4  C   UNL     1      61.346  36.075  66.226  0.00  0.00    +0.000 A 
ATOM      5  C   UNL     1      59.889  34.637  64.955  0.00  0.00    +0.000 A 
ATOM      6  C   UNL     1      61.078  34.834  65.657  0.00  0.00    +0.000 A 
ENDROOT
BRANCH   2   7
ATOM      7  O   UNL     1      57.814  35.386  64.106  0.00  0.00    +0.000 OA
ATOM      8  C   UNL     1      57.300  36.446  63.344  0.00  0.00    +0.000 C 
ENDBRANCH   2   7
BRANCH   5   9
ATOM      9  O   UNL     1      59.632  33.414  64.396  0.00  0.00    +0.000 OA
ATOM     10  H   UNL     1      60.130  32.735  64.888  0.00  0.00    +0.000 HD
ENDBRANCH   5   9
BRANCH   1  11
ATOM     11  C   UNL     1      60.697  38.386  66.676  0.00  0.00    +0.000 C 
ATOM     12  C   UNL     1      60.926  39.459  67.169  0.00  0.00    +0.000 C 
BRANCH  12  14
ATOM     13  O   UNL     1      61.076  41.764  67.097  0.00  0.00    +0.000 OA
ATOM     14  C   UNL     1      61.200  40.745  67.765  0.00  0.00    +0.000 C 
BRANCH  14  15
ATOM     15  O   UNL     1      61.580  40.614  69.070  0.00  0.00    +0.000 OA
ATOM     16  C   UNL     1      62.956  40.614  69.357  0.00  0.00    +0.000 C 
ENDBRANCH  14  15
ENDBRANCH  12  14
ENDBRANCH   1  11
TORSDOF 5
ENDMDL
MODEL 3
REMARK VINA RESULT:      -4.3      8.144      9.862
REMARK  Name = 5357283_Methylferulate.pdbqt.pdb
REMARK  5 active torsions:
REMARK  status: ('A' for Active; 'I' for Inactive)
REMARK    1  A    between atoms: C_1  and  C_11
REMARK    2  A    between atoms: C_2  and  O_7
REMARK    3  A    between atoms: C_5  and  O_9
REMARK    4  A    between atoms: C_12  and  C_14
REMARK    5  A    between atoms: C_14  and  O_15
REMARK                            x       y       z     vdW  Elec       q    Type
REMARK                         _______ _______ _______ _____ _____    ______ ____
ROOT
ATOM      1  C   UNL     1      69.583  58.331  65.641  0.00  0.00    +0.000 A 
ATOM      2  C   UNL     1      69.546  60.320  67.028  0.00  0.00    +0.000 A 
ATOM      3  C   UNL     1      69.894  58.980  66.835  0.00  0.00    +0.000 A 
ATOM      4  C   UNL     1      68.920  59.016  64.625  0.00  0.00    +0.000 A 
ATOM      5  C   UNL     1      68.880  60.994  66.001  0.00  0.00    +0.000 A 
ATOM      6  C   UNL     1      68.567  60.350  64.805  0.00  0.00    +0.000 A 
ENDROOT
BRANCH   2   7
ATOM      7  O   UNL     1      69.814  61.032  68.172  0.00  0.00    +0.000 OA
ATOM      8  C   UNL     1      71.173  61.282  68.420  0.00  0.00    +0.000 C 
ENDBRANCH   2   7
BRANCH   5   9
ATOM      9  O   UNL     1      68.532  62.307  66.170  0.00  0.00    +0.000 OA
ATOM     10  H   UNL     1      68.755  62.797  65.358  0.00  0.00    +0.000 HD
ENDBRANCH   5   9
BRANCH   1  11
ATOM     11  C   UNL     1      69.945  56.963  65.461  0.00  0.00    +0.000 C 
ATOM     12  C   UNL     1      70.250  55.810  65.309  0.00  0.00    +0.000 C 
BRANCH  12  14
ATOM     13  O   UNL     1      70.118  53.784  64.205  0.00  0.00    +0.000 OA
ATOM     14  C   UNL     1      70.612  54.424  65.124  0.00  0.00    +0.000 C 
BRANCH  14  15
ATOM     15  O   UNL     1      71.509  54.018  66.069  0.00  0.00    +0.000 OA
ATOM     16  C   UNL     1      71.579  52.645  66.364  0.00  0.00    +0.000 C 
ENDBRANCH  14  15
ENDBRANCH  12  14
ENDBRANCH   1  11
TORSDOF 5
ENDMDL
MODEL 4
REMARK VINA RESULT:      -4.3     24.290     25.817
REMARK  Name = 5357283_Methylferulate.pdbqt.pdb
REMARK  5 active torsions:
REMARK  status: ('A' for Active; 'I' for Inactive)
REMARK    1  A    between atoms: C_1  and  C_11
REMARK    2  A    between atoms: C_2  and  O_7
REMARK    3  A    between atoms: C_5  and  O_9
REMARK    4  A    between atoms: C_12  and  C_14
REMARK    5  A    between atoms: C_14  and  O_15
REMARK                            x       y       z     vdW  Elec       q    Type
REMARK                         _______ _______ _______ _____ _____    ______ ____
ROOT
ATOM      1  C   UNL     1      50.826  35.654  59.057  0.00  0.00    +0.000 A 
ATOM      2  C   UNL     1      51.775  34.180  57.382  0.00  0.00    +0.000 A 
ATOM      3  C   UNL     1      51.129  34.370  58.607  0.00  0.00    +0.000 A 
ATOM      4  C   UNL     1      51.165  36.763  58.286  0.00  0.00    +0.000 A 
ATOM      5  C   UNL     1      52.110  35.302  56.619  0.00  0.00    +0.000 A 
ATOM      6  C   UNL     1      51.808  36.588  57.065  0.00  0.00    +0.000 A 
ENDROOT
BRANCH   2   7
ATOM      7  O   UNL     1      52.110  32.951  56.866  0.00  0.00    +0.000 OA
ATOM      8  C   UNL     1      53.157  32.287  57.523  0.00  0.00    +0.000 C 
ENDBRANCH   2   7
BRANCH   5   9
ATOM      9  O   UNL     1      52.741  35.137  55.416  0.00  0.00    +0.000 OA
ATOM     10  H   UNL     1      53.704  35.112  55.570  0.00  0.00    +0.000 HD
ENDBRANCH   5   9
BRANCH   1  11
ATOM     11  C   UNL     1      50.168  35.829  60.310  0.00  0.00    +0.000 C 
ATOM     12  C   UNL     1      49.614  35.978  61.367  0.00  0.00    +0.000 C 
BRANCH  12  14
ATOM     13  O   UNL     1      49.303  35.494  63.605  0.00  0.00    +0.000 OA
ATOM     14  C   UNL     1      48.952  36.157  62.638  0.00  0.00    +0.000 C 
BRANCH  14  15
ATOM     15  O   UNL     1      47.971  37.103  62.555  0.00  0.00    +0.000 OA
ATOM     16  C   UNL     1      46.874  36.841  61.716  0.00  0.00    +0.000 C 
ENDBRANCH  14  15
ENDBRANCH  12  14
ENDBRANCH   1  11
TORSDOF 5
ENDMDL
MODEL 5
REMARK VINA RESULT:      -4.3     19.745     20.694
REMARK  Name = 5357283_Methylferulate.pdbqt.pdb
REMARK  5 active torsions:
REMARK  status: ('A' for Active; 'I' for Inactive)
REMARK    1  A    between atoms: C_1  and  C_11
REMARK    2  A    between atoms: C_2  and  O_7
REMARK    3  A    between atoms: C_5  and  O_9
REMARK    4  A    between atoms: C_12  and  C_14
REMARK    5  A    between atoms: C_14  and  O_15
REMARK                            x       y       z     vdW  Elec       q    Type
REMARK                         _______ _______ _______ _____ _____    ______ ____
ROOT
ATOM      1  C   UNL     1      63.328  37.257  55.254  0.00  0.00    +0.000 A 
ATOM      2  C   UNL     1      61.677  39.016  55.505  0.00  0.00    +0.000 A 
ATOM      3  C   UNL     1      62.866  38.537  54.949  0.00  0.00    +0.000 A 
ATOM      4  C   UNL     1      62.603  36.442  56.120  0.00  0.00    +0.000 A 
ATOM      5  C   UNL     1      60.961  38.187  56.372  0.00  0.00    +0.000 A 
ATOM      6  C   UNL     1      61.417  36.906  56.681  0.00  0.00    +0.000 A 
ENDROOT
BRANCH   2   7
ATOM      7  O   UNL     1      61.153  40.262  55.257  0.00  0.00    +0.000 OA
ATOM      8  C   UNL     1      62.072  41.322  55.307  0.00  0.00    +0.000 C 
ENDBRANCH   2   7
BRANCH   5   9
ATOM      9  O   UNL     1      59.793  38.637  56.926  0.00  0.00    +0.000 OA
ATOM     10  H   UNL     1      59.998  39.370  57.535  0.00  0.00    +0.000 HD
ENDBRANCH   5   9
BRANCH   1  11
ATOM     11  C   UNL     1      64.544  36.786  54.679  0.00  0.00    +0.000 C 
ATOM     12  C   UNL     1      65.570  36.389  54.193  0.00  0.00    +0.000 C 
BRANCH  12  14
ATOM     13  O   UNL     1      66.817  34.848  53.007  0.00  0.00    +0.000 OA
ATOM     14  C   UNL     1      66.801  35.915  53.605  0.00  0.00    +0.000 C 
BRANCH  14  15
ATOM     15  O   UNL     1      67.823  36.794  53.824  0.00  0.00    +0.000 OA
ATOM     16  C   UNL     1      68.200  37.046  55.155  0.00  0.00    +0.000 C 
ENDBRANCH  14  15
ENDBRANCH  12  14
ENDBRANCH   1  11
TORSDOF 5
ENDMDL
MODEL 6
REMARK VINA RESULT:      -4.2      7.606      8.891
REMARK  Name = 5357283_Methylferulate.pdbqt.pdb
REMARK  5 active torsions:
REMARK  status: ('A' for Active; 'I' for Inactive)
REMARK    1  A    between atoms: C_1  and  C_11
REMARK    2  A    between atoms: C_2  and  O_7
REMARK    3  A    between atoms: C_5  and  O_9
REMARK    4  A    between atoms: C_12  and  C_14
REMARK    5  A    between atoms: C_14  and  O_15
REMARK                            x       y       z     vdW  Elec       q    Type
REMARK                         _______ _______ _______ _____ _____    ______ ____
ROOT
ATOM      1  C   UNL     1      69.605  58.355  65.604  0.00  0.00    +0.000 A 
ATOM      2  C   UNL     1      69.869  56.288  64.363  0.00  0.00    +0.000 A 
ATOM      3  C   UNL     1      69.513  57.639  64.411  0.00  0.00    +0.000 A 
ATOM      4  C   UNL     1      70.054  57.727  66.763  0.00  0.00    +0.000 A 
ATOM      5  C   UNL     1      70.318  55.671  65.534  0.00  0.00    +0.000 A 
ATOM      6  C   UNL     1      70.412  56.382  66.729  0.00  0.00    +0.000 A 
ENDROOT
BRANCH   2   7
ATOM      7  O   UNL     1      69.809  55.512  63.231  0.00  0.00    +0.000 OA
ATOM      8  C   UNL     1      70.681  55.887  62.197  0.00  0.00    +0.000 C 
ENDBRANCH   2   7
BRANCH   5   9
ATOM      9  O   UNL     1      70.673  54.350  65.507  0.00  0.00    +0.000 OA
ATOM     10  H   UNL     1      69.918  53.817  65.819  0.00  0.00    +0.000 HD
ENDBRANCH   5   9
BRANCH   1  11
ATOM     11  C   UNL     1      69.236  59.732  65.635  0.00  0.00    +0.000 C 
ATOM     12  C   UNL     1      68.927  60.894  65.662  0.00  0.00    +0.000 C 
BRANCH  12  14
ATOM     13  O   UNL     1      69.427  63.149  65.723  0.00  0.00    +0.000 OA
ATOM     14  C   UNL     1      68.556  62.289  65.698  0.00  0.00    +0.000 C 
BRANCH  14  15
ATOM     15  O   UNL     1      67.199  62.440  65.698  0.00  0.00    +0.000 OA
ATOM     16  C   UNL     1      66.495  62.063  64.542  0.00  0.00    +0.000 C 
ENDBRANCH  14  15
ENDBRANCH  12  14
ENDBRANCH   1  11
TORSDOF 5
ENDMDL
MODEL 7
REMARK VINA RESULT:      -4.2     12.124     13.866
REMARK  Name = 5357283_Methylferulate.pdbqt.pdb
REMARK  5 active torsions:
REMARK  status: ('A' for Active; 'I' for Inactive)
REMARK    1  A    between atoms: C_1  and  C_11
REMARK    2  A    between atoms: C_2  and  O_7
REMARK    3  A    between atoms: C_5  and  O_9
REMARK    4  A    between atoms: C_12  and  C_14
REMARK    5  A    between atoms: C_14  and  O_15
REMARK                            x       y       z     vdW  Elec       q    Type
REMARK                         _______ _______ _______ _____ _____    ______ ____
ROOT
ATOM      1  C   UNL     1      56.843  65.367  69.249  0.00  0.00    +0.000 A 
ATOM      2  C   UNL     1      58.829  66.544  69.992  0.00  0.00    +0.000 A 
ATOM      3  C   UNL     1      58.200  65.656  69.115  0.00  0.00    +0.000 A 
ATOM      4  C   UNL     1      56.099  65.965  70.264  0.00  0.00    +0.000 A 
ATOM      5  C   UNL     1      58.070  67.136  71.004  0.00  0.00    +0.000 A 
ATOM      6  C   UNL     1      56.712  66.852  71.144  0.00  0.00    +0.000 A 
ENDROOT
BRANCH   2   7
ATOM      7  O   UNL     1      60.159  66.882  69.928  0.00  0.00    +0.000 OA
ATOM      8  C   UNL     1      61.040  65.818  69.677  0.00  0.00    +0.000 C 
ENDBRANCH   2   7
BRANCH   5   9
ATOM      9  O   UNL     1      58.667  68.010  71.872  0.00  0.00    +0.000 OA
ATOM     10  H   UNL     1      59.442  68.407  71.433  0.00  0.00    +0.000 HD
ENDBRANCH   5   9
BRANCH   1  11
ATOM     11  C   UNL     1      56.218  64.457  68.347  0.00  0.00    +0.000 C 
ATOM     12  C   UNL     1      55.691  63.689  67.587  0.00  0.00    +0.000 C 
BRANCH  12  14
ATOM     13  O   UNL     1      54.494  63.185  65.675  0.00  0.00    +0.000 OA
ATOM     14  C   UNL     1      55.062  62.763  66.674  0.00  0.00    +0.000 C 
BRANCH  14  15
ATOM     15  O   UNL     1      55.209  61.474  67.099  0.00  0.00    +0.000 OA
ATOM     16  C   UNL     1      54.445  61.053  68.201  0.00  0.00    +0.000 C 
ENDBRANCH  14  15
ENDBRANCH  12  14
ENDBRANCH   1  11
TORSDOF 5
ENDMDL
MODEL 8
REMARK VINA RESULT:      -4.1     23.399     24.687
REMARK  Name = 5357283_Methylferulate.pdbqt.pdb
REMARK  5 active torsions:
REMARK  status: ('A' for Active; 'I' for Inactive)
REMARK    1  A    between atoms: C_1  and  C_11
REMARK    2  A    between atoms: C_2  and  O_7
REMARK    3  A    between atoms: C_5  and  O_9
REMARK    4  A    between atoms: C_12  and  C_14
REMARK    5  A    between atoms: C_14  and  O_15
REMARK                            x       y       z     vdW  Elec       q    Type
REMARK                         _______ _______ _______ _____ _____    ______ ____
ROOT
ATOM      1  C   UNL     1      52.502  35.364  59.556  0.00  0.00    +0.000 A 
ATOM      2  C   UNL     1      52.323  35.555  57.145  0.00  0.00    +0.000 A 
ATOM      3  C   UNL     1      52.899  34.973  58.278  0.00  0.00    +0.000 A 
ATOM      4  C   UNL     1      51.524  36.342  59.715  0.00  0.00    +0.000 A 
ATOM      5  C   UNL     1      51.342  36.535  57.320  0.00  0.00    +0.000 A 
ATOM      6  C   UNL     1      50.942  36.929  58.596  0.00  0.00    +0.000 A 
ENDROOT
BRANCH   2   7
ATOM      7  O   UNL     1      52.656  35.228  55.853  0.00  0.00    +0.000 OA
ATOM      8  C   UNL     1      52.863  33.861  55.612  0.00  0.00    +0.000 C 
ENDBRANCH   2   7
BRANCH   5   9
ATOM      9  O   UNL     1      50.765  37.116  56.224  0.00  0.00    +0.000 OA
ATOM     10  H   UNL     1      49.987  37.627  56.514  0.00  0.00    +0.000 HD
ENDBRANCH   5   9
BRANCH   1  11
ATOM     11  C   UNL     1      53.102  34.760  60.700  0.00  0.00    +0.000 C 
ATOM     12  C   UNL     1      53.609  34.253  61.665  0.00  0.00    +0.000 C 
BRANCH  12  14
ATOM     13  O   UNL     1      53.712  32.653  63.330  0.00  0.00    +0.000 OA
ATOM     14  C   UNL     1      54.221  33.644  62.823  0.00  0.00    +0.000 C 
BRANCH  14  15
ATOM     15  O   UNL     1      55.350  34.316  63.195  0.00  0.00    +0.000 OA
ATOM     16  C   UNL     1      55.291  35.719  63.254  0.00  0.00    +0.000 C 
ENDBRANCH  14  15
ENDBRANCH  12  14
ENDBRANCH   1  11
TORSDOF 5
ENDMDL
MODEL 9
REMARK VINA RESULT:      -4.1     19.942     21.442
REMARK  Name = 5357283_Methylferulate.pdbqt.pdb
REMARK  5 active torsions:
REMARK  status: ('A' for Active; 'I' for Inactive)
REMARK    1  A    between atoms: C_1  and  C_11
REMARK    2  A    between atoms: C_2  and  O_7
REMARK    3  A    between atoms: C_5  and  O_9
REMARK    4  A    between atoms: C_12  and  C_14
REMARK    5  A    between atoms: C_14  and  O_15
REMARK                            x       y       z     vdW  Elec       q    Type
REMARK                         _______ _______ _______ _____ _____    ______ ____
ROOT
ATOM      1  C   UNL     1      62.037  38.314  53.936  0.00  0.00    +0.000 A 
ATOM      2  C   UNL     1      63.519  37.203  55.502  0.00  0.00    +0.000 A 
ATOM      3  C   UNL     1      63.078  37.422  54.194  0.00  0.00    +0.000 A 
ATOM      4  C   UNL     1      61.426  38.996  54.985  0.00  0.00    +0.000 A 
ATOM      5  C   UNL     1      62.896  37.895  56.544  0.00  0.00    +0.000 A 
ATOM      6  C   UNL     1      61.855  38.787  56.292  0.00  0.00    +0.000 A 
ENDROOT
BRANCH   2   7
ATOM      7  O   UNL     1      64.536  36.343  55.842  0.00  0.00    +0.000 OA
ATOM      8  C   UNL     1      64.208  34.979  55.806  0.00  0.00    +0.000 C 
ENDBRANCH   2   7
BRANCH   5   9
ATOM      9  O   UNL     1      63.315  37.695  57.832  0.00  0.00    +0.000 OA
ATOM     10  H   UNL     1      64.006  37.008  57.833  0.00  0.00    +0.000 HD
ENDBRANCH   5   9
BRANCH   1  11
ATOM     11  C   UNL     1      61.599  38.524  52.596  0.00  0.00    +0.000 C 
ATOM     12  C   UNL     1      61.230  38.703  51.465  0.00  0.00    +0.000 C 
BRANCH  12  14
ATOM     13  O   UNL     1      59.640  39.303  49.900  0.00  0.00    +0.000 OA
ATOM     14  C   UNL     1      60.784  38.921  50.109  0.00  0.00    +0.000 C 
BRANCH  14  15
ATOM     15  O   UNL     1      61.776  38.646  49.212  0.00  0.00    +0.000 OA
ATOM     16  C   UNL     1      62.233  37.320  49.121  0.00  0.00    +0.000 C 
ENDBRANCH  14  15
ENDBRANCH  12  14
ENDBRANCH   1  11
TORSDOF 5
ENDMDL
