MODEL 1
REMARK VINA RESULT:      -6.6      0.000      0.000
REMARK  Name = 5358691_Yuanhuacine.pdbqt.pdb
REMARK  12 active torsions:
REMARK  status: ('A' for Active; 'I' for Inactive)
REMARK    1  A    between atoms: C_9  and  C_48
REMARK    2  A    between atoms: C_13  and  C_23
REMARK    3  A    between atoms: C_14  and  O_26
REMARK    4  A    between atoms: C_15  and  O_28
REMARK    5  A    between atoms: C_16  and  O_39
REMARK    6  A    between atoms: C_17  and  C_30
REMARK    7  A    between atoms: C_31  and  C_32
REMARK    8  A    between atoms: C_33  and  C_34
REMARK    9  A    between atoms: C_35  and  C_36
REMARK   10  A    between atoms: O_39  and  C_41
REMARK   11  A    between atoms: C_41  and  C_42
REMARK   12  A    between atoms: C_48  and  O_49
REMARK                            x       y       z     vdW  Elec       q    Type
REMARK                         _______ _______ _______ _____ _____    ______ ____
ROOT
ATOM      1  O   UNL     1      48.734  35.974  62.403  0.00  0.00    +0.000 OA
ATOM      2  O   UNL     1      51.703  34.129  62.193  0.00  0.00    +0.000 OA
ATOM      3  O   UNL     1      51.864  36.284  61.212  0.00  0.00    +0.000 OA
ATOM      4  O   UNL     1      53.213  34.605  60.426  0.00  0.00    +0.000 OA
ATOM      5  O   UNL     1      46.611  31.237  62.823  0.00  0.00    +0.000 OA
ATOM      6  C   UNL     1      50.031  35.044  60.684  0.00  0.00    +0.000 C 
ATOM      7  C   UNL     1      50.555  33.771  61.363  0.00  0.00    +0.000 C 
ATOM      8  C   UNL     1      48.854  35.781  61.051  0.00  0.00    +0.000 C 
ATOM      9  C   UNL     1      47.587  35.464  61.710  0.00  0.00    +0.000 C 
ATOM     10  C   UNL     1      51.207  35.718  60.121  0.00  0.00    +0.000 C 
ATOM     11  C   UNL     1      49.534  33.151  62.267  0.00  0.00    +0.000 C 
ATOM     12  C   UNL     1      51.033  32.779  60.260  0.00  0.00    +0.000 C 
ATOM     13  C   UNL     1      52.228  34.823  59.377  0.00  0.00    +0.000 C 
ATOM     14  C   UNL     1      48.123  32.884  61.792  0.00  0.00    +0.000 C 
ATOM     15  C   UNL     1      47.174  34.044  61.874  0.00  0.00    +0.000 C 
ATOM     16  C   UNL     1      51.673  33.431  59.129  0.00  0.00    +0.000 C 
ATOM     17  C   UNL     1      52.588  35.112  61.603  0.00  0.00    +0.000 C 
ATOM     18  C   UNL     1      49.783  32.347  63.409  0.00  0.00    +0.000 C 
ATOM     19  C   UNL     1      51.095  31.256  60.379  0.00  0.00    +0.000 C 
ATOM     20  C   UNL     1      47.713  31.779  62.821  0.00  0.00    +0.000 C 
ATOM     21  C   UNL     1      48.848  31.534  63.771  0.00  0.00    +0.000 C 
ATOM     22  C   UNL     1      48.742  30.944  65.139  0.00  0.00    +0.000 C 
ENDROOT
BRANCH  13  23
ATOM     23  C   UNL     1      52.800  35.581  58.156  0.00  0.00    +0.000 C 
ATOM     24  C   UNL     1      51.944  36.215  57.061  0.00  0.00    +0.000 C 
ATOM     25  C   UNL     1      54.094  35.518  57.780  0.00  0.00    +0.000 C 
ENDBRANCH  13  23
BRANCH  14  26
ATOM     26  O   UNL     1      48.114  32.408  60.463  0.00  0.00    +0.000 OA
ATOM     27  H   UNL     1      47.341  32.808  60.017  0.00  0.00    +0.000 HD
ENDBRANCH  14  26
BRANCH  15  28
ATOM     28  O   UNL     1      45.811  33.740  61.924  0.00  0.00    +0.000 OA
ATOM     29  H   UNL     1      45.597  32.854  62.286  0.00  0.00    +0.000 HD
ENDBRANCH  15  28
BRANCH  17  30
ATOM     30  C   UNL     1      53.612  35.469  62.580  0.00  0.00    +0.000 C 
ATOM     31  C   UNL     1      54.453  35.764  63.383  0.00  0.00    +0.000 C 
BRANCH  31  32
ATOM     32  C   UNL     1      55.525  36.140  64.410  0.00  0.00    +0.000 C 
ATOM     33  C   UNL     1      56.366  36.435  65.214  0.00  0.00    +0.000 C 
BRANCH  33  34
ATOM     34  C   UNL     1      57.441  36.810  66.239  0.00  0.00    +0.000 C 
ATOM     35  C   UNL     1      58.516  37.185  67.262  0.00  0.00    +0.000 C 
BRANCH  35  36
ATOM     36  C   UNL     1      59.592  37.562  68.287  0.00  0.00    +0.000 C 
ATOM     37  C   UNL     1      60.666  37.939  69.311  0.00  0.00    +0.000 C 
ATOM     38  C   UNL     1      61.739  38.316  70.337  0.00  0.00    +0.000 C 
ENDBRANCH  35  36
ENDBRANCH  33  34
ENDBRANCH  31  32
ENDBRANCH  17  30
BRANCH  16  39
ATOM     39  O   UNL     1      51.771  32.717  57.923  0.00  0.00    +0.000 OA
BRANCH  39  41
ATOM     40  O   UNL     1      53.700  31.605  58.493  0.00  0.00    +0.000 OA
ATOM     41  C   UNL     1      53.009  32.193  57.679  0.00  0.00    +0.000 C 
BRANCH  41  42
ATOM     42  C   UNL     1      53.420  32.476  56.292  0.00  0.00    +0.000 A 
ATOM     43  C   UNL     1      52.587  33.163  55.409  0.00  0.00    +0.000 A 
ATOM     44  C   UNL     1      54.677  32.040  55.874  0.00  0.00    +0.000 A 
ATOM     45  C   UNL     1      53.013  33.413  54.107  0.00  0.00    +0.000 A 
ATOM     46  C   UNL     1      55.100  32.292  54.572  0.00  0.00    +0.000 A 
ATOM     47  C   UNL     1      54.268  32.978  53.689  0.00  0.00    +0.000 A 
ENDBRANCH  41  42
ENDBRANCH  39  41
ENDBRANCH  16  39
BRANCH   9  48
ATOM     48  C   UNL     1      46.536  36.473  61.693  0.00  0.00    +0.000 C 
BRANCH  48  49
ATOM     49  O   UNL     1      45.574  37.391  61.681  0.00  0.00    +0.000 OA
ATOM     50  H   UNL     1      45.846  38.176  62.189  0.00  0.00    +0.000 HD
ENDBRANCH  48  49
ENDBRANCH   9  48
TORSDOF 12
ENDMDL
MODEL 2
REMARK VINA RESULT:      -6.3      2.004      2.380
REMARK  Name = 5358691_Yuanhuacine.pdbqt.pdb
REMARK  12 active torsions:
REMARK  status: ('A' for Active; 'I' for Inactive)
REMARK    1  A    between atoms: C_9  and  C_48
REMARK    2  A    between atoms: C_13  and  C_23
REMARK    3  A    between atoms: C_14  and  O_26
REMARK    4  A    between atoms: C_15  and  O_28
REMARK    5  A    between atoms: C_16  and  O_39
REMARK    6  A    between atoms: C_17  and  C_30
REMARK    7  A    between atoms: C_31  and  C_32
REMARK    8  A    between atoms: C_33  and  C_34
REMARK    9  A    between atoms: C_35  and  C_36
REMARK   10  A    between atoms: O_39  and  C_41
REMARK   11  A    between atoms: C_41  and  C_42
REMARK   12  A    between atoms: C_48  and  O_49
REMARK                            x       y       z     vdW  Elec       q    Type
REMARK                         _______ _______ _______ _____ _____    ______ ____
ROOT
ATOM      1  O   UNL     1      49.049  36.236  62.216  0.00  0.00    +0.000 OA
ATOM      2  O   UNL     1      51.780  34.048  62.096  0.00  0.00    +0.000 OA
ATOM      3  O   UNL     1      52.001  35.908  60.638  0.00  0.00    +0.000 OA
ATOM      4  O   UNL     1      53.071  33.950  60.107  0.00  0.00    +0.000 OA
ATOM      5  O   UNL     1      46.581  31.988  63.942  0.00  0.00    +0.000 OA
ATOM      6  C   UNL     1      50.008  34.811  60.618  0.00  0.00    +0.000 C 
ATOM      7  C   UNL     1      50.502  33.660  61.506  0.00  0.00    +0.000 C 
ATOM      8  C   UNL     1      48.965  35.744  60.938  0.00  0.00    +0.000 C 
ATOM      9  C   UNL     1      47.776  35.730  61.792  0.00  0.00    +0.000 C 
ATOM     10  C   UNL     1      51.152  35.203  59.786  0.00  0.00    +0.000 C 
ATOM     11  C   UNL     1      49.562  33.375  62.637  0.00  0.00    +0.000 C 
ATOM     12  C   UNL     1      50.732  32.405  60.610  0.00  0.00    +0.000 C 
ATOM     13  C   UNL     1      51.975  34.054  59.155  0.00  0.00    +0.000 C 
ATOM     14  C   UNL     1      48.081  33.183  62.398  0.00  0.00    +0.000 C 
ATOM     15  C   UNL     1      47.262  34.438  62.321  0.00  0.00    +0.000 C 
ATOM     16  C   UNL     1      51.268  32.718  59.295  0.00  0.00    +0.000 C 
ATOM     17  C   UNL     1      52.662  34.769  61.201  0.00  0.00    +0.000 C 
ATOM     18  C   UNL     1      49.892  32.810  63.896  0.00  0.00    +0.000 C 
ATOM     19  C   UNL     1      50.670  30.947  61.066  0.00  0.00    +0.000 C 
ATOM     20  C   UNL     1      47.717  32.382  63.692  0.00  0.00    +0.000 C 
ATOM     21  C   UNL     1      48.944  32.212  64.537  0.00  0.00    +0.000 C 
ATOM     22  C   UNL     1      48.974  31.947  66.007  0.00  0.00    +0.000 C 
ENDROOT
BRANCH  13  23
ATOM     23  C   UNL     1      52.442  34.458  57.737  0.00  0.00    +0.000 C 
ATOM     24  C   UNL     1      53.541  33.737  56.958  0.00  0.00    +0.000 C 
ATOM     25  C   UNL     1      52.138  35.640  57.161  0.00  0.00    +0.000 C 
ENDBRANCH  13  23
BRANCH  14  26
ATOM     26  O   UNL     1      47.846  32.437  61.223  0.00  0.00    +0.000 OA
ATOM     27  H   UNL     1      47.630  33.074  60.513  0.00  0.00    +0.000 HD
ENDBRANCH  14  26
BRANCH  15  28
ATOM     28  O   UNL     1      45.897  34.317  62.593  0.00  0.00    +0.000 OA
ATOM     29  H   UNL     1      45.651  33.541  63.140  0.00  0.00    +0.000 HD
ENDBRANCH  15  28
BRANCH  17  30
ATOM     30  C   UNL     1      53.839  35.202  61.948  0.00  0.00    +0.000 C 
ATOM     31  C   UNL     1      54.807  35.556  62.563  0.00  0.00    +0.000 C 
BRANCH  31  32
ATOM     32  C   UNL     1      56.043  36.007  63.346  0.00  0.00    +0.000 C 
ATOM     33  C   UNL     1      57.013  36.359  63.960  0.00  0.00    +0.000 C 
BRANCH  33  34
ATOM     34  C   UNL     1      58.249  36.806  64.745  0.00  0.00    +0.000 C 
ATOM     35  C   UNL     1      59.485  37.253  65.530  0.00  0.00    +0.000 C 
BRANCH  35  36
ATOM     36  C   UNL     1      60.722  37.700  66.317  0.00  0.00    +0.000 C 
ATOM     37  C   UNL     1      61.958  38.145  67.105  0.00  0.00    +0.000 C 
ATOM     38  C   UNL     1      63.194  38.590  67.893  0.00  0.00    +0.000 C 
ENDBRANCH  35  36
ENDBRANCH  33  34
ENDBRANCH  31  32
ENDBRANCH  17  30
BRANCH  16  39
ATOM     39  O   UNL     1      51.134  31.755  58.281  0.00  0.00    +0.000 OA
BRANCH  39  41
ATOM     40  O   UNL     1      48.883  32.216  58.215  0.00  0.00    +0.000 OA
ATOM     41  C   UNL     1      49.860  31.608  57.810  0.00  0.00    +0.000 C 
BRANCH  41  42
ATOM     42  C   UNL     1      49.817  30.570  56.764  0.00  0.00    +0.000 A 
ATOM     43  C   UNL     1      48.786  29.633  56.709  0.00  0.00    +0.000 A 
ATOM     44  C   UNL     1      50.840  30.544  55.818  0.00  0.00    +0.000 A 
ATOM     45  C   UNL     1      48.779  28.668  55.703  0.00  0.00    +0.000 A 
ATOM     46  C   UNL     1      50.831  29.580  54.814  0.00  0.00    +0.000 A 
ATOM     47  C   UNL     1      49.801  28.643  54.758  0.00  0.00    +0.000 A 
ENDBRANCH  41  42
ENDBRANCH  39  41
ENDBRANCH  16  39
BRANCH   9  48
ATOM     48  C   UNL     1      46.830  36.830  61.664  0.00  0.00    +0.000 C 
BRANCH  48  49
ATOM     49  O   UNL     1      45.970  37.838  61.544  0.00  0.00    +0.000 OA
ATOM     50  H   UNL     1      45.274  37.774  62.221  0.00  0.00    +0.000 HD
ENDBRANCH  48  49
ENDBRANCH   9  48
TORSDOF 12
ENDMDL
MODEL 3
REMARK VINA RESULT:      -6.3     18.808     22.728
REMARK  Name = 5358691_Yuanhuacine.pdbqt.pdb
REMARK  12 active torsions:
REMARK  status: ('A' for Active; 'I' for Inactive)
REMARK    1  A    between atoms: C_9  and  C_48
REMARK    2  A    between atoms: C_13  and  C_23
REMARK    3  A    between atoms: C_14  and  O_26
REMARK    4  A    between atoms: C_15  and  O_28
REMARK    5  A    between atoms: C_16  and  O_39
REMARK    6  A    between atoms: C_17  and  C_30
REMARK    7  A    between atoms: C_31  and  C_32
REMARK    8  A    between atoms: C_33  and  C_34
REMARK    9  A    between atoms: C_35  and  C_36
REMARK   10  A    between atoms: O_39  and  C_41
REMARK   11  A    between atoms: C_41  and  C_42
REMARK   12  A    between atoms: C_48  and  O_49
REMARK                            x       y       z     vdW  Elec       q    Type
REMARK                         _______ _______ _______ _____ _____    ______ ____
ROOT
ATOM      1  O   UNL     1      60.592  54.525  60.959  0.00  0.00    +0.000 OA
ATOM      2  O   UNL     1      59.674  53.395  57.775  0.00  0.00    +0.000 OA
ATOM      3  O   UNL     1      60.202  51.637  59.279  0.00  0.00    +0.000 OA
ATOM      4  O   UNL     1      60.500  51.299  57.031  0.00  0.00    +0.000 OA
ATOM      5  O   UNL     1      61.762  58.872  58.342  0.00  0.00    +0.000 OA
ATOM      6  C   UNL     1      61.646  53.393  59.195  0.00  0.00    +0.000 C 
ATOM      7  C   UNL     1      60.968  54.041  57.979  0.00  0.00    +0.000 C 
ATOM      8  C   UNL     1      61.759  53.960  60.509  0.00  0.00    +0.000 C 
ATOM      9  C   UNL     1      61.784  55.315  61.063  0.00  0.00    +0.000 C 
ATOM     10  C   UNL     1      61.533  51.942  58.999  0.00  0.00    +0.000 C 
ATOM     11  C   UNL     1      60.703  55.500  58.191  0.00  0.00    +0.000 C 
ATOM     12  C   UNL     1      61.852  53.786  56.722  0.00  0.00    +0.000 C 
ATOM     13  C   UNL     1      61.843  51.409  57.580  0.00  0.00    +0.000 C 
ATOM     14  C   UNL     1      61.791  56.433  58.676  0.00  0.00    +0.000 C 
ATOM     15  C   UNL     1      62.000  56.478  60.161  0.00  0.00    +0.000 C 
ATOM     16  C   UNL     1      62.484  52.477  56.710  0.00  0.00    +0.000 C 
ATOM     17  C   UNL     1      59.676  51.962  57.987  0.00  0.00    +0.000 C 
ATOM     18  C   UNL     1      59.681  56.277  57.587  0.00  0.00    +0.000 C 
ATOM     19  C   UNL     1      61.908  54.655  55.465  0.00  0.00    +0.000 C 
ATOM     20  C   UNL     1      61.201  57.793  58.174  0.00  0.00    +0.000 C 
ATOM     21  C   UNL     1      59.882  57.549  57.504  0.00  0.00    +0.000 C 
ATOM     22  C   UNL     1      58.792  58.552  57.310  0.00  0.00    +0.000 C 
ENDROOT
BRANCH  13  23
ATOM     23  C   UNL     1      62.572  50.049  57.676  0.00  0.00    +0.000 C 
ATOM     24  C   UNL     1      62.683  49.052  56.524  0.00  0.00    +0.000 C 
ATOM     25  C   UNL     1      62.932  49.478  58.844  0.00  0.00    +0.000 C 
ENDBRANCH  13  23
BRANCH  14  26
ATOM     26  O   UNL     1      63.030  56.130  58.070  0.00  0.00    +0.000 OA
ATOM     27  H   UNL     1      63.730  56.503  58.642  0.00  0.00    +0.000 HD
ENDBRANCH  14  26
BRANCH  15  28
ATOM     28  O   UNL     1      62.606  57.627  60.677  0.00  0.00    +0.000 OA
ATOM     29  H   UNL     1      61.987  58.351  60.913  0.00  0.00    +0.000 HD
ENDBRANCH  15  28
BRANCH  17  30
ATOM     30  C   UNL     1      58.307  51.467  57.874  0.00  0.00    +0.000 C 
ATOM     31  C   UNL     1      57.182  51.061  57.778  0.00  0.00    +0.000 C 
BRANCH  31  32
ATOM     32  C   UNL     1      55.748  50.540  57.656  0.00  0.00    +0.000 C 
ATOM     33  C   UNL     1      54.623  50.132  57.559  0.00  0.00    +0.000 C 
BRANCH  33  34
ATOM     34  C   UNL     1      53.188  49.609  57.434  0.00  0.00    +0.000 C 
ATOM     35  C   UNL     1      51.755  49.088  57.309  0.00  0.00    +0.000 C 
BRANCH  35  36
ATOM     36  C   UNL     1      50.319  48.567  57.183  0.00  0.00    +0.000 C 
ATOM     37  C   UNL     1      48.885  48.046  57.055  0.00  0.00    +0.000 C 
ATOM     38  C   UNL     1      47.450  47.524  56.927  0.00  0.00    +0.000 C 
ENDBRANCH  35  36
ENDBRANCH  33  34
ENDBRANCH  31  32
ENDBRANCH  17  30
BRANCH  16  39
ATOM     39  O   UNL     1      63.596  52.287  55.872  0.00  0.00    +0.000 OA
BRANCH  39  41
ATOM     40  O   UNL     1      65.207  53.923  55.975  0.00  0.00    +0.000 OA
ATOM     41  C   UNL     1      64.751  52.850  56.334  0.00  0.00    +0.000 C 
BRANCH  41  42
ATOM     42  C   UNL     1      65.404  51.955  57.306  0.00  0.00    +0.000 A 
ATOM     43  C   UNL     1      65.461  52.269  58.664  0.00  0.00    +0.000 A 
ATOM     44  C   UNL     1      65.970  50.771  56.836  0.00  0.00    +0.000 A 
ATOM     45  C   UNL     1      66.085  51.396  59.552  0.00  0.00    +0.000 A 
ATOM     46  C   UNL     1      66.593  49.900  57.726  0.00  0.00    +0.000 A 
ATOM     47  C   UNL     1      66.651  50.213  59.082  0.00  0.00    +0.000 A 
ENDBRANCH  41  42
ENDBRANCH  39  41
ENDBRANCH  16  39
BRANCH   9  48
ATOM     48  C   UNL     1      62.146  55.473  62.465  0.00  0.00    +0.000 C 
BRANCH  48  49
ATOM     49  O   UNL     1      62.483  55.616  63.744  0.00  0.00    +0.000 OA
ATOM     50  H   UNL     1      61.746  55.350  64.322  0.00  0.00    +0.000 HD
ENDBRANCH  48  49
ENDBRANCH   9  48
TORSDOF 12
ENDMDL
MODEL 4
REMARK VINA RESULT:      -6.3     10.496     15.260
REMARK  Name = 5358691_Yuanhuacine.pdbqt.pdb
REMARK  12 active torsions:
REMARK  status: ('A' for Active; 'I' for Inactive)
REMARK    1  A    between atoms: C_9  and  C_48
REMARK    2  A    between atoms: C_13  and  C_23
REMARK    3  A    between atoms: C_14  and  O_26
REMARK    4  A    between atoms: C_15  and  O_28
REMARK    5  A    between atoms: C_16  and  O_39
REMARK    6  A    between atoms: C_17  and  C_30
REMARK    7  A    between atoms: C_31  and  C_32
REMARK    8  A    between atoms: C_33  and  C_34
REMARK    9  A    between atoms: C_35  and  C_36
REMARK   10  A    between atoms: O_39  and  C_41
REMARK   11  A    between atoms: C_41  and  C_42
REMARK   12  A    between atoms: C_48  and  O_49
REMARK                            x       y       z     vdW  Elec       q    Type
REMARK                         _______ _______ _______ _____ _____    ______ ____
ROOT
ATOM      1  O   UNL     1      59.742  35.976  72.000  0.00  0.00    +0.000 OA
ATOM      2  O   UNL     1      60.132  36.389  68.544  0.00  0.00    +0.000 OA
ATOM      3  O   UNL     1      61.937  35.231  69.561  0.00  0.00    +0.000 OA
ATOM      4  O   UNL     1      62.327  36.428  67.645  0.00  0.00    +0.000 OA
ATOM      5  O   UNL     1      56.625  40.112  71.464  0.00  0.00    +0.000 OA
ATOM      6  C   UNL     1      61.219  37.130  70.588  0.00  0.00    +0.000 C 
ATOM      7  C   UNL     1      60.280  37.532  69.442  0.00  0.00    +0.000 C 
ATOM      8  C   UNL     1      60.830  36.809  71.933  0.00  0.00    +0.000 C 
ATOM      9  C   UNL     1      59.711  37.159  72.809  0.00  0.00    +0.000 C 
ATOM     10  C   UNL     1      62.380  36.491  69.958  0.00  0.00    +0.000 C 
ATOM     11  C   UNL     1      58.909  37.888  69.932  0.00  0.00    +0.000 C 
ATOM     12  C   UNL     1      60.936  38.702  68.648  0.00  0.00    +0.000 C 
ATOM     13  C   UNL     1      62.962  37.194  68.707  0.00  0.00    +0.000 C 
ATOM     14  C   UNL     1      58.711  38.867  71.067  0.00  0.00    +0.000 C 
ATOM     15  C   UNL     1      58.821  38.296  72.451  0.00  0.00    +0.000 C 
ATOM     16  C   UNL     1      62.380  38.584  68.526  0.00  0.00    +0.000 C 
ATOM     17  C   UNL     1      61.350  35.638  68.320  0.00  0.00    +0.000 C 
ATOM     18  C   UNL     1      57.693  37.786  69.208  0.00  0.00    +0.000 C 
ATOM     19  C   UNL     1      60.200  39.765  67.834  0.00  0.00    +0.000 C 
ATOM     20  C   UNL     1      57.235  39.296  70.778  0.00  0.00    +0.000 C 
ATOM     21  C   UNL     1      56.722  38.550  69.583  0.00  0.00    +0.000 C 
ATOM     22  C   UNL     1      55.289  38.295  69.250  0.00  0.00    +0.000 C 
ENDROOT
BRANCH  13  23
ATOM     23  C   UNL     1      64.504  37.070  68.704  0.00  0.00    +0.000 C 
ATOM     24  C   UNL     1      65.370  37.178  67.450  0.00  0.00    +0.000 C 
ATOM     25  C   UNL     1      65.214  36.577  69.740  0.00  0.00    +0.000 C 
ENDBRANCH  13  23
BRANCH  14  26
ATOM     26  O   UNL     1      59.613  39.949  70.971  0.00  0.00    +0.000 OA
ATOM     27  H   UNL     1      59.202  40.618  70.388  0.00  0.00    +0.000 HD
ENDBRANCH  14  26
BRANCH  15  28
ATOM     28  O   UNL     1      58.184  39.001  73.476  0.00  0.00    +0.000 OA
ATOM     29  H   UNL     1      57.959  39.931  73.261  0.00  0.00    +0.000 HD
ENDBRANCH  15  28
BRANCH  17  30
ATOM     30  C   UNL     1      61.037  34.462  67.514  0.00  0.00    +0.000 C 
ATOM     31  C   UNL     1      60.781  33.495  66.851  0.00  0.00    +0.000 C 
BRANCH  31  32
ATOM     32  C   UNL     1      60.455  32.261  66.006  0.00  0.00    +0.000 C 
ATOM     33  C   UNL     1      60.200  31.293  65.342  0.00  0.00    +0.000 C 
BRANCH  33  34
ATOM     34  C   UNL     1      59.873  30.060  64.495  0.00  0.00    +0.000 C 
ATOM     35  C   UNL     1      59.545  28.828  63.648  0.00  0.00    +0.000 C 
BRANCH  35  36
ATOM     36  C   UNL     1      59.215  27.594  62.800  0.00  0.00    +0.000 C 
ATOM     37  C   UNL     1      58.885  26.362  61.954  0.00  0.00    +0.000 C 
ATOM     38  C   UNL     1      58.553  25.128  61.107  0.00  0.00    +0.000 C 
ENDBRANCH  35  36
ENDBRANCH  33  34
ENDBRANCH  31  32
ENDBRANCH  17  30
BRANCH  16  39
ATOM     39  O   UNL     1      63.113  39.740  68.208  0.00  0.00    +0.000 OA
BRANCH  39  41
ATOM     40  O   UNL     1      62.576  41.492  69.595  0.00  0.00    +0.000 OA
ATOM     41  C   UNL     1      63.318  40.583  69.262  0.00  0.00    +0.000 C 
BRANCH  41  42
ATOM     42  C   UNL     1      64.596  40.270  69.927  0.00  0.00    +0.000 A 
ATOM     43  C   UNL     1      65.808  40.320  69.239  0.00  0.00    +0.000 A 
ATOM     44  C   UNL     1      64.569  39.921  71.276  0.00  0.00    +0.000 A 
ATOM     45  C   UNL     1      66.995  40.019  69.903  0.00  0.00    +0.000 A 
ATOM     46  C   UNL     1      65.757  39.621  71.937  0.00  0.00    +0.000 A 
ATOM     47  C   UNL     1      66.969  39.670  71.251  0.00  0.00    +0.000 A 
ENDBRANCH  41  42
ENDBRANCH  39  41
ENDBRANCH  16  39
BRANCH   9  48
ATOM     48  C   UNL     1      59.804  36.793  74.216  0.00  0.00    +0.000 C 
BRANCH  48  49
ATOM     49  O   UNL     1      59.890  36.452  75.499  0.00  0.00    +0.000 OA
ATOM     50  H   UNL     1      60.149  37.220  76.038  0.00  0.00    +0.000 HD
ENDBRANCH  48  49
ENDBRANCH   9  48
TORSDOF 12
ENDMDL
MODEL 5
REMARK VINA RESULT:      -6.3     19.657     23.377
REMARK  Name = 5358691_Yuanhuacine.pdbqt.pdb
REMARK  12 active torsions:
REMARK  status: ('A' for Active; 'I' for Inactive)
REMARK    1  A    between atoms: C_9  and  C_48
REMARK    2  A    between atoms: C_13  and  C_23
REMARK    3  A    between atoms: C_14  and  O_26
REMARK    4  A    between atoms: C_15  and  O_28
REMARK    5  A    between atoms: C_16  and  O_39
REMARK    6  A    between atoms: C_17  and  C_30
REMARK    7  A    between atoms: C_31  and  C_32
REMARK    8  A    between atoms: C_33  and  C_34
REMARK    9  A    between atoms: C_35  and  C_36
REMARK   10  A    between atoms: O_39  and  C_41
REMARK   11  A    between atoms: C_41  and  C_42
REMARK   12  A    between atoms: C_48  and  O_49
REMARK                            x       y       z     vdW  Elec       q    Type
REMARK                         _______ _______ _______ _____ _____    ______ ____
ROOT
ATOM      1  O   UNL     1      66.251  54.987  57.357  0.00  0.00    +0.000 OA
ATOM      2  O   UNL     1      66.394  52.601  59.916  0.00  0.00    +0.000 OA
ATOM      3  O   UNL     1      68.413  52.775  58.680  0.00  0.00    +0.000 OA
ATOM      4  O   UNL     1      67.900  50.781  59.690  0.00  0.00    +0.000 OA
ATOM      5  O   UNL     1      61.132  54.108  57.743  0.00  0.00    +0.000 OA
ATOM      6  C   UNL     1      66.479  52.655  57.487  0.00  0.00    +0.000 C 
ATOM      7  C   UNL     1      65.608  52.340  58.712  0.00  0.00    +0.000 C 
ATOM      8  C   UNL     1      66.380  53.818  56.650  0.00  0.00    +0.000 C 
ATOM      9  C   UNL     1      65.319  54.760  56.291  0.00  0.00    +0.000 C 
ATOM     10  C   UNL     1      67.768  51.994  57.723  0.00  0.00    +0.000 C 
ATOM     11  C   UNL     1      64.393  53.213  58.782  0.00  0.00    +0.000 C 
ATOM     12  C   UNL     1      65.237  50.827  58.682  0.00  0.00    +0.000 C 
ATOM     13  C   UNL     1      67.713  50.545  58.266  0.00  0.00    +0.000 C 
ATOM     14  C   UNL     1      63.481  53.385  57.588  0.00  0.00    +0.000 C 
ATOM     15  C   UNL     1      63.900  54.421  56.587  0.00  0.00    +0.000 C 
ATOM     16  C   UNL     1      66.308  49.974  58.193  0.00  0.00    +0.000 C 
ATOM     17  C   UNL     1      67.782  52.196  59.828  0.00  0.00    +0.000 C 
ATOM     18  C   UNL     1      63.681  53.591  59.950  0.00  0.00    +0.000 C 
ATOM     19  C   UNL     1      64.001  50.187  59.315  0.00  0.00    +0.000 C 
ATOM     20  C   UNL     1      62.180  53.846  58.326  0.00  0.00    +0.000 C 
ATOM     21  C   UNL     1      62.444  53.925  59.800  0.00  0.00    +0.000 C 
ATOM     22  C   UNL     1      61.677  54.738  60.791  0.00  0.00    +0.000 C 
ENDROOT
BRANCH  13  23
ATOM     23  C   UNL     1      68.849  49.704  57.637  0.00  0.00    +0.000 C 
ATOM     24  C   UNL     1      69.848  48.875  58.442  0.00  0.00    +0.000 C 
ATOM     25  C   UNL     1      69.252  49.836  56.356  0.00  0.00    +0.000 C 
ENDBRANCH  13  23
BRANCH  14  26
ATOM     26  O   UNL     1      63.302  52.164  56.901  0.00  0.00    +0.000 OA
ATOM     27  H   UNL     1      63.579  51.448  57.507  0.00  0.00    +0.000 HD
ENDBRANCH  14  26
BRANCH  15  28
ATOM     28  O   UNL     1      62.898  54.952  55.771  0.00  0.00    +0.000 OA
ATOM     29  H   UNL     1      62.523  55.806  56.077  0.00  0.00    +0.000 HD
ENDBRANCH  15  28
BRANCH  17  30
ATOM     30  C   UNL     1      68.475  52.624  61.039  0.00  0.00    +0.000 C 
ATOM     31  C   UNL     1      69.046  52.976  62.034  0.00  0.00    +0.000 C 
BRANCH  31  32
ATOM     32  C   UNL     1      69.775  53.427  63.303  0.00  0.00    +0.000 C 
ATOM     33  C   UNL     1      70.346  53.780  64.298  0.00  0.00    +0.000 C 
BRANCH  33  34
ATOM     34  C   UNL     1      71.072  54.232  65.569  0.00  0.00    +0.000 C 
ATOM     35  C   UNL     1      71.799  54.682  66.838  0.00  0.00    +0.000 C 
BRANCH  35  36
ATOM     36  C   UNL     1      72.527  55.135  68.109  0.00  0.00    +0.000 C 
ATOM     37  C   UNL     1      73.254  55.586  69.378  0.00  0.00    +0.000 C 
ATOM     38  C   UNL     1      73.983  56.036  70.649  0.00  0.00    +0.000 C 
ENDBRANCH  35  36
ENDBRANCH  33  34
ENDBRANCH  31  32
ENDBRANCH  17  30
BRANCH  16  39
ATOM     39  O   UNL     1      65.973  48.687  57.739  0.00  0.00    +0.000 OA
BRANCH  39  41
ATOM     40  O   UNL     1      64.990  49.545  55.847  0.00  0.00    +0.000 OA
ATOM     41  C   UNL     1      65.554  48.641  56.440  0.00  0.00    +0.000 C 
BRANCH  41  42
ATOM     42  C   UNL     1      65.838  47.317  55.857  0.00  0.00    +0.000 A 
ATOM     43  C   UNL     1      64.881  46.626  55.114  0.00  0.00    +0.000 A 
ATOM     44  C   UNL     1      67.100  46.762  56.064  0.00  0.00    +0.000 A 
ATOM     45  C   UNL     1      65.189  45.378  54.577  0.00  0.00    +0.000 A 
ATOM     46  C   UNL     1      67.405  45.514  55.526  0.00  0.00    +0.000 A 
ATOM     47  C   UNL     1      66.449  44.823  54.784  0.00  0.00    +0.000 A 
ENDBRANCH  41  42
ENDBRANCH  39  41
ENDBRANCH  16  39
BRANCH   9  48
ATOM     48  C   UNL     1      65.576  55.699  55.208  0.00  0.00    +0.000 C 
BRANCH  48  49
ATOM     49  O   UNL     1      65.816  56.557  54.221  0.00  0.00    +0.000 OA
ATOM     50  H   UNL     1      66.530  56.226  53.648  0.00  0.00    +0.000 HD
ENDBRANCH  48  49
ENDBRANCH   9  48
TORSDOF 12
ENDMDL
MODEL 6
REMARK VINA RESULT:      -6.1     29.022     33.801
REMARK  Name = 5358691_Yuanhuacine.pdbqt.pdb
REMARK  12 active torsions:
REMARK  status: ('A' for Active; 'I' for Inactive)
REMARK    1  A    between atoms: C_9  and  C_48
REMARK    2  A    between atoms: C_13  and  C_23
REMARK    3  A    between atoms: C_14  and  O_26
REMARK    4  A    between atoms: C_15  and  O_28
REMARK    5  A    between atoms: C_16  and  O_39
REMARK    6  A    between atoms: C_17  and  C_30
REMARK    7  A    between atoms: C_31  and  C_32
REMARK    8  A    between atoms: C_33  and  C_34
REMARK    9  A    between atoms: C_35  and  C_36
REMARK   10  A    between atoms: O_39  and  C_41
REMARK   11  A    between atoms: C_41  and  C_42
REMARK   12  A    between atoms: C_48  and  O_49
REMARK                            x       y       z     vdW  Elec       q    Type
REMARK                         _______ _______ _______ _____ _____    ______ ____
ROOT
ATOM      1  O   UNL     1      70.216  64.198  61.302  0.00  0.00    +0.000 OA
ATOM      2  O   UNL     1      67.623  63.476  63.541  0.00  0.00    +0.000 OA
ATOM      3  O   UNL     1      69.657  64.057  64.616  0.00  0.00    +0.000 OA
ATOM      4  O   UNL     1      68.179  62.685  65.708  0.00  0.00    +0.000 OA
ATOM      5  O   UNL     1      67.364  61.247  58.096  0.00  0.00    +0.000 OA
ATOM      6  C   UNL     1      69.781  62.551  62.915  0.00  0.00    +0.000 C 
ATOM      7  C   UNL     1      68.259  62.402  62.783  0.00  0.00    +0.000 C 
ATOM      8  C   UNL     1      70.676  63.059  61.913  0.00  0.00    +0.000 C 
ATOM      9  C   UNL     1      70.671  63.137  60.452  0.00  0.00    +0.000 C 
ATOM     10  C   UNL     1      70.049  62.747  64.345  0.00  0.00    +0.000 C 
ATOM     11  C   UNL     1      67.798  62.531  61.364  0.00  0.00    +0.000 C 
ATOM     12  C   UNL     1      67.837  61.038  63.410  0.00  0.00    +0.000 C 
ATOM     13  C   UNL     1      69.287  61.822  65.325  0.00  0.00    +0.000 C 
ATOM     14  C   UNL     1      68.447  61.736  60.253  0.00  0.00    +0.000 C 
ATOM     15  C   UNL     1      69.699  62.324  59.672  0.00  0.00    +0.000 C 
ATOM     16  C   UNL     1      68.599  60.681  64.596  0.00  0.00    +0.000 C 
ATOM     17  C   UNL     1      68.264  63.784  64.803  0.00  0.00    +0.000 C 
ATOM     18  C   UNL     1      66.526  62.972  60.918  0.00  0.00    +0.000 C 
ATOM     19  C   UNL     1      66.601  60.218  63.039  0.00  0.00    +0.000 C 
ATOM     20  C   UNL     1      67.291  61.783  59.199  0.00  0.00    +0.000 C 
ATOM     21  C   UNL     1      66.147  62.581  59.747  0.00  0.00    +0.000 C 
ATOM     22  C   UNL     1      65.082  63.260  58.949  0.00  0.00    +0.000 C 
ENDROOT
BRANCH  13  23
ATOM     23  C   UNL     1      70.202  61.447  66.514  0.00  0.00    +0.000 C 
ATOM     24  C   UNL     1      71.691  61.131  66.384  0.00  0.00    +0.000 C 
ATOM     25  C   UNL     1      69.736  61.085  67.727  0.00  0.00    +0.000 C 
ENDBRANCH  13  23
BRANCH  14  26
ATOM     26  O   UNL     1      68.738  60.419  60.670  0.00  0.00    +0.000 OA
ATOM     27  H   UNL     1      69.684  60.258  60.484  0.00  0.00    +0.000 HD
ENDBRANCH  14  26
BRANCH  15  28
ATOM     28  O   UNL     1      70.044  61.921  58.379  0.00  0.00    +0.000 OA
ATOM     29  H   UNL     1      70.812  62.391  57.989  0.00  0.00    +0.000 HD
ENDBRANCH  15  28
BRANCH  17  30
ATOM     30  C   UNL     1      67.609  64.948  65.392  0.00  0.00    +0.000 C 
ATOM     31  C   UNL     1      67.072  65.906  65.876  0.00  0.00    +0.000 C 
BRANCH  31  32
ATOM     32  C   UNL     1      66.388  67.129  66.494  0.00  0.00    +0.000 C 
ATOM     33  C   UNL     1      65.851  68.088  66.977  0.00  0.00    +0.000 C 
BRANCH  33  34
ATOM     34  C   UNL     1      65.165  69.311  67.593  0.00  0.00    +0.000 C 
ATOM     35  C   UNL     1      64.479  70.534  68.207  0.00  0.00    +0.000 C 
BRANCH  35  36
ATOM     36  C   UNL     1      63.793  71.758  68.821  0.00  0.00    +0.000 C 
ATOM     37  C   UNL     1      63.108  72.983  69.435  0.00  0.00    +0.000 C 
ATOM     38  C   UNL     1      62.423  74.209  70.048  0.00  0.00    +0.000 C 
ENDBRANCH  35  36
ENDBRANCH  33  34
ENDBRANCH  31  32
ENDBRANCH  17  30
BRANCH  16  39
ATOM     39  O   UNL     1      68.603  59.335  64.998  0.00  0.00    +0.000 OA
BRANCH  39  41
ATOM     40  O   UNL     1      69.820  58.737  63.143  0.00  0.00    +0.000 OA
ATOM     41  C   UNL     1      69.458  58.540  64.291  0.00  0.00    +0.000 C 
BRANCH  41  42
ATOM     42  C   UNL     1      69.856  57.371  65.096  0.00  0.00    +0.000 A 
ATOM     43  C   UNL     1      70.014  56.109  64.524  0.00  0.00    +0.000 A 
ATOM     44  C   UNL     1      70.077  57.554  66.461  0.00  0.00    +0.000 A 
ATOM     45  C   UNL     1      70.393  55.030  65.318  0.00  0.00    +0.000 A 
ATOM     46  C   UNL     1      70.456  56.474  67.252  0.00  0.00    +0.000 A 
ATOM     47  C   UNL     1      70.613  55.213  66.681  0.00  0.00    +0.000 A 
ENDBRANCH  41  42
ENDBRANCH  39  41
ENDBRANCH  16  39
BRANCH   9  48
ATOM     48  C   UNL     1      71.903  63.538  59.785  0.00  0.00    +0.000 C 
BRANCH  48  49
ATOM     49  O   UNL     1      73.031  63.904  59.182  0.00  0.00    +0.000 OA
ATOM     50  H   UNL     1      73.655  63.158  59.145  0.00  0.00    +0.000 HD
ENDBRANCH  48  49
ENDBRANCH   9  48
TORSDOF 12
ENDMDL
MODEL 7
REMARK VINA RESULT:      -6.0     38.980     44.011
REMARK  Name = 5358691_Yuanhuacine.pdbqt.pdb
REMARK  12 active torsions:
REMARK  status: ('A' for Active; 'I' for Inactive)
REMARK    1  A    between atoms: C_9  and  C_48
REMARK    2  A    between atoms: C_13  and  C_23
REMARK    3  A    between atoms: C_14  and  O_26
REMARK    4  A    between atoms: C_15  and  O_28
REMARK    5  A    between atoms: C_16  and  O_39
REMARK    6  A    between atoms: C_17  and  C_30
REMARK    7  A    between atoms: C_31  and  C_32
REMARK    8  A    between atoms: C_33  and  C_34
REMARK    9  A    between atoms: C_35  and  C_36
REMARK   10  A    between atoms: O_39  and  C_41
REMARK   11  A    between atoms: C_41  and  C_42
REMARK   12  A    between atoms: C_48  and  O_49
REMARK                            x       y       z     vdW  Elec       q    Type
REMARK                         _______ _______ _______ _____ _____    ______ ____
ROOT
ATOM      1  O   UNL     1      54.633  68.406  88.508  0.00  0.00    +0.000 OA
ATOM      2  O   UNL     1      58.034  68.346  87.679  0.00  0.00    +0.000 OA
ATOM      3  O   UNL     1      57.501  69.951  89.344  0.00  0.00    +0.000 OA
ATOM      4  O   UNL     1      59.314  70.319  87.990  0.00  0.00    +0.000 OA
ATOM      5  O   UNL     1      54.128  66.339  83.755  0.00  0.00    +0.000 OA
ATOM      6  C   UNL     1      56.158  69.882  87.509  0.00  0.00    +0.000 C 
ATOM      7  C   UNL     1      57.060  68.903  86.744  0.00  0.00    +0.000 C 
ATOM      8  C   UNL     1      54.808  69.639  87.934  0.00  0.00    +0.000 C 
ATOM      9  C   UNL     1      53.707  68.787  87.482  0.00  0.00    +0.000 C 
ATOM     10  C   UNL     1      57.058  70.742  88.286  0.00  0.00    +0.000 C 
ATOM     11  C   UNL     1      56.290  67.752  86.173  0.00  0.00    +0.000 C 
ATOM     12  C   UNL     1      57.829  69.693  85.642  0.00  0.00    +0.000 C 
ATOM     13  C   UNL     1      58.311  71.277  87.550  0.00  0.00    +0.000 C 
ATOM     14  C   UNL     1      55.037  67.975  85.355  0.00  0.00    +0.000 C 
ATOM     15  C   UNL     1      53.768  68.155  86.136  0.00  0.00    +0.000 C 
ATOM     16  C   UNL     1      58.228  71.029  86.054  0.00  0.00    +0.000 C 
ATOM     17  C   UNL     1      58.561  69.296  88.637  0.00  0.00    +0.000 C 
ATOM     18  C   UNL     1      56.782  66.451  85.895  0.00  0.00    +0.000 C 
ATOM     19  C   UNL     1      58.372  69.119  84.333  0.00  0.00    +0.000 C 
ATOM     20  C   UNL     1      55.000  66.620  84.573  0.00  0.00    +0.000 C 
ATOM     21  C   UNL     1      56.154  65.764  85.002  0.00  0.00    +0.000 C 
ATOM     22  C   UNL     1      56.241  64.277  84.883  0.00  0.00    +0.000 C 
ENDROOT
BRANCH  13  23
ATOM     23  C   UNL     1      58.612  72.724  88.007  0.00  0.00    +0.000 C 
ATOM     24  C   UNL     1      60.019  73.304  88.144  0.00  0.00    +0.000 C 
ATOM     25  C   UNL     1      57.701  73.523  88.599  0.00  0.00    +0.000 C 
ENDBRANCH  13  23
BRANCH  14  26
ATOM     26  O   UNL     1      55.179  69.086  84.495  0.00  0.00    +0.000 OA
ATOM     27  H   UNL     1      55.532  69.824  85.031  0.00  0.00    +0.000 HD
ENDBRANCH  14  26
BRANCH  15  28
ATOM     28  O   UNL     1      52.573  67.874  85.470  0.00  0.00    +0.000 OA
ATOM     29  H   UNL     1      52.634  67.875  84.491  0.00  0.00    +0.000 HD
ENDBRANCH  15  28
BRANCH  17  30
ATOM     30  C   UNL     1      59.418  68.587  89.581  0.00  0.00    +0.000 C 
ATOM     31  C   UNL     1      60.124  68.002  90.356  0.00  0.00    +0.000 C 
BRANCH  31  32
ATOM     32  C   UNL     1      61.025  67.255  91.343  0.00  0.00    +0.000 C 
ATOM     33  C   UNL     1      61.732  66.671  92.117  0.00  0.00    +0.000 C 
BRANCH  33  34
ATOM     34  C   UNL     1      62.637  65.925  93.103  0.00  0.00    +0.000 C 
ATOM     35  C   UNL     1      63.541  65.181  94.089  0.00  0.00    +0.000 C 
BRANCH  35  36
ATOM     36  C   UNL     1      64.445  64.436  95.077  0.00  0.00    +0.000 C 
ATOM     37  C   UNL     1      65.348  63.690  96.064  0.00  0.00    +0.000 C 
ATOM     38  C   UNL     1      66.251  62.943  97.051  0.00  0.00    +0.000 C 
ENDBRANCH  35  36
ENDBRANCH  33  34
ENDBRANCH  31  32
ENDBRANCH  17  30
BRANCH  16  39
ATOM     39  O   UNL     1      58.548  71.961  85.053  0.00  0.00    +0.000 OA
BRANCH  39  41
ATOM     40  O   UNL     1      56.597  73.175  84.999  0.00  0.00    +0.000 OA
ATOM     41  C   UNL     1      57.464  72.523  84.441  0.00  0.00    +0.000 C 
BRANCH  41  42
ATOM     42  C   UNL     1      57.459  72.193  83.005  0.00  0.00    +0.000 A 
ATOM     43  C   UNL     1      56.302  71.754  82.361  0.00  0.00    +0.000 A 
ATOM     44  C   UNL     1      58.648  72.332  82.291  0.00  0.00    +0.000 A 
ATOM     45  C   UNL     1      56.337  71.454  81.001  0.00  0.00    +0.000 A 
ATOM     46  C   UNL     1      58.680  72.032  80.932  0.00  0.00    +0.000 A 
ATOM     47  C   UNL     1      57.525  71.593  80.288  0.00  0.00    +0.000 A 
ENDBRANCH  41  42
ENDBRANCH  39  41
ENDBRANCH  16  39
BRANCH   9  48
ATOM     48  C   UNL     1      52.391  69.005  88.065  0.00  0.00    +0.000 C 
BRANCH  48  49
ATOM     49  O   UNL     1      51.190  69.201  88.604  0.00  0.00    +0.000 OA
ATOM     50  H   UNL     1      50.642  69.753  88.020  0.00  0.00    +0.000 HD
ENDBRANCH  48  49
ENDBRANCH   9  48
TORSDOF 12
ENDMDL
MODEL 8
REMARK VINA RESULT:      -5.9     23.421     27.408
REMARK  Name = 5358691_Yuanhuacine.pdbqt.pdb
REMARK  12 active torsions:
REMARK  status: ('A' for Active; 'I' for Inactive)
REMARK    1  A    between atoms: C_9  and  C_48
REMARK    2  A    between atoms: C_13  and  C_23
REMARK    3  A    between atoms: C_14  and  O_26
REMARK    4  A    between atoms: C_15  and  O_28
REMARK    5  A    between atoms: C_16  and  O_39
REMARK    6  A    between atoms: C_17  and  C_30
REMARK    7  A    between atoms: C_31  and  C_32
REMARK    8  A    between atoms: C_33  and  C_34
REMARK    9  A    between atoms: C_35  and  C_36
REMARK   10  A    between atoms: O_39  and  C_41
REMARK   11  A    between atoms: C_41  and  C_42
REMARK   12  A    between atoms: C_48  and  O_49
REMARK                            x       y       z     vdW  Elec       q    Type
REMARK                         _______ _______ _______ _____ _____    ______ ____
ROOT
ATOM      1  O   UNL     1      66.145  59.966  56.713  0.00  0.00    +0.000 OA
ATOM      2  O   UNL     1      65.021  58.723  59.788  0.00  0.00    +0.000 OA
ATOM      3  O   UNL     1      67.034  57.709  59.044  0.00  0.00    +0.000 OA
ATOM      4  O   UNL     1      65.633  56.518  60.415  0.00  0.00    +0.000 OA
ATOM      5  O   UNL     1      61.123  61.222  56.148  0.00  0.00    +0.000 OA
ATOM      6  C   UNL     1      65.355  57.910  57.522  0.00  0.00    +0.000 C 
ATOM      7  C   UNL     1      64.319  58.376  58.555  0.00  0.00    +0.000 C 
ATOM      8  C   UNL     1      65.837  58.666  56.401  0.00  0.00    +0.000 C 
ATOM      9  C   UNL     1      65.312  59.749  55.567  0.00  0.00    +0.000 C 
ATOM     10  C   UNL     1      66.215  56.944  58.215  0.00  0.00    +0.000 C 
ATOM     11  C   UNL     1      63.584  59.602  58.106  0.00  0.00    +0.000 C 
ATOM     12  C   UNL     1      63.348  57.194  58.854  0.00  0.00    +0.000 C 
ATOM     13  C   UNL     1      65.502  55.896  59.105  0.00  0.00    +0.000 C 
ATOM     14  C   UNL     1      62.950  59.679  56.735  0.00  0.00    +0.000 C 
ATOM     15  C   UNL     1      63.862  60.079  55.613  0.00  0.00    +0.000 C 
ATOM     16  C   UNL     1      64.001  55.895  58.873  0.00  0.00    +0.000 C 
ATOM     17  C   UNL     1      66.110  57.832  60.132  0.00  0.00    +0.000 C 
ATOM     18  C   UNL     1      62.990  60.590  58.933  0.00  0.00    +0.000 C 
ATOM     19  C   UNL     1      61.903  57.312  59.338  0.00  0.00    +0.000 C 
ATOM     20  C   UNL     1      61.901  60.809  57.004  0.00  0.00    +0.000 C 
ATOM     21  C   UNL     1      62.029  61.284  58.420  0.00  0.00    +0.000 C 
ATOM     22  C   UNL     1      61.585  62.607  58.951  0.00  0.00    +0.000 C 
ENDROOT
BRANCH  13  23
ATOM     23  C   UNL     1      66.231  54.536  59.005  0.00  0.00    +0.000 C 
ATOM     24  C   UNL     1      66.895  53.830  60.186  0.00  0.00    +0.000 C 
ATOM     25  C   UNL     1      66.604  53.976  57.836  0.00  0.00    +0.000 C 
ENDBRANCH  13  23
BRANCH  14  26
ATOM     26  O   UNL     1      62.341  58.455  56.385  0.00  0.00    +0.000 OA
ATOM     27  H   UNL     1      61.382  58.550  56.553  0.00  0.00    +0.000 HD
ENDBRANCH  14  26
BRANCH  15  28
ATOM     28  O   UNL     1      63.261  60.629  54.477  0.00  0.00    +0.000 OA
ATOM     29  H   UNL     1      63.885  61.002  53.818  0.00  0.00    +0.000 HD
ENDBRANCH  15  28
BRANCH  17  30
ATOM     30  C   UNL     1      66.798  58.361  61.305  0.00  0.00    +0.000 C 
ATOM     31  C   UNL     1      67.364  58.794  62.271  0.00  0.00    +0.000 C 
BRANCH  31  32
ATOM     32  C   UNL     1      68.088  59.345  63.502  0.00  0.00    +0.000 C 
ATOM     33  C   UNL     1      68.656  59.777  64.468  0.00  0.00    +0.000 C 
BRANCH  33  34
ATOM     34  C   UNL     1      69.380  60.326  65.701  0.00  0.00    +0.000 C 
ATOM     35  C   UNL     1      70.102  60.874  66.934  0.00  0.00    +0.000 C 
BRANCH  35  36
ATOM     36  C   UNL     1      70.825  61.423  68.169  0.00  0.00    +0.000 C 
ATOM     37  C   UNL     1      71.547  61.972  69.403  0.00  0.00    +0.000 C 
ATOM     38  C   UNL     1      72.268  62.522  70.638  0.00  0.00    +0.000 C 
ENDBRANCH  35  36
ENDBRANCH  33  34
ENDBRANCH  31  32
ENDBRANCH  17  30
BRANCH  16  39
ATOM     39  O   UNL     1      63.200  54.750  58.723  0.00  0.00    +0.000 OA
BRANCH  39  41
ATOM     40  O   UNL     1      63.051  54.502  61.002  0.00  0.00    +0.000 OA
ATOM     41  C   UNL     1      63.013  54.040  59.874  0.00  0.00    +0.000 C 
BRANCH  41  42
ATOM     42  C   UNL     1      62.801  52.614  59.568  0.00  0.00    +0.000 A 
ATOM     43  C   UNL     1      61.520  52.075  59.451  0.00  0.00    +0.000 A 
ATOM     44  C   UNL     1      63.921  51.803  59.393  0.00  0.00    +0.000 A 
ATOM     45  C   UNL     1      61.361  50.723  59.159  0.00  0.00    +0.000 A 
ATOM     46  C   UNL     1      63.759  50.451  59.100  0.00  0.00    +0.000 A 
ATOM     47  C   UNL     1      62.480  49.912  58.984  0.00  0.00    +0.000 A 
ENDBRANCH  41  42
ENDBRANCH  39  41
ENDBRANCH  16  39
BRANCH   9  48
ATOM     48  C   UNL     1      66.045  60.096  54.356  0.00  0.00    +0.000 C 
BRANCH  48  49
ATOM     49  O   UNL     1      66.719  60.413  53.255  0.00  0.00    +0.000 OA
ATOM     50  H   UNL     1      67.519  59.864  53.176  0.00  0.00    +0.000 HD
ENDBRANCH  48  49
ENDBRANCH   9  48
TORSDOF 12
ENDMDL
MODEL 9
REMARK VINA RESULT:      -5.9     22.342     25.872
REMARK  Name = 5358691_Yuanhuacine.pdbqt.pdb
REMARK  12 active torsions:
REMARK  status: ('A' for Active; 'I' for Inactive)
REMARK    1  A    between atoms: C_9  and  C_48
REMARK    2  A    between atoms: C_13  and  C_23
REMARK    3  A    between atoms: C_14  and  O_26
REMARK    4  A    between atoms: C_15  and  O_28
REMARK    5  A    between atoms: C_16  and  O_39
REMARK    6  A    between atoms: C_17  and  C_30
REMARK    7  A    between atoms: C_31  and  C_32
REMARK    8  A    between atoms: C_33  and  C_34
REMARK    9  A    between atoms: C_35  and  C_36
REMARK   10  A    between atoms: O_39  and  C_41
REMARK   11  A    between atoms: C_41  and  C_42
REMARK   12  A    between atoms: C_48  and  O_49
REMARK                            x       y       z     vdW  Elec       q    Type
REMARK                         _______ _______ _______ _____ _____    ______ ____
ROOT
ATOM      1  O   UNL     1      62.807  58.936  56.941  0.00  0.00    +0.000 OA
ATOM      2  O   UNL     1      63.256  57.946  60.269  0.00  0.00    +0.000 OA
ATOM      3  O   UNL     1      65.011  57.243  58.835  0.00  0.00    +0.000 OA
ATOM      4  O   UNL     1      64.554  56.010  60.714  0.00  0.00    +0.000 OA
ATOM      5  O   UNL     1      57.804  59.113  58.373  0.00  0.00    +0.000 OA
ATOM      6  C   UNL     1      62.883  56.901  58.106  0.00  0.00    +0.000 C 
ATOM      7  C   UNL     1      62.239  57.301  59.442  0.00  0.00    +0.000 C 
ATOM      8  C   UNL     1      62.714  57.570  56.847  0.00  0.00    +0.000 C 
ATOM      9  C   UNL     1      61.676  58.404  56.238  0.00  0.00    +0.000 C 
ATOM     10  C   UNL     1      64.141  56.226  58.447  0.00  0.00    +0.000 C 
ATOM     11  C   UNL     1      61.127  58.288  59.261  0.00  0.00    +0.000 C 
ATOM     12  C   UNL     1      61.759  56.008  60.168  0.00  0.00    +0.000 C 
ATOM     13  C   UNL     1      64.083  55.197  59.602  0.00  0.00    +0.000 C 
ATOM     14  C   UNL     1      60.020  58.048  58.259  0.00  0.00    +0.000 C 
ATOM     15  C   UNL     1      60.318  58.453  56.845  0.00  0.00    +0.000 C 
ATOM     16  C   UNL     1      62.651  54.874  59.992  0.00  0.00    +0.000 C 
ATOM     17  C   UNL     1      64.569  57.338  60.194  0.00  0.00    +0.000 C 
ATOM     18  C   UNL     1      60.680  59.249  60.203  0.00  0.00    +0.000 C 
ATOM     19  C   UNL     1      60.621  55.914  61.185  0.00  0.00    +0.000 C 
ATOM     20  C   UNL     1      58.921  58.981  58.866  0.00  0.00    +0.000 C 
ATOM     21  C   UNL     1      59.464  59.666  60.084  0.00  0.00    +0.000 C 
ATOM     22  C   UNL     1      58.961  60.942  60.677  0.00  0.00    +0.000 C 
ENDROOT
BRANCH  13  23
ATOM     23  C   UNL     1      65.014  54.002  59.289  0.00  0.00    +0.000 C 
ATOM     24  C   UNL     1      65.968  53.371  60.302  0.00  0.00    +0.000 C 
ATOM     25  C   UNL     1      65.290  53.580  58.038  0.00  0.00    +0.000 C 
ENDBRANCH  13  23
BRANCH  14  26
ATOM     26  O   UNL     1      59.626  56.692  58.248  0.00  0.00    +0.000 OA
ATOM     27  H   UNL     1      59.053  56.551  59.028  0.00  0.00    +0.000 HD
ENDBRANCH  14  26
BRANCH  15  28
ATOM     28  O   UNL     1      59.221  58.712  56.019  0.00  0.00    +0.000 OA
ATOM     29  H   UNL     1      58.422  59.041  56.483  0.00  0.00    +0.000 HD
ENDBRANCH  15  28
BRANCH  17  30
ATOM     30  C   UNL     1      65.508  58.149  60.962  0.00  0.00    +0.000 C 
ATOM     31  C   UNL     1      66.280  58.814  61.596  0.00  0.00    +0.000 C 
BRANCH  31  32
ATOM     32  C   UNL     1      67.266  59.661  62.404  0.00  0.00    +0.000 C 
ATOM     33  C   UNL     1      68.040  60.326  63.037  0.00  0.00    +0.000 C 
BRANCH  33  34
ATOM     34  C   UNL     1      69.029  61.174  63.843  0.00  0.00    +0.000 C 
ATOM     35  C   UNL     1      70.018  62.020  64.649  0.00  0.00    +0.000 C 
BRANCH  35  36
ATOM     36  C   UNL     1      71.009  62.867  65.455  0.00  0.00    +0.000 C 
ATOM     37  C   UNL     1      71.998  63.713  66.261  0.00  0.00    +0.000 C 
ATOM     38  C   UNL     1      72.988  64.559  67.068  0.00  0.00    +0.000 C 
ENDBRANCH  35  36
ENDBRANCH  33  34
ENDBRANCH  31  32
ENDBRANCH  17  30
BRANCH  16  39
ATOM     39  O   UNL     1      62.143  53.588  60.237  0.00  0.00    +0.000 OA
BRANCH  39  41
ATOM     40  O   UNL     1      60.407  53.399  58.743  0.00  0.00    +0.000 OA
ATOM     41  C   UNL     1      61.486  53.032  59.177  0.00  0.00    +0.000 C 
BRANCH  41  42
ATOM     42  C   UNL     1      62.246  51.885  58.648  0.00  0.00    +0.000 A 
ATOM     43  C   UNL     1      62.944  51.021  59.491  0.00  0.00    +0.000 A 
ATOM     44  C   UNL     1      62.253  51.677  57.270  0.00  0.00    +0.000 A 
ATOM     45  C   UNL     1      63.650  49.947  58.953  0.00  0.00    +0.000 A 
ATOM     46  C   UNL     1      62.958  50.602  56.735  0.00  0.00    +0.000 A 
ATOM     47  C   UNL     1      63.656  49.739  57.576  0.00  0.00    +0.000 A 
ENDBRANCH  41  42
ENDBRANCH  39  41
ENDBRANCH  16  39
BRANCH   9  48
ATOM     48  C   UNL     1      61.792  58.711  54.819  0.00  0.00    +0.000 C 
BRANCH  48  49
ATOM     49  O   UNL     1      61.892  58.990  53.522  0.00  0.00    +0.000 OA
ATOM     50  H   UNL     1      61.020  58.931  53.094  0.00  0.00    +0.000 HD
ENDBRANCH  48  49
ENDBRANCH   9  48
TORSDOF 12
ENDMDL
