REMARK  Name = 5358691_Yuanhuacine.pdbqt.pdb
REMARK  12 active torsions:
REMARK  status: ('A' for Active; 'I' for Inactive)
REMARK    1  A    between atoms: C_9  and  C_48
REMARK    2  A    between atoms: C_13  and  C_23
REMARK    3  A    between atoms: C_14  and  O_26
REMARK    4  A    between atoms: C_15  and  O_28
REMARK    5  A    between atoms: C_16  and  O_39
REMARK    6  A    between atoms: C_17  and  C_30
REMARK    7  A    between atoms: C_31  and  C_32
REMARK    8  A    between atoms: C_33  and  C_34
REMARK    9  A    between atoms: C_35  and  C_36
REMARK   10  A    between atoms: O_39  and  C_41
REMARK   11  A    between atoms: C_41  and  C_42
REMARK   12  A    between atoms: C_48  and  O_49
REMARK                            x       y       z     vdW  Elec       q    Type
REMARK                         _______ _______ _______ _____ _____    ______ ____
ROOT
ATOM      1  O   UNL     1       0.193   2.302   2.981  0.00  0.00    +0.000 OA
ATOM      2  O   UNL     1      -0.658   0.689  -0.008  0.00  0.00    +0.000 OA
ATOM      3  O   UNL     1      -0.766  -0.732   1.890  0.00  0.00    +0.000 OA
ATOM      4  O   UNL     1      -0.338  -1.657  -0.164  0.00  0.00    +0.000 OA
ATOM      5  O   UNL     1       2.723   5.505  -0.253  0.00  0.00    +0.000 OA
ATOM      6  C   UNL     1       1.089   0.569   1.678  0.00  0.00    +0.000 C 
ATOM      7  C   UNL     1       0.732   1.047   0.263  0.00  0.00    +0.000 C 
ATOM      8  C   UNL     1       1.211   1.392   2.848  0.00  0.00    +0.000 C 
ATOM      9  C   UNL     1       1.533   2.796   3.109  0.00  0.00    +0.000 C 
ATOM     10  C   UNL     1       0.620  -0.819   1.769  0.00  0.00    +0.000 C 
ATOM     11  C   UNL     1       0.839   2.535   0.125  0.00  0.00    +0.000 C 
ATOM     12  C   UNL     1       1.643   0.301  -0.758  0.00  0.00    +0.000 C 
ATOM     13  C   UNL     1       0.924  -1.733   0.557  0.00  0.00    +0.000 C 
ATOM     14  C   UNL     1       2.077   3.278   0.575  0.00  0.00    +0.000 C 
ATOM     15  C   UNL     1       2.138   3.627   2.033  0.00  0.00    +0.000 C 
ATOM     16  C   UNL     1       1.908  -1.083  -0.400  0.00  0.00    +0.000 C 
ATOM     17  C   UNL     1      -1.053  -0.612   0.492  0.00  0.00    +0.000 C 
ATOM     18  C   UNL     1       0.123   3.360  -0.780  0.00  0.00    +0.000 C 
ATOM     19  C   UNL     1       2.053   0.808  -2.141  0.00  0.00    +0.000 C 
ATOM     20  C   UNL     1       1.919   4.577  -0.283  0.00  0.00    +0.000 C 
ATOM     21  C   UNL     1       0.658   4.493  -1.090  0.00  0.00    +0.000 C 
ATOM     22  C   UNL     1      -0.105   5.645  -1.657  0.00  0.00    +0.000 C 
ENDROOT
BRANCH  13  23
ATOM     23  C   UNL     1       1.257  -3.162   1.046  0.00  0.00    +0.000 C 
ATOM     24  C   UNL     1       0.213  -4.252   1.283  0.00  0.00    +0.000 C 
ATOM     25  C   UNL     1       2.446  -3.508   1.581  0.00  0.00    +0.000 C 
ENDBRANCH  13  23
BRANCH  14  26
ATOM     26  O   UNL     1       3.249   2.561   0.250  0.00  0.00    +0.000 OA
ATOM     27  H   UNL     1       4.007   3.159   0.404  0.00  0.00    +0.000 HD
ENDBRANCH  14  26
BRANCH  15  28
ATOM     28  O   UNL     1       2.967   4.693   2.392  0.00  0.00    +0.000 OA
ATOM     29  H   UNL     1       3.234   5.278   1.651  0.00  0.00    +0.000 HD
ENDBRANCH  15  28
BRANCH  17  30
ATOM     30  C   UNL     1      -2.484  -0.788   0.266  0.00  0.00    +0.000 C 
ATOM     31  C   UNL     1      -3.661  -0.931   0.079  0.00  0.00    +0.000 C 
BRANCH  31  32
ATOM     32  C   UNL     1      -5.162  -1.113  -0.161  0.00  0.00    +0.000 C 
ATOM     33  C   UNL     1      -6.339  -1.255  -0.350  0.00  0.00    +0.000 C 
BRANCH  33  34
ATOM     34  C   UNL     1      -7.841  -1.434  -0.592  0.00  0.00    +0.000 C 
ATOM     35  C   UNL     1      -9.342  -1.612  -0.833  0.00  0.00    +0.000 C 
BRANCH  35  36
ATOM     36  C   UNL     1     -10.845  -1.789  -1.075  0.00  0.00    +0.000 C 
ATOM     37  C   UNL     1     -12.347  -1.965  -1.316  0.00  0.00    +0.000 C 
ATOM     38  C   UNL     1     -13.850  -2.140  -1.557  0.00  0.00    +0.000 C 
ENDBRANCH  35  36
ENDBRANCH  33  34
ENDBRANCH  31  32
ENDBRANCH  17  30
BRANCH  16  39
ATOM     39  O   UNL     1       3.011  -1.720  -0.993  0.00  0.00    +0.000 OA
BRANCH  39  41
ATOM     40  O   UNL     1       1.568  -3.236  -1.942  0.00  0.00    +0.000 OA
ATOM     41  C   UNL     1       2.684  -2.762  -1.813  0.00  0.00    +0.000 C 
BRANCH  41  42
ATOM     42  C   UNL     1       3.886  -3.272  -2.497  0.00  0.00    +0.000 A 
ATOM     43  C   UNL     1       5.137  -2.685  -2.309  0.00  0.00    +0.000 A 
ATOM     44  C   UNL     1       3.747  -4.369  -3.346  0.00  0.00    +0.000 A 
ATOM     45  C   UNL     1       6.250  -3.197  -2.972  0.00  0.00    +0.000 A 
ATOM     46  C   UNL     1       4.861  -4.879  -4.007  0.00  0.00    +0.000 A 
ATOM     47  C   UNL     1       6.111  -4.293  -3.820  0.00  0.00    +0.000 A 
ENDBRANCH  41  42
ENDBRANCH  39  41
ENDBRANCH  16  39
BRANCH   9  48
ATOM     48  C   UNL     1       1.778   3.196   4.488  0.00  0.00    +0.000 C 
BRANCH  48  49
ATOM     49  O   UNL     1       2.008   3.562   5.746  0.00  0.00    +0.000 OA
ATOM     50  H   UNL     1       2.295   4.491   5.783  0.00  0.00    +0.000 HD
ENDBRANCH  48  49
ENDBRANCH   9  48
TORSDOF 12
