MODEL 1
REMARK VINA RESULT:      -5.1      0.000      0.000
REMARK  Name = 5386_Tegafur.pdbqt.pdb
REMARK  1 active torsions:
REMARK  status: ('A' for Active; 'I' for Inactive)
REMARK    1  A    between atoms: N_4  and  C_12
REMARK                            x       y       z     vdW  Elec       q    Type
REMARK                         _______ _______ _______ _____ _____    ______ ____
ROOT
ATOM      1  F   UNL     1      60.001  38.079  66.144  0.00  0.00    +0.000 F 
ATOM      2  O   UNL     1      60.252  40.528  70.985  0.00  0.00    +0.000 OA
ATOM      3  O   UNL     1      57.782  38.200  67.894  0.00  0.00    +0.000 OA
ATOM      4  N   UNL     1      61.374  39.674  69.086  0.00  0.00    +0.000 N 
ATOM      5  N   UNL     1      59.085  39.287  69.450  0.00  0.00    +0.000 N 
ATOM      6  C   UNL     1      60.267  39.893  69.937  0.00  0.00    +0.000 C 
ATOM      7  C   UNL     1      61.158  38.950  67.968  0.00  0.00    +0.000 C 
ATOM      8  C   UNL     1      60.133  38.364  67.450  0.00  0.00    +0.000 C 
ATOM      9  C   UNL     1      58.888  38.585  68.254  0.00  0.00    +0.000 C 
ATOM     10  H   UNL     1      58.257  39.450  70.006  0.00  0.00    +0.000 HD
ENDROOT
BRANCH   4  12
ATOM     11  O   UNL     1      62.860  41.415  69.894  0.00  0.00    +0.000 OA
ATOM     12  C   UNL     1      62.628  40.154  69.331  0.00  0.00    +0.000 C 
ATOM     13  C   UNL     1      63.885  39.540  69.082  0.00  0.00    +0.000 C 
ATOM     14  C   UNL     1      65.209  40.230  69.414  0.00  0.00    +0.000 C 
ATOM     15  C   UNL     1      64.192  41.279  69.860  0.00  0.00    +0.000 C 
ENDBRANCH   4  12
TORSDOF 1
ENDMDL
MODEL 2
REMARK VINA RESULT:      -5.0     13.489     15.192
REMARK  Name = 5386_Tegafur.pdbqt.pdb
REMARK  1 active torsions:
REMARK  status: ('A' for Active; 'I' for Inactive)
REMARK    1  A    between atoms: N_4  and  C_12
REMARK                            x       y       z     vdW  Elec       q    Type
REMARK                         _______ _______ _______ _____ _____    ______ ____
ROOT
ATOM      1  F   UNL     1      53.694  32.970  57.228  0.00  0.00    +0.000 F 
ATOM      2  O   UNL     1      50.593  37.395  57.785  0.00  0.00    +0.000 OA
ATOM      3  O   UNL     1      52.910  34.555  55.019  0.00  0.00    +0.000 OA
ATOM      4  N   UNL     1      51.500  35.424  58.728  0.00  0.00    +0.000 N 
ATOM      5  N   UNL     1      51.689  35.900  56.434  0.00  0.00    +0.000 N 
ATOM      6  C   UNL     1      51.198  36.333  57.688  0.00  0.00    +0.000 C 
ATOM      7  C   UNL     1      52.192  34.315  58.395  0.00  0.00    +0.000 C 
ATOM      8  C   UNL     1      52.673  33.840  57.296  0.00  0.00    +0.000 C 
ATOM      9  C   UNL     1      52.451  34.762  56.136  0.00  0.00    +0.000 C 
ATOM     10  H   UNL     1      51.531  36.537  55.667  0.00  0.00    +0.000 HD
ENDROOT
BRANCH   4  12
ATOM     11  O   UNL     1      52.072  35.809  61.055  0.00  0.00    +0.000 OA
ATOM     12  C   UNL     1      51.139  35.611  60.030  0.00  0.00    +0.000 C 
ATOM     13  C   UNL     1      49.838  35.638  60.602  0.00  0.00    +0.000 C 
ATOM     14  C   UNL     1      49.610  35.855  62.099  0.00  0.00    +0.000 C 
ATOM     15  C   UNL     1      51.134  35.911  62.006  0.00  0.00    +0.000 C 
ENDBRANCH   4  12
TORSDOF 1
ENDMDL
MODEL 3
REMARK VINA RESULT:      -4.8     15.799     16.729
REMARK  Name = 5386_Tegafur.pdbqt.pdb
REMARK  1 active torsions:
REMARK  status: ('A' for Active; 'I' for Inactive)
REMARK    1  A    between atoms: N_4  and  C_12
REMARK                            x       y       z     vdW  Elec       q    Type
REMARK                         _______ _______ _______ _____ _____    ______ ____
ROOT
ATOM      1  F   UNL     1      44.133  40.458  74.442  0.00  0.00    +0.000 F 
ATOM      2  O   UNL     1      47.243  44.890  74.015  0.00  0.00    +0.000 OA
ATOM      3  O   UNL     1      45.664  41.444  76.606  0.00  0.00    +0.000 OA
ATOM      4  N   UNL     1      45.948  43.214  72.962  0.00  0.00    +0.000 N 
ATOM      5  N   UNL     1      46.498  43.103  75.244  0.00  0.00    +0.000 N 
ATOM      6  C   UNL     1      46.618  43.836  74.040  0.00  0.00    +0.000 C 
ATOM      7  C   UNL     1      45.308  42.055  73.220  0.00  0.00    +0.000 C 
ATOM      8  C   UNL     1      45.148  41.320  74.268  0.00  0.00    +0.000 C 
ATOM      9  C   UNL     1      45.778  41.925  75.485  0.00  0.00    +0.000 C 
ATOM     10  H   UNL     1      46.928  43.529  76.052  0.00  0.00    +0.000 HD
ENDROOT
BRANCH   4  12
ATOM     11  O   UNL     1      44.821  44.444  71.199  0.00  0.00    +0.000 OA
ATOM     12  C   UNL     1      45.912  43.721  71.695  0.00  0.00    +0.000 C 
ATOM     13  C   UNL     1      46.890  43.631  70.668  0.00  0.00    +0.000 C 
ATOM     14  C   UNL     1      46.683  44.258  69.288  0.00  0.00    +0.000 C 
ATOM     15  C   UNL     1      45.381  44.628  69.996  0.00  0.00    +0.000 C 
ENDBRANCH   4  12
TORSDOF 1
ENDMDL
MODEL 4
REMARK VINA RESULT:      -4.6      2.835      3.996
REMARK  Name = 5386_Tegafur.pdbqt.pdb
REMARK  1 active torsions:
REMARK  status: ('A' for Active; 'I' for Inactive)
REMARK    1  A    between atoms: N_4  and  C_12
REMARK                            x       y       z     vdW  Elec       q    Type
REMARK                         _______ _______ _______ _____ _____    ______ ____
ROOT
ATOM      1  F   UNL     1      58.741  36.909  71.850  0.00  0.00    +0.000 F 
ATOM      2  O   UNL     1      62.011  40.823  69.981  0.00  0.00    +0.000 OA
ATOM      3  O   UNL     1      59.636  39.039  73.482  0.00  0.00    +0.000 OA
ATOM      4  N   UNL     1      61.004  38.705  69.673  0.00  0.00    +0.000 N 
ATOM      5  N   UNL     1      60.882  39.847  71.723  0.00  0.00    +0.000 N 
ATOM      6  C   UNL     1      61.365  39.866  70.394  0.00  0.00    +0.000 C 
ATOM      7  C   UNL     1      60.274  37.777  70.325  0.00  0.00    +0.000 C 
ATOM      8  C   UNL     1      59.796  37.672  71.519  0.00  0.00    +0.000 C 
ATOM      9  C   UNL     1      60.080  38.886  72.351  0.00  0.00    +0.000 C 
ATOM     10  H   UNL     1      61.083  40.675  72.266  0.00  0.00    +0.000 HD
ENDROOT
BRANCH   4  12
ATOM     11  O   UNL     1      62.428  37.674  67.999  0.00  0.00    +0.000 OA
ATOM     12  C   UNL     1      61.346  38.481  68.371  0.00  0.00    +0.000 C 
ATOM     13  C   UNL     1      60.738  38.982  67.188  0.00  0.00    +0.000 C 
ATOM     14  C   UNL     1      61.259  38.633  65.793  0.00  0.00    +0.000 C 
ATOM     15  C   UNL     1      62.231  37.867  66.689  0.00  0.00    +0.000 C 
ENDBRANCH   4  12
TORSDOF 1
ENDMDL
MODEL 5
REMARK VINA RESULT:      -4.5     13.862     14.783
REMARK  Name = 5386_Tegafur.pdbqt.pdb
REMARK  1 active torsions:
REMARK  status: ('A' for Active; 'I' for Inactive)
REMARK    1  A    between atoms: N_4  and  C_12
REMARK                            x       y       z     vdW  Elec       q    Type
REMARK                         _______ _______ _______ _____ _____    ______ ____
ROOT
ATOM      1  F   UNL     1      60.874  38.690  54.936  0.00  0.00    +0.000 F 
ATOM      2  O   UNL     1      65.367  36.072  56.504  0.00  0.00    +0.000 OA
ATOM      3  O   UNL     1      61.024  37.275  57.381  0.00  0.00    +0.000 OA
ATOM      4  N   UNL     1      64.157  37.179  54.799  0.00  0.00    +0.000 N 
ATOM      5  N   UNL     1      63.169  36.623  56.857  0.00  0.00    +0.000 N 
ATOM      6  C   UNL     1      64.342  36.580  56.067  0.00  0.00    +0.000 C 
ATOM      7  C   UNL     1      62.939  37.692  54.530  0.00  0.00    +0.000 C 
ATOM      8  C   UNL     1      61.826  37.773  55.176  0.00  0.00    +0.000 C 
ATOM      9  C   UNL     1      61.933  37.212  56.562  0.00  0.00    +0.000 C 
ATOM     10  H   UNL     1      63.264  36.241  57.788  0.00  0.00    +0.000 HD
ENDROOT
BRANCH   4  12
ATOM     11  O   UNL     1      65.618  36.156  53.152  0.00  0.00    +0.000 OA
ATOM     12  C   UNL     1      65.136  37.268  53.852  0.00  0.00    +0.000 C 
ATOM     13  C   UNL     1      65.840  38.417  53.399  0.00  0.00    +0.000 C 
ATOM     14  C   UNL     1      66.923  38.337  52.322  0.00  0.00    +0.000 C 
ATOM     15  C   UNL     1      66.495  36.876  52.441  0.00  0.00    +0.000 C 
ENDBRANCH   4  12
TORSDOF 1
ENDMDL
MODEL 6
REMARK VINA RESULT:      -4.2     16.981     18.476
REMARK  Name = 5386_Tegafur.pdbqt.pdb
REMARK  1 active torsions:
REMARK  status: ('A' for Active; 'I' for Inactive)
REMARK    1  A    between atoms: N_4  and  C_12
REMARK                            x       y       z     vdW  Elec       q    Type
REMARK                         _______ _______ _______ _____ _____    ______ ____
ROOT
ATOM      1  F   UNL     1      43.390  41.577  66.881  0.00  0.00    +0.000 F 
ATOM      2  O   UNL     1      41.549  44.473  71.091  0.00  0.00    +0.000 OA
ATOM      3  O   UNL     1      40.730  42.531  67.012  0.00  0.00    +0.000 OA
ATOM      4  N   UNL     1      43.236  43.102  70.157  0.00  0.00    +0.000 N 
ATOM      5  N   UNL     1      41.162  43.412  69.095  0.00  0.00    +0.000 N 
ATOM      6  C   UNL     1      41.969  43.727  70.214  0.00  0.00    +0.000 C 
ATOM      7  C   UNL     1      43.493  42.326  69.084  0.00  0.00    +0.000 C 
ATOM      8  C   UNL     1      42.830  41.982  68.033  0.00  0.00    +0.000 C 
ATOM      9  C   UNL     1      41.485  42.640  67.971  0.00  0.00    +0.000 C 
ATOM     10  H   UNL     1      40.261  43.867  69.073  0.00  0.00    +0.000 HD
ENDROOT
BRANCH   4  12
ATOM     11  O   UNL     1      44.281  42.416  72.238  0.00  0.00    +0.000 OA
ATOM     12  C   UNL     1      44.198  43.247  71.114  0.00  0.00    +0.000 C 
ATOM     13  C   UNL     1      45.247  44.202  71.189  0.00  0.00    +0.000 C 
ATOM     14  C   UNL     1      46.246  44.227  72.347  0.00  0.00    +0.000 C 
ATOM     15  C   UNL     1      45.352  43.050  72.733  0.00  0.00    +0.000 C 
ENDBRANCH   4  12
TORSDOF 1
ENDMDL
MODEL 7
REMARK VINA RESULT:      -3.9      7.654      9.250
REMARK  Name = 5386_Tegafur.pdbqt.pdb
REMARK  1 active torsions:
REMARK  status: ('A' for Active; 'I' for Inactive)
REMARK    1  A    between atoms: N_4  and  C_12
REMARK                            x       y       z     vdW  Elec       q    Type
REMARK                         _______ _______ _______ _____ _____    ______ ____
ROOT
ATOM      1  F   UNL     1      51.101  43.387  71.811  0.00  0.00    +0.000 F 
ATOM      2  O   UNL     1      53.097  38.573  73.341  0.00  0.00    +0.000 OA
ATOM      3  O   UNL     1      49.772  41.722  73.671  0.00  0.00    +0.000 OA
ATOM      4  N   UNL     1      53.166  40.419  71.862  0.00  0.00    +0.000 N 
ATOM      5  N   UNL     1      51.417  40.133  73.405  0.00  0.00    +0.000 N 
ATOM      6  C   UNL     1      52.627  39.611  72.890  0.00  0.00    +0.000 C 
ATOM      7  C   UNL     1      52.483  41.534  71.531  0.00  0.00    +0.000 C 
ATOM      8  C   UNL     1      51.388  42.082  71.936  0.00  0.00    +0.000 C 
ATOM      9  C   UNL     1      50.763  41.326  73.070  0.00  0.00    +0.000 C 
ATOM     10  H   UNL     1      51.014  39.610  74.170  0.00  0.00    +0.000 HD
ENDROOT
BRANCH   4  12
ATOM     11  O   UNL     1      54.411  40.072  69.807  0.00  0.00    +0.000 OA
ATOM     12  C   UNL     1      54.327  40.135  71.203  0.00  0.00    +0.000 C 
ATOM     13  C   UNL     1      55.613  39.852  71.738  0.00  0.00    +0.000 C 
ATOM     14  C   UNL     1      56.818  39.545  70.847  0.00  0.00    +0.000 C 
ATOM     15  C   UNL     1      55.715  39.769  69.814  0.00  0.00    +0.000 C 
ENDBRANCH   4  12
TORSDOF 1
ENDMDL
MODEL 8
REMARK VINA RESULT:      -3.9     24.883     25.972
REMARK  Name = 5386_Tegafur.pdbqt.pdb
REMARK  1 active torsions:
REMARK  status: ('A' for Active; 'I' for Inactive)
REMARK    1  A    between atoms: N_4  and  C_12
REMARK                            x       y       z     vdW  Elec       q    Type
REMARK                         _______ _______ _______ _____ _____    ______ ____
ROOT
ATOM      1  F   UNL     1      59.071  66.947  70.396  0.00  0.00    +0.000 F 
ATOM      2  O   UNL     1      58.712  63.359  66.335  0.00  0.00    +0.000 OA
ATOM      3  O   UNL     1      61.343  65.656  69.315  0.00  0.00    +0.000 OA
ATOM      4  N   UNL     1      57.635  64.654  67.996  0.00  0.00    +0.000 N 
ATOM      5  N   UNL     1      59.975  64.461  67.900  0.00  0.00    +0.000 N 
ATOM      6  C   UNL     1      58.740  64.088  67.319  0.00  0.00    +0.000 C 
ATOM      7  C   UNL     1      57.900  65.443  69.057  0.00  0.00    +0.000 C 
ATOM      8  C   UNL     1      58.975  65.833  69.653  0.00  0.00    +0.000 C 
ATOM      9  C   UNL     1      60.213  65.328  68.974  0.00  0.00    +0.000 C 
ATOM     10  H   UNL     1      60.796  64.112  67.426  0.00  0.00    +0.000 HD
ENDROOT
BRANCH   4  12
ATOM     11  O   UNL     1      55.601  65.380  66.888  0.00  0.00    +0.000 OA
ATOM     12  C   UNL     1      56.335  64.449  67.633  0.00  0.00    +0.000 C 
ATOM     13  C   UNL     1      55.493  63.339  67.911  0.00  0.00    +0.000 C 
ATOM     14  C   UNL     1      54.043  63.274  67.428  0.00  0.00    +0.000 C 
ATOM     15  C   UNL     1      54.492  64.629  66.884  0.00  0.00    +0.000 C 
ENDBRANCH   4  12
TORSDOF 1
ENDMDL
MODEL 9
REMARK VINA RESULT:      -3.8      2.676      3.103
REMARK  Name = 5386_Tegafur.pdbqt.pdb
REMARK  1 active torsions:
REMARK  status: ('A' for Active; 'I' for Inactive)
REMARK    1  A    between atoms: N_4  and  C_12
REMARK                            x       y       z     vdW  Elec       q    Type
REMARK                         _______ _______ _______ _____ _____    ______ ____
ROOT
ATOM      1  F   UNL     1      60.580  34.867  68.274  0.00  0.00    +0.000 F 
ATOM      2  O   UNL     1      61.611  39.366  65.410  0.00  0.00    +0.000 OA
ATOM      3  O   UNL     1      59.215  35.476  65.873  0.00  0.00    +0.000 OA
ATOM      4  N   UNL     1      61.871  38.134  67.413  0.00  0.00    +0.000 N 
ATOM      5  N   UNL     1      60.377  37.459  65.730  0.00  0.00    +0.000 N 
ATOM      6  C   UNL     1      61.331  38.421  66.139  0.00  0.00    +0.000 C 
ATOM      7  C   UNL     1      61.425  37.025  68.037  0.00  0.00    +0.000 C 
ATOM      8  C   UNL     1      60.569  36.103  67.750  0.00  0.00    +0.000 C 
ATOM      9  C   UNL     1      59.976  36.287  66.386  0.00  0.00    +0.000 C 
ATOM     10  H   UNL     1      59.992  37.600  64.807  0.00  0.00    +0.000 HD
ENDROOT
BRANCH   4  12
ATOM     11  O   UNL     1      62.515  40.153  68.598  0.00  0.00    +0.000 OA
ATOM     12  C   UNL     1      62.811  38.907  68.031  0.00  0.00    +0.000 C 
ATOM     13  C   UNL     1      64.196  38.651  68.220  0.00  0.00    +0.000 C 
ATOM     14  C   UNL     1      65.118  39.639  68.937  0.00  0.00    +0.000 C 
ATOM     15  C   UNL     1      63.775  40.366  68.998  0.00  0.00    +0.000 C 
ENDBRANCH   4  12
TORSDOF 1
ENDMDL
