MODEL 1
REMARK VINA RESULT:      -5.5      0.000      0.000
REMARK  Name = 5470187_Zerumbone.pdbqt.pdb
REMARK  0 active torsions:
REMARK  status: ('A' for Active; 'I' for Inactive)
REMARK                            x       y       z     vdW  Elec       q    Type
REMARK                         _______ _______ _______ _____ _____    ______ ____
ROOT
ATOM      1  O   UNL     1      59.103  54.677  58.812  0.00  0.00    +0.000 OA
ATOM      2  C   UNL     1      63.948  54.636  59.443  0.00  0.00    +0.000 C 
ATOM      3  C   UNL     1      64.577  53.294  59.482  0.00  0.00    +0.000 C 
ATOM      4  C   UNL     1      64.525  55.458  58.266  0.00  0.00    +0.000 C 
ATOM      5  C   UNL     1      64.188  55.361  60.791  0.00  0.00    +0.000 C 
ATOM      6  C   UNL     1      62.480  54.411  59.242  0.00  0.00    +0.000 C 
ATOM      7  C   UNL     1      64.823  51.775  59.465  0.00  0.00    +0.000 C 
ATOM      8  C   UNL     1      64.597  50.497  59.389  0.00  0.00    +0.000 C 
ATOM      9  C   UNL     1      63.212  50.231  59.232  0.00  0.00    +0.000 C 
ATOM     10  C   UNL     1      61.726  50.555  59.065  0.00  0.00    +0.000 C 
ATOM     11  C   UNL     1      61.315  54.139  59.084  0.00  0.00    +0.000 C 
ATOM     12  C   UNL     1      65.612  49.585  58.783  0.00  0.00    +0.000 C 
ATOM     13  C   UNL     1      60.454  51.395  58.922  0.00  0.00    +0.000 C 
ATOM     14  C   UNL     1      59.528  52.304  58.822  0.00  0.00    +0.000 C 
ATOM     15  C   UNL     1      59.913  53.761  58.897  0.00  0.00    +0.000 C 
ATOM     16  C   UNL     1      58.108  51.823  58.647  0.00  0.00    +0.000 C 
ENDROOT
TORSDOF 0
ENDMDL
MODEL 2
REMARK VINA RESULT:      -5.4     28.995     31.033
REMARK  Name = 5470187_Zerumbone.pdbqt.pdb
REMARK  0 active torsions:
REMARK  status: ('A' for Active; 'I' for Inactive)
REMARK                            x       y       z     vdW  Elec       q    Type
REMARK                         _______ _______ _______ _____ _____    ______ ____
ROOT
ATOM      1  O   UNL     1      57.655  70.890  79.816  0.00  0.00    +0.000 OA
ATOM      2  C   UNL     1      59.017  75.391  78.491  0.00  0.00    +0.000 C 
ATOM      3  C   UNL     1      59.443  76.282  79.596  0.00  0.00    +0.000 C 
ATOM      4  C   UNL     1      60.182  75.193  77.492  0.00  0.00    +0.000 C 
ATOM      5  C   UNL     1      57.781  75.998  77.782  0.00  0.00    +0.000 C 
ATOM      6  C   UNL     1      58.651  74.081  79.119  0.00  0.00    +0.000 C 
ATOM      7  C   UNL     1      59.795  76.860  80.979  0.00  0.00    +0.000 C 
ATOM      8  C   UNL     1      59.974  76.941  82.264  0.00  0.00    +0.000 C 
ATOM      9  C   UNL     1      59.607  75.733  82.910  0.00  0.00    +0.000 C 
ATOM     10  C   UNL     1      59.116  74.287  83.019  0.00  0.00    +0.000 C 
ATOM     11  C   UNL     1      58.373  73.065  79.707  0.00  0.00    +0.000 C 
ATOM     12  C   UNL     1      61.068  77.790  82.821  0.00  0.00    +0.000 C 
ATOM     13  C   UNL     1      58.607  72.913  82.574  0.00  0.00    +0.000 C 
ATOM     14  C   UNL     1      58.187  71.843  81.965  0.00  0.00    +0.000 C 
ATOM     15  C   UNL     1      58.043  71.855  80.464  0.00  0.00    +0.000 C 
ATOM     16  C   UNL     1      57.856  70.648  82.826  0.00  0.00    +0.000 C 
ENDROOT
TORSDOF 0
ENDMDL
MODEL 3
REMARK VINA RESULT:      -5.4     17.649     20.791
REMARK  Name = 5470187_Zerumbone.pdbqt.pdb
REMARK  0 active torsions:
REMARK  status: ('A' for Active; 'I' for Inactive)
REMARK                            x       y       z     vdW  Elec       q    Type
REMARK                         _______ _______ _______ _____ _____    ______ ____
ROOT
ATOM      1  O   UNL     1      62.223  74.065  70.121  0.00  0.00    +0.000 OA
ATOM      2  C   UNL     1      61.082  69.525  68.721  0.00  0.00    +0.000 C 
ATOM      3  C   UNL     1      62.195  68.734  68.144  0.00  0.00    +0.000 C 
ATOM      4  C   UNL     1      60.538  68.825  69.990  0.00  0.00    +0.000 C 
ATOM      5  C   UNL     1      59.963  69.694  67.663  0.00  0.00    +0.000 C 
ATOM      6  C   UNL     1      61.652  70.864  69.077  0.00  0.00    +0.000 C 
ATOM      7  C   UNL     1      63.569  68.275  67.623  0.00  0.00    +0.000 C 
ATOM      8  C   UNL     1      64.832  68.294  67.315  0.00  0.00    +0.000 C 
ATOM      9  C   UNL     1      65.411  69.556  67.602  0.00  0.00    +0.000 C 
ATOM     10  C   UNL     1      65.462  70.999  68.109  0.00  0.00    +0.000 C 
ATOM     11  C   UNL     1      62.191  71.914  69.327  0.00  0.00    +0.000 C 
ATOM     12  C   UNL     1      65.652  67.050  67.414  0.00  0.00    +0.000 C 
ATOM     13  C   UNL     1      64.979  72.316  68.725  0.00  0.00    +0.000 C 
ATOM     14  C   UNL     1      64.349  73.317  69.267  0.00  0.00    +0.000 C 
ATOM     15  C   UNL     1      62.887  73.171  69.609  0.00  0.00    +0.000 C 
ATOM     16  C   UNL     1      65.141  74.579  69.508  0.00  0.00    +0.000 C 
ENDROOT
TORSDOF 0
ENDMDL
MODEL 4
REMARK VINA RESULT:      -5.3     13.193     15.698
REMARK  Name = 5470187_Zerumbone.pdbqt.pdb
REMARK  0 active torsions:
REMARK  status: ('A' for Active; 'I' for Inactive)
REMARK                            x       y       z     vdW  Elec       q    Type
REMARK                         _______ _______ _______ _____ _____    ______ ____
ROOT
ATOM      1  O   UNL     1      71.106  40.491  67.781  0.00  0.00    +0.000 OA
ATOM      2  C   UNL     1      70.605  39.401  63.045  0.00  0.00    +0.000 C 
ATOM      3  C   UNL     1      70.530  40.561  62.125  0.00  0.00    +0.000 C 
ATOM      4  C   UNL     1      71.828  38.522  62.692  0.00  0.00    +0.000 C 
ATOM      5  C   UNL     1      69.293  38.581  62.953  0.00  0.00    +0.000 C 
ATOM      6  C   UNL     1      70.758  39.962  64.426  0.00  0.00    +0.000 C 
ATOM      7  C   UNL     1      70.494  41.984  61.539  0.00  0.00    +0.000 C 
ATOM      8  C   UNL     1      70.515  43.281  61.468  0.00  0.00    +0.000 C 
ATOM      9  C   UNL     1      70.624  43.863  62.758  0.00  0.00    +0.000 C 
ATOM     10  C   UNL     1      70.763  43.893  64.281  0.00  0.00    +0.000 C 
ATOM     11  C   UNL     1      70.873  40.499  65.500  0.00  0.00    +0.000 C 
ATOM     12  C   UNL     1      71.111  43.964  60.282  0.00  0.00    +0.000 C 
ATOM     13  C   UNL     1      70.904  43.372  65.714  0.00  0.00    +0.000 C 
ATOM     14  C   UNL     1      71.015  42.702  66.825  0.00  0.00    +0.000 C 
ATOM     15  C   UNL     1      71.007  41.194  66.782  0.00  0.00    +0.000 C 
ATOM     16  C   UNL     1      71.133  43.501  68.100  0.00  0.00    +0.000 C 
ENDROOT
TORSDOF 0
ENDMDL
MODEL 5
REMARK VINA RESULT:      -5.3      7.187      9.686
REMARK  Name = 5470187_Zerumbone.pdbqt.pdb
REMARK  0 active torsions:
REMARK  status: ('A' for Active; 'I' for Inactive)
REMARK                            x       y       z     vdW  Elec       q    Type
REMARK                         _______ _______ _______ _____ _____    ______ ____
ROOT
ATOM      1  O   UNL     1      59.189  46.096  54.373  0.00  0.00    +0.000 OA
ATOM      2  C   UNL     1      62.789  42.833  53.857  0.00  0.00    +0.000 C 
ATOM      3  C   UNL     1      64.159  43.348  54.094  0.00  0.00    +0.000 C 
ATOM      4  C   UNL     1      62.468  41.701  54.862  0.00  0.00    +0.000 C 
ATOM      5  C   UNL     1      62.671  42.325  52.399  0.00  0.00    +0.000 C 
ATOM      6  C   UNL     1      61.859  43.988  54.070  0.00  0.00    +0.000 C 
ATOM      7  C   UNL     1      65.366  44.249  54.413  0.00  0.00    +0.000 C 
ATOM      8  C   UNL     1      66.061  45.299  54.733  0.00  0.00    +0.000 C 
ATOM      9  C   UNL     1      65.225  46.431  54.912  0.00  0.00    +0.000 C 
ATOM     10  C   UNL     1      63.913  47.215  54.984  0.00  0.00    +0.000 C 
ATOM     11  C   UNL     1      61.184  44.971  54.255  0.00  0.00    +0.000 C 
ATOM     12  C   UNL     1      67.319  45.160  55.525  0.00  0.00    +0.000 C 
ATOM     13  C   UNL     1      62.407  47.489  54.934  0.00  0.00    +0.000 C 
ATOM     14  C   UNL     1      61.110  47.478  54.836  0.00  0.00    +0.000 C 
ATOM     15  C   UNL     1      60.406  46.191  54.484  0.00  0.00    +0.000 C 
ATOM     16  C   UNL     1      60.391  48.784  55.074  0.00  0.00    +0.000 C 
ENDROOT
TORSDOF 0
ENDMDL
MODEL 6
REMARK VINA RESULT:      -5.3     26.940     29.340
REMARK  Name = 5470187_Zerumbone.pdbqt.pdb
REMARK  0 active torsions:
REMARK  status: ('A' for Active; 'I' for Inactive)
REMARK                            x       y       z     vdW  Elec       q    Type
REMARK                         _______ _______ _______ _____ _____    ______ ____
ROOT
ATOM      1  O   UNL     1      54.547  66.731  82.500  0.00  0.00    +0.000 OA
ATOM      2  C   UNL     1      57.847  69.876  84.258  0.00  0.00    +0.000 C 
ATOM      3  C   UNL     1      58.292  70.931  83.316  0.00  0.00    +0.000 C 
ATOM      4  C   UNL     1      57.185  70.519  85.500  0.00  0.00    +0.000 C 
ATOM      5  C   UNL     1      59.060  69.005  84.670  0.00  0.00    +0.000 C 
ATOM      6  C   UNL     1      56.849  69.040  83.519  0.00  0.00    +0.000 C 
ATOM      7  C   UNL     1      58.477  71.825  82.077  0.00  0.00    +0.000 C 
ATOM      8  C   UNL     1      58.333  72.300  80.876  0.00  0.00    +0.000 C 
ATOM      9  C   UNL     1      57.420  71.519  80.122  0.00  0.00    +0.000 C 
ATOM     10  C   UNL     1      56.418  70.395  79.852  0.00  0.00    +0.000 C 
ATOM     11  C   UNL     1      56.061  68.418  82.848  0.00  0.00    +0.000 C 
ATOM     12  C   UNL     1      58.456  73.767  80.624  0.00  0.00    +0.000 C 
ATOM     13  C   UNL     1      55.539  69.169  80.117  0.00  0.00    +0.000 C 
ATOM     14  C   UNL     1      54.891  68.137  80.573  0.00  0.00    +0.000 C 
ATOM     15  C   UNL     1      55.117  67.692  81.996  0.00  0.00    +0.000 C 
ATOM     16  C   UNL     1      53.950  67.441  79.619  0.00  0.00    +0.000 C 
ENDROOT
TORSDOF 0
ENDMDL
MODEL 7
REMARK VINA RESULT:      -5.1      5.451      7.687
REMARK  Name = 5470187_Zerumbone.pdbqt.pdb
REMARK  0 active torsions:
REMARK  status: ('A' for Active; 'I' for Inactive)
REMARK                            x       y       z     vdW  Elec       q    Type
REMARK                         _______ _______ _______ _____ _____    ______ ____
ROOT
ATOM      1  O   UNL     1      64.268  61.748  57.981  0.00  0.00    +0.000 OA
ATOM      2  C   UNL     1      60.551  59.001  59.567  0.00  0.00    +0.000 C 
ATOM      3  C   UNL     1      60.927  57.838  60.406  0.00  0.00    +0.000 C 
ATOM      4  C   UNL     1      59.640  59.961  60.368  0.00  0.00    +0.000 C 
ATOM      5  C   UNL     1      59.836  58.505  58.285  0.00  0.00    +0.000 C 
ATOM      6  C   UNL     1      61.829  59.691  59.201  0.00  0.00    +0.000 C 
ATOM      7  C   UNL     1      61.712  56.784  61.206  0.00  0.00    +0.000 C 
ATOM      8  C   UNL     1      62.708  56.144  61.744  0.00  0.00    +0.000 C 
ATOM      9  C   UNL     1      63.947  56.741  61.397  0.00  0.00    +0.000 C 
ATOM     10  C   UNL     1      64.886  57.762  60.750  0.00  0.00    +0.000 C 
ATOM     11  C   UNL     1      62.904  60.180  58.950  0.00  0.00    +0.000 C 
ATOM     12  C   UNL     1      62.544  55.461  63.061  0.00  0.00    +0.000 C 
ATOM     13  C   UNL     1      65.330  58.985  59.943  0.00  0.00    +0.000 C 
ATOM     14  C   UNL     1      65.461  60.059  59.219  0.00  0.00    +0.000 C 
ATOM     15  C   UNL     1      64.229  60.735  58.670  0.00  0.00    +0.000 C 
ATOM     16  C   UNL     1      66.866  60.551  58.969  0.00  0.00    +0.000 C 
ENDROOT
TORSDOF 0
ENDMDL
MODEL 8
REMARK VINA RESULT:      -5.0     17.959     20.906
REMARK  Name = 5470187_Zerumbone.pdbqt.pdb
REMARK  0 active torsions:
REMARK  status: ('A' for Active; 'I' for Inactive)
REMARK                            x       y       z     vdW  Elec       q    Type
REMARK                         _______ _______ _______ _____ _____    ______ ____
ROOT
ATOM      1  O   UNL     1      72.540  64.775  68.960  0.00  0.00    +0.000 OA
ATOM      2  C   UNL     1      76.013  65.795  72.242  0.00  0.00    +0.000 C 
ATOM      3  C   UNL     1      76.463  64.653  73.073  0.00  0.00    +0.000 C 
ATOM      4  C   UNL     1      77.201  66.356  71.425  0.00  0.00    +0.000 C 
ATOM      5  C   UNL     1      75.404  66.890  73.152  0.00  0.00    +0.000 C 
ATOM      6  C   UNL     1      74.962  65.259  71.318  0.00  0.00    +0.000 C 
ATOM      7  C   UNL     1      76.639  63.258  73.700  0.00  0.00    +0.000 C 
ATOM      8  C   UNL     1      76.479  61.989  73.931  0.00  0.00    +0.000 C 
ATOM      9  C   UNL     1      75.467  61.441  73.102  0.00  0.00    +0.000 C 
ATOM     10  C   UNL     1      74.392  61.430  72.013  0.00  0.00    +0.000 C 
ATOM     11  C   UNL     1      74.125  64.746  70.617  0.00  0.00    +0.000 C 
ATOM     12  C   UNL     1      77.635  61.148  74.362  0.00  0.00    +0.000 C 
ATOM     13  C   UNL     1      73.482  61.952  70.897  0.00  0.00    +0.000 C 
ATOM     14  C   UNL     1      72.824  62.614  69.990  0.00  0.00    +0.000 C 
ATOM     15  C   UNL     1      73.114  64.081  69.792  0.00  0.00    +0.000 C 
ATOM     16  C   UNL     1      71.791  61.852  69.197  0.00  0.00    +0.000 C 
ENDROOT
TORSDOF 0
ENDMDL
MODEL 9
REMARK VINA RESULT:      -5.0     13.022     16.413
REMARK  Name = 5470187_Zerumbone.pdbqt.pdb
REMARK  0 active torsions:
REMARK  status: ('A' for Active; 'I' for Inactive)
REMARK                            x       y       z     vdW  Elec       q    Type
REMARK                         _______ _______ _______ _____ _____    ______ ____
ROOT
ATOM      1  O   UNL     1      73.411  42.920  58.368  0.00  0.00    +0.000 OA
ATOM      2  C   UNL     1      72.845  38.178  59.403  0.00  0.00    +0.000 C 
ATOM      3  C   UNL     1      71.903  37.872  60.505  0.00  0.00    +0.000 C 
ATOM      4  C   UNL     1      72.355  37.525  58.089  0.00  0.00    +0.000 C 
ATOM      5  C   UNL     1      74.261  37.672  59.775  0.00  0.00    +0.000 C 
ATOM      6  C   UNL     1      72.860  39.670  59.260  0.00  0.00    +0.000 C 
ATOM      7  C   UNL     1      70.887  37.982  61.657  0.00  0.00    +0.000 C 
ATOM      8  C   UNL     1      70.077  38.500  62.532  0.00  0.00    +0.000 C 
ATOM      9  C   UNL     1      70.082  39.916  62.459  0.00  0.00    +0.000 C 
ATOM     10  C   UNL     1      70.471  41.297  61.926  0.00  0.00    +0.000 C 
ATOM     11  C   UNL     1      72.816  40.875  59.217  0.00  0.00    +0.000 C 
ATOM     12  C   UNL     1      68.839  37.771  62.938  0.00  0.00    +0.000 C 
ATOM     13  C   UNL     1      71.156  42.351  61.052  0.00  0.00    +0.000 C 
ATOM     14  C   UNL     1      71.844  43.049  60.196  0.00  0.00    +0.000 C 
ATOM     15  C   UNL     1      72.732  42.337  59.206  0.00  0.00    +0.000 C 
ATOM     16  C   UNL     1      71.708  44.551  60.266  0.00  0.00    +0.000 C 
ENDROOT
TORSDOF 0
ENDMDL
