MODEL 1
REMARK VINA RESULT:      -5.5      0.000      0.000
REMARK  Name = 5azacytidine.pdbqt.pdb
REMARK  5 active torsions:
REMARK  status: ('A' for Active; 'I' for Inactive)
REMARK    1  A    between atoms: C2*_2  and  O2*_16
REMARK    2  A    between atoms: C3*_3  and  O3*_21
REMARK    3  A    between atoms: C4*_4  and  C5*_18
REMARK    4  A    between atoms: C1*_5  and  N_6
REMARK    5  A    between atoms: C5*_18  and  O5*_19
REMARK                            x       y       z     vdW  Elec       q    Type
REMARK                         _______ _______ _______ _____ _____    ______ ____
ROOT
ATOM      1  O4* UNL     1      62.629  37.434  54.486  0.00  0.00    +0.000 OA
ATOM      2  C2* UNL     1      62.844  37.513  56.781  0.00  0.00    +0.000 A 
ATOM      3  C3* UNL     1      62.130  38.678  56.354  0.00  0.00    +0.000 A 
ATOM      4  C4* UNL     1      61.996  38.608  54.927  0.00  0.00    +0.000 A 
ATOM      5  C1* UNL     1      63.171  36.754  55.599  0.00  0.00    +0.000 A 
ENDROOT
BRANCH   5   6
ATOM      6  N   UNL     1      63.897  35.611  55.443  0.00  0.00    +0.000 N 
ATOM      7  C   UNL     1      65.251  35.432  55.698  0.00  0.00    +0.000 A 
ATOM      8  O   UNL     1      65.996  36.332  56.079  0.00  0.00    +0.000 OA
ATOM      9  N   UNL     1      65.727  34.143  55.470  0.00  0.00    +0.000 NA
ATOM     10  C   UNL     1      64.922  33.202  55.044  0.00  0.00    +0.000 A 
ATOM     11  N   UNL     1      63.581  33.395  54.764  0.00  0.00    +0.000 NA
ATOM     12  C   UNL     1      63.305  34.502  55.006  0.00  0.00    +0.000 A 
ATOM     13  N   UNL     1      65.430  31.961  54.840  0.00  0.00    +0.000 N 
ATOM     14  H   UNL     1      64.925  31.408  54.161  0.00  0.00    +0.000 HD
ATOM     15  H   UNL     1      66.438  31.947  54.735  0.00  0.00    +0.000 HD
ENDBRANCH   5   6
BRANCH   2  16
ATOM     16  O2* UNL     1      63.604  37.563  57.917  0.00  0.00    +0.000 OA
ATOM     17  H2* UNL     1      63.777  36.668  58.283  0.00  0.00    +0.000 HD
ENDBRANCH   2  16
BRANCH   3  18
ATOM     18  O3* UNL     1      62.255  39.866  57.019  0.00  0.00    +0.000 OA
ATOM     19  H3* UNL     1      61.578  39.927  57.718  0.00  0.00    +0.000 HD
ENDBRANCH   3  18
BRANCH   4  20
ATOM     20  C5* UNL     1      61.618  39.639  54.046  0.00  0.00    +0.000 C 
BRANCH  20  21
ATOM     21  O5* UNL     1      61.261  40.606  53.206  0.00  0.00    +0.000 OA
ATOM     22  H5* UNL     1      62.037  41.142  52.968  0.00  0.00    +0.000 HD
ENDBRANCH  20  21
ENDBRANCH   4  20
TORSDOF 5
ENDMDL
MODEL 2
REMARK VINA RESULT:      -5.1      1.839      2.232
REMARK  Name = 5azacytidine.pdbqt.pdb
REMARK  5 active torsions:
REMARK  status: ('A' for Active; 'I' for Inactive)
REMARK    1  A    between atoms: C2*_2  and  O2*_16
REMARK    2  A    between atoms: C3*_3  and  O3*_21
REMARK    3  A    between atoms: C4*_4  and  C5*_18
REMARK    4  A    between atoms: C1*_5  and  N_6
REMARK    5  A    between atoms: C5*_18  and  O5*_19
REMARK                            x       y       z     vdW  Elec       q    Type
REMARK                         _______ _______ _______ _____ _____    ______ ____
ROOT
ATOM      1  O4* UNL     1      63.048  38.559  55.066  0.00  0.00    +0.000 OA
ATOM      2  C2* UNL     1      61.508  37.239  56.165  0.00  0.00    +0.000 A 
ATOM      3  C3* UNL     1      60.924  38.528  55.947  0.00  0.00    +0.000 A 
ATOM      4  C4* UNL     1      61.890  39.332  55.254  0.00  0.00    +0.000 A 
ATOM      5  C1* UNL     1      62.847  37.280  55.628  0.00  0.00    +0.000 A 
ENDROOT
BRANCH   5   6
ATOM      6  N   UNL     1      63.842  36.349  55.640  0.00  0.00    +0.000 N 
ATOM      7  C   UNL     1      63.705  34.967  55.581  0.00  0.00    +0.000 A 
ATOM      8  O   UNL     1      62.619  34.393  55.542  0.00  0.00    +0.000 OA
ATOM      9  N   UNL     1      64.902  34.256  55.588  0.00  0.00    +0.000 NA
ATOM     10  C   UNL     1      66.049  34.885  55.651  0.00  0.00    +0.000 A 
ATOM     11  N   UNL     1      66.177  36.260  55.739  0.00  0.00    +0.000 NA
ATOM     12  C   UNL     1      65.113  36.736  55.711  0.00  0.00    +0.000 A 
ATOM     13  N   UNL     1      67.189  34.149  55.651  0.00  0.00    +0.000 N 
ATOM     14  H   UNL     1      67.978  34.601  56.094  0.00  0.00    +0.000 HD
ATOM     15  H   UNL     1      67.048  33.182  55.916  0.00  0.00    +0.000 HD
ENDBRANCH   5   6
BRANCH   2  16
ATOM     16  O2* UNL     1      61.114  36.490  57.239  0.00  0.00    +0.000 OA
ATOM     17  H2* UNL     1      60.137  36.405  57.289  0.00  0.00    +0.000 HD
ENDBRANCH   2  16
BRANCH   3  18
ATOM     18  O3* UNL     1      60.035  39.060  56.838  0.00  0.00    +0.000 OA
ATOM     19  H3* UNL     1      59.129  38.775  56.612  0.00  0.00    +0.000 HD
ENDBRANCH   3  18
BRANCH   4  20
ATOM     20  C5* UNL     1      61.875  40.728  55.070  0.00  0.00    +0.000 C 
BRANCH  20  21
ATOM     21  O5* UNL     1      61.852  42.046  54.894  0.00  0.00    +0.000 OA
ATOM     22  H5* UNL     1      61.259  42.272  54.157  0.00  0.00    +0.000 HD
ENDBRANCH  20  21
ENDBRANCH   4  20
TORSDOF 5
ENDMDL
MODEL 3
REMARK VINA RESULT:      -5.0     53.428     55.080
REMARK  Name = 5azacytidine.pdbqt.pdb
REMARK  5 active torsions:
REMARK  status: ('A' for Active; 'I' for Inactive)
REMARK    1  A    between atoms: C2*_2  and  O2*_16
REMARK    2  A    between atoms: C3*_3  and  O3*_21
REMARK    3  A    between atoms: C4*_4  and  C5*_18
REMARK    4  A    between atoms: C1*_5  and  N_6
REMARK    5  A    between atoms: C5*_18  and  O5*_19
REMARK                            x       y       z     vdW  Elec       q    Type
REMARK                         _______ _______ _______ _____ _____    ______ ____
ROOT
ATOM      1  O4* UNL     1      73.651  83.805  84.177  0.00  0.00    +0.000 OA
ATOM      2  C2* UNL     1      72.327  82.014  84.777  0.00  0.00    +0.000 A 
ATOM      3  C3* UNL     1      71.638  83.220  85.122  0.00  0.00    +0.000 A 
ATOM      4  C4* UNL     1      72.468  84.323  84.733  0.00  0.00    +0.000 A 
ATOM      5  C1* UNL     1      73.597  82.395  84.207  0.00  0.00    +0.000 A 
ENDROOT
BRANCH   5   6
ATOM      6  N   UNL     1      74.649  81.639  83.785  0.00  0.00    +0.000 N 
ATOM      7  C   UNL     1      75.288  80.619  84.480  0.00  0.00    +0.000 A 
ATOM      8  O   UNL     1      74.987  80.284  85.624  0.00  0.00    +0.000 OA
ATOM      9  N   UNL     1      76.327  79.998  83.792  0.00  0.00    +0.000 NA
ATOM     10  C   UNL     1      76.646  80.383  82.581  0.00  0.00    +0.000 A 
ATOM     11  N   UNL     1      76.025  81.419  81.906  0.00  0.00    +0.000 NA
ATOM     12  C   UNL     1      75.173  81.843  82.578  0.00  0.00    +0.000 A 
ATOM     13  N   UNL     1      77.663  79.745  81.948  0.00  0.00    +0.000 N 
ATOM     14  H   UNL     1      78.129  80.299  81.242  0.00  0.00    +0.000 HD
ATOM     15  H   UNL     1      78.282  79.247  82.576  0.00  0.00    +0.000 HD
ENDBRANCH   5   6
BRANCH   2  16
ATOM     16  O2* UNL     1      72.100  80.874  85.498  0.00  0.00    +0.000 OA
ATOM     17  H2* UNL     1      71.184  80.540  85.378  0.00  0.00    +0.000 HD
ENDBRANCH   2  16
BRANCH   3  18
ATOM     18  O3* UNL     1      70.812  83.274  86.210  0.00  0.00    +0.000 OA
ATOM     19  H3* UNL     1      71.214  82.790  86.955  0.00  0.00    +0.000 HD
ENDBRANCH   3  18
BRANCH   4  20
ATOM     20  C5* UNL     1      72.340  85.673  85.112  0.00  0.00    +0.000 C 
BRANCH  20  21
ATOM     21  O5* UNL     1      72.223  86.951  85.461  0.00  0.00    +0.000 OA
ATOM     22  H5* UNL     1      71.476  87.061  86.074  0.00  0.00    +0.000 HD
ENDBRANCH  20  21
ENDBRANCH   4  20
TORSDOF 5
ENDMDL
MODEL 4
REMARK VINA RESULT:      -4.9      1.853      2.846
REMARK  Name = 5azacytidine.pdbqt.pdb
REMARK  5 active torsions:
REMARK  status: ('A' for Active; 'I' for Inactive)
REMARK    1  A    between atoms: C2*_2  and  O2*_16
REMARK    2  A    between atoms: C3*_3  and  O3*_21
REMARK    3  A    between atoms: C4*_4  and  C5*_18
REMARK    4  A    between atoms: C1*_5  and  N_6
REMARK    5  A    between atoms: C5*_18  and  O5*_19
REMARK                            x       y       z     vdW  Elec       q    Type
REMARK                         _______ _______ _______ _____ _____    ______ ____
ROOT
ATOM      1  O4* UNL     1      62.212  37.481  56.075  0.00  0.00    +0.000 OA
ATOM      2  C2* UNL     1      63.025  38.663  54.269  0.00  0.00    +0.000 A 
ATOM      3  C3* UNL     1      61.868  39.341  54.769  0.00  0.00    +0.000 A 
ATOM      4  C4* UNL     1      61.381  38.600  55.897  0.00  0.00    +0.000 A 
ATOM      5  C1* UNL     1      63.215  37.487  55.083  0.00  0.00    +0.000 A 
ENDROOT
BRANCH   5   6
ATOM      6  N   UNL     1      64.121  36.472  54.988  0.00  0.00    +0.000 N 
ATOM      7  C   UNL     1      64.286  35.586  53.930  0.00  0.00    +0.000 A 
ATOM      8  O   UNL     1      63.582  35.591  52.923  0.00  0.00    +0.000 OA
ATOM      9  N   UNL     1      65.311  34.658  54.095  0.00  0.00    +0.000 NA
ATOM     10  C   UNL     1      66.037  34.655  55.185  0.00  0.00    +0.000 A 
ATOM     11  N   UNL     1      65.848  35.521  56.247  0.00  0.00    +0.000 NA
ATOM     12  C   UNL     1      64.977  36.250  55.982  0.00  0.00    +0.000 A 
ATOM     13  N   UNL     1      67.027  33.734  55.299  0.00  0.00    +0.000 N 
ATOM     14  H   UNL     1      67.272  33.499  56.252  0.00  0.00    +0.000 HD
ATOM     15  H   UNL     1      66.916  32.940  54.679  0.00  0.00    +0.000 HD
ENDBRANCH   5   6
BRANCH   2  16
ATOM     16  O2* UNL     1      63.349  38.762  52.944  0.00  0.00    +0.000 OA
ATOM     17  H2* UNL     1      63.077  39.626  52.564  0.00  0.00    +0.000 HD
ENDBRANCH   2  16
BRANCH   3  18
ATOM     18  O3* UNL     1      61.034  40.026  53.929  0.00  0.00    +0.000 OA
ATOM     19  H3* UNL     1      60.465  40.628  54.446  0.00  0.00    +0.000 HD
ENDBRANCH   3  18
BRANCH   4  20
ATOM     20  C5* UNL     1      60.131  38.723  56.533  0.00  0.00    +0.000 C 
BRANCH  20  21
ATOM     21  O5* UNL     1      58.956  38.838  57.144  0.00  0.00    +0.000 OA
ATOM     22  H5* UNL     1      58.265  39.059  56.495  0.00  0.00    +0.000 HD
ENDBRANCH  20  21
ENDBRANCH   4  20
TORSDOF 5
ENDMDL
MODEL 5
REMARK VINA RESULT:      -4.9     12.808     14.499
REMARK  Name = 5azacytidine.pdbqt.pdb
REMARK  5 active torsions:
REMARK  status: ('A' for Active; 'I' for Inactive)
REMARK    1  A    between atoms: C2*_2  and  O2*_16
REMARK    2  A    between atoms: C3*_3  and  O3*_21
REMARK    3  A    between atoms: C4*_4  and  C5*_18
REMARK    4  A    between atoms: C1*_5  and  N_6
REMARK    5  A    between atoms: C5*_18  and  O5*_19
REMARK                            x       y       z     vdW  Elec       q    Type
REMARK                         _______ _______ _______ _____ _____    ______ ____
ROOT
ATOM      1  O4* UNL     1      61.176  37.038  67.915  0.00  0.00    +0.000 OA
ATOM      2  C2* UNL     1      60.926  39.211  67.183  0.00  0.00    +0.000 A 
ATOM      3  C3* UNL     1      61.299  38.398  66.065  0.00  0.00    +0.000 A 
ATOM      4  C4* UNL     1      61.440  37.049  66.534  0.00  0.00    +0.000 A 
ATOM      5  C1* UNL     1      60.876  38.350  68.339  0.00  0.00    +0.000 A 
ENDROOT
BRANCH   5   6
ATOM      6  N   UNL     1      60.643  38.631  69.652  0.00  0.00    +0.000 N 
ATOM      7  C   UNL     1      61.090  39.733  70.371  0.00  0.00    +0.000 A 
ATOM      8  O   UNL     1      61.809  40.609  69.894  0.00  0.00    +0.000 OA
ATOM      9  N   UNL     1      60.679  39.776  71.700  0.00  0.00    +0.000 NA
ATOM     10  C   UNL     1      59.930  38.823  72.196  0.00  0.00    +0.000 A 
ATOM     11  N   UNL     1      59.512  37.713  71.483  0.00  0.00    +0.000 NA
ATOM     12  C   UNL     1      59.907  37.802  70.390  0.00  0.00    +0.000 A 
ATOM     13  N   UNL     1      59.551  38.909  73.496  0.00  0.00    +0.000 N 
ATOM     14  H   UNL     1      59.346  38.020  73.932  0.00  0.00    +0.000 HD
ATOM     15  H   UNL     1      60.131  39.531  74.047  0.00  0.00    +0.000 HD
ENDBRANCH   5   6
BRANCH   2  16
ATOM     16  O2* UNL     1      61.271  40.534  67.203  0.00  0.00    +0.000 OA
ATOM     17  H2* UNL     1      62.231  40.661  67.366  0.00  0.00    +0.000 HD
ENDBRANCH   2  16
BRANCH   3  18
ATOM     18  O3* UNL     1      62.063  38.901  65.049  0.00  0.00    +0.000 OA
ATOM     19  H3* UNL     1      62.308  38.185  64.433  0.00  0.00    +0.000 HD
ENDBRANCH   3  18
BRANCH   4  20
ATOM     20  C5* UNL     1      62.049  35.966  65.872  0.00  0.00    +0.000 C 
BRANCH  20  21
ATOM     21  O5* UNL     1      62.614  34.939  65.245  0.00  0.00    +0.000 OA
ATOM     22  H5* UNL     1      62.626  35.100  64.286  0.00  0.00    +0.000 HD
ENDBRANCH  20  21
ENDBRANCH   4  20
TORSDOF 5
ENDMDL
MODEL 6
REMARK VINA RESULT:      -4.7     11.538     13.142
REMARK  Name = 5azacytidine.pdbqt.pdb
REMARK  5 active torsions:
REMARK  status: ('A' for Active; 'I' for Inactive)
REMARK    1  A    between atoms: C2*_2  and  O2*_16
REMARK    2  A    between atoms: C3*_3  and  O3*_21
REMARK    3  A    between atoms: C4*_4  and  C5*_18
REMARK    4  A    between atoms: C1*_5  and  N_6
REMARK    5  A    between atoms: C5*_18  and  O5*_19
REMARK                            x       y       z     vdW  Elec       q    Type
REMARK                         _______ _______ _______ _____ _____    ______ ____
ROOT
ATOM      1  O4* UNL     1      60.014  37.446  66.051  0.00  0.00    +0.000 OA
ATOM      2  C2* UNL     1      58.576  37.972  67.777  0.00  0.00    +0.000 A 
ATOM      3  C3* UNL     1      57.894  37.098  66.871  0.00  0.00    +0.000 A 
ATOM      4  C4* UNL     1      58.805  36.772  65.811  0.00  0.00    +0.000 A 
ATOM      5  C1* UNL     1      59.896  38.200  67.238  0.00  0.00    +0.000 A 
ENDROOT
BRANCH   5   6
ATOM      6  N   UNL     1      60.909  39.003  67.670  0.00  0.00    +0.000 N 
ATOM      7  C   UNL     1      60.846  40.361  67.954  0.00  0.00    +0.000 A 
ATOM      8  O   UNL     1      59.830  41.039  67.814  0.00  0.00    +0.000 OA
ATOM      9  N   UNL     1      62.038  40.925  68.401  0.00  0.00    +0.000 NA
ATOM     10  C   UNL     1      63.115  40.192  68.526  0.00  0.00    +0.000 A 
ATOM     11  N   UNL     1      63.179  38.845  68.212  0.00  0.00    +0.000 NA
ATOM     12  C   UNL     1      62.123  38.493  67.866  0.00  0.00    +0.000 A 
ATOM     13  N   UNL     1      64.253  40.784  68.969  0.00  0.00    +0.000 N 
ATOM     14  H   UNL     1      65.105  40.327  68.673  0.00  0.00    +0.000 HD
ATOM     15  H   UNL     1      64.251  41.792  68.866  0.00  0.00    +0.000 HD
ENDBRANCH   5   6
BRANCH   2  16
ATOM     16  O2* UNL     1      57.862  38.875  68.514  0.00  0.00    +0.000 OA
ATOM     17  H2* UNL     1      58.351  39.718  68.637  0.00  0.00    +0.000 HD
ENDBRANCH   2  16
BRANCH   3  18
ATOM     18  O3* UNL     1      56.546  37.201  66.671  0.00  0.00    +0.000 OA
ATOM     19  H3* UNL     1      56.364  37.380  65.729  0.00  0.00    +0.000 HD
ENDBRANCH   3  18
BRANCH   4  20
ATOM     20  C5* UNL     1      58.504  36.178  64.570  0.00  0.00    +0.000 C 
BRANCH  20  21
ATOM     21  O5* UNL     1      58.217  35.626  63.395  0.00  0.00    +0.000 OA
ATOM     22  H5* UNL     1      59.012  35.207  63.021  0.00  0.00    +0.000 HD
ENDBRANCH  20  21
ENDBRANCH   4  20
TORSDOF 5
ENDMDL
MODEL 7
REMARK VINA RESULT:      -4.7      2.843      5.321
REMARK  Name = 5azacytidine.pdbqt.pdb
REMARK  5 active torsions:
REMARK  status: ('A' for Active; 'I' for Inactive)
REMARK    1  A    between atoms: C2*_2  and  O2*_16
REMARK    2  A    between atoms: C3*_3  and  O3*_21
REMARK    3  A    between atoms: C4*_4  and  C5*_18
REMARK    4  A    between atoms: C1*_5  and  N_6
REMARK    5  A    between atoms: C5*_18  and  O5*_19
REMARK                            x       y       z     vdW  Elec       q    Type
REMARK                         _______ _______ _______ _____ _____    ______ ____
ROOT
ATOM      1  O4* UNL     1      63.994  36.324  53.449  0.00  0.00    +0.000 OA
ATOM      2  C2* UNL     1      65.266  36.425  55.370  0.00  0.00    +0.000 A 
ATOM      3  C3* UNL     1      66.003  35.704  54.378  0.00  0.00    +0.000 A 
ATOM      4  C4* UNL     1      65.204  35.659  53.187  0.00  0.00    +0.000 A 
ATOM      5  C1* UNL     1      63.999  36.788  54.782  0.00  0.00    +0.000 A 
ENDROOT
BRANCH   5   6
ATOM      6  N   UNL     1      62.913  37.414  55.316  0.00  0.00    +0.000 N 
ATOM      7  C   UNL     1      62.460  38.699  55.040  0.00  0.00    +0.000 A 
ATOM      8  O   UNL     1      63.029  39.469  54.270  0.00  0.00    +0.000 OA
ATOM      9  N   UNL     1      61.304  39.074  55.720  0.00  0.00    +0.000 NA
ATOM     10  C   UNL     1      60.724  38.246  56.552  0.00  0.00    +0.000 A 
ATOM     11  N   UNL     1      61.197  36.979  56.845  0.00  0.00    +0.000 NA
ATOM     12  C   UNL     1      62.153  36.782  56.207  0.00  0.00    +0.000 A 
ATOM     13  N   UNL     1      59.597  38.655  57.189  0.00  0.00    +0.000 N 
ATOM     14  H   UNL     1      59.425  38.194  58.073  0.00  0.00    +0.000 HD
ATOM     15  H   UNL     1      59.483  39.662  57.204  0.00  0.00    +0.000 HD
ENDBRANCH   5   6
BRANCH   2  16
ATOM     16  O2* UNL     1      65.468  36.153  56.695  0.00  0.00    +0.000 OA
ATOM     17  H2* UNL     1      65.291  35.210  56.907  0.00  0.00    +0.000 HD
ENDBRANCH   2  16
BRANCH   3  18
ATOM     18  O3* UNL     1      66.852  34.690  54.727  0.00  0.00    +0.000 OA
ATOM     19  H3* UNL     1      66.890  34.029  54.011  0.00  0.00    +0.000 HD
ENDBRANCH   3  18
BRANCH   4  20
ATOM     20  C5* UNL     1      65.387  34.839  52.058  0.00  0.00    +0.000 C 
BRANCH  20  21
ATOM     21  O5* UNL     1      65.549  34.064  50.990  0.00  0.00    +0.000 OA
ATOM     22  H5* UNL     1      65.495  33.128  51.247  0.00  0.00    +0.000 HD
ENDBRANCH  20  21
ENDBRANCH   4  20
TORSDOF 5
ENDMDL
MODEL 8
REMARK VINA RESULT:      -4.7      3.553      5.062
REMARK  Name = 5azacytidine.pdbqt.pdb
REMARK  5 active torsions:
REMARK  status: ('A' for Active; 'I' for Inactive)
REMARK    1  A    between atoms: C2*_2  and  O2*_16
REMARK    2  A    between atoms: C3*_3  and  O3*_21
REMARK    3  A    between atoms: C4*_4  and  C5*_18
REMARK    4  A    between atoms: C1*_5  and  N_6
REMARK    5  A    between atoms: C5*_18  and  O5*_19
REMARK                            x       y       z     vdW  Elec       q    Type
REMARK                         _______ _______ _______ _____ _____    ______ ____
ROOT
ATOM      1  O4* UNL     1      61.684  39.057  54.778  0.00  0.00    +0.000 OA
ATOM      2  C2* UNL     1      63.313  37.491  55.243  0.00  0.00    +0.000 A 
ATOM      3  C3* UNL     1      62.191  37.242  56.096  0.00  0.00    +0.000 A 
ATOM      4  C4* UNL     1      61.184  38.216  55.787  0.00  0.00    +0.000 A 
ATOM      5  C1* UNL     1      62.991  38.645  54.439  0.00  0.00    +0.000 A 
ENDROOT
BRANCH   5   6
ATOM      6  N   UNL     1      63.733  39.333  53.526  0.00  0.00    +0.000 N 
ATOM      7  C   UNL     1      64.055  40.685  53.547  0.00  0.00    +0.000 A 
ATOM      8  O   UNL     1      63.662  41.463  54.414  0.00  0.00    +0.000 OA
ATOM      9  N   UNL     1      64.852  41.117  52.491  0.00  0.00    +0.000 NA
ATOM     10  C   UNL     1      65.244  40.277  51.566  0.00  0.00    +0.000 A 
ATOM     11  N   UNL     1      64.896  38.938  51.535  0.00  0.00    +0.000 NA
ATOM     12  C   UNL     1      64.244  38.701  52.472  0.00  0.00    +0.000 A 
ATOM     13  N   UNL     1      66.023  40.743  50.558  0.00  0.00    +0.000 N 
ATOM     14  H   UNL     1      65.962  40.210  49.701  0.00  0.00    +0.000 HD
ATOM     15  H   UNL     1      65.974  41.748  50.439  0.00  0.00    +0.000 HD
ENDBRANCH   5   6
BRANCH   2  16
ATOM     16  O2* UNL     1      64.570  37.150  55.660  0.00  0.00    +0.000 OA
ATOM     17  H2* UNL     1      64.914  37.774  56.336  0.00  0.00    +0.000 HD
ENDBRANCH   2  16
BRANCH   3  18
ATOM     18  O3* UNL     1      62.360  36.739  57.356  0.00  0.00    +0.000 OA
ATOM     19  H3* UNL     1      63.272  36.409  57.461  0.00  0.00    +0.000 HD
ENDBRANCH   3  18
BRANCH   4  20
ATOM     20  C5* UNL     1      60.038  38.538  56.539  0.00  0.00    +0.000 C 
BRANCH  20  21
ATOM     21  O5* UNL     1      58.952  38.831  57.249  0.00  0.00    +0.000 OA
ATOM     22  H5* UNL     1      58.418  38.030  57.387  0.00  0.00    +0.000 HD
ENDBRANCH  20  21
ENDBRANCH   4  20
TORSDOF 5
ENDMDL
MODEL 9
REMARK VINA RESULT:      -4.6     54.276     55.402
REMARK  Name = 5azacytidine.pdbqt.pdb
REMARK  5 active torsions:
REMARK  status: ('A' for Active; 'I' for Inactive)
REMARK    1  A    between atoms: C2*_2  and  O2*_16
REMARK    2  A    between atoms: C3*_3  and  O3*_21
REMARK    3  A    between atoms: C4*_4  and  C5*_18
REMARK    4  A    between atoms: C1*_5  and  N_6
REMARK    5  A    between atoms: C5*_18  and  O5*_19
REMARK                            x       y       z     vdW  Elec       q    Type
REMARK                         _______ _______ _______ _____ _____    ______ ____
ROOT
ATOM      1  O4* UNL     1      74.050  82.504  84.935  0.00  0.00    +0.000 OA
ATOM      2  C2* UNL     1      74.362  80.267  85.402  0.00  0.00    +0.000 A 
ATOM      3  C3* UNL     1      72.977  80.578  85.588  0.00  0.00    +0.000 A 
ATOM      4  C4* UNL     1      72.798  81.969  85.283  0.00  0.00    +0.000 A 
ATOM      5  C1* UNL     1      75.027  81.488  85.016  0.00  0.00    +0.000 A 
ENDROOT
BRANCH   5   6
ATOM      6  N   UNL     1      76.344  81.754  84.790  0.00  0.00    +0.000 N 
ATOM      7  C   UNL     1      77.192  81.115  83.893  0.00  0.00    +0.000 A 
ATOM      8  O   UNL     1      76.847  80.169  83.188  0.00  0.00    +0.000 OA
ATOM      9  N   UNL     1      78.492  81.613  83.855  0.00  0.00    +0.000 NA
ATOM     10  C   UNL     1      78.846  82.608  84.628  0.00  0.00    +0.000 A 
ATOM     11  N   UNL     1      78.004  83.221  85.541  0.00  0.00    +0.000 NA
ATOM     12  C   UNL     1      76.951  82.726  85.466  0.00  0.00    +0.000 A 
ATOM     13  N   UNL     1      80.122  83.062  84.553  0.00  0.00    +0.000 N 
ATOM     14  H   UNL     1      80.457  83.511  85.395  0.00  0.00    +0.000 HD
ATOM     15  H   UNL     1      80.765  82.397  84.140  0.00  0.00    +0.000 HD
ENDBRANCH   5   6
BRANCH   2  16
ATOM     16  O2* UNL     1      74.932  79.257  86.127  0.00  0.00    +0.000 OA
ATOM     17  H2* UNL     1      75.044  79.501  87.072  0.00  0.00    +0.000 HD
ENDBRANCH   2  16
BRANCH   3  18
ATOM     18  O3* UNL     1      72.230  79.935  86.535  0.00  0.00    +0.000 OA
ATOM     19  H3* UNL     1      72.752  79.829  87.353  0.00  0.00    +0.000 HD
ENDBRANCH   3  18
BRANCH   4  20
ATOM     20  C5* UNL     1      71.687  82.779  85.581  0.00  0.00    +0.000 C 
BRANCH  20  21
ATOM     21  O5* UNL     1      70.643  83.553  85.864  0.00  0.00    +0.000 OA
ATOM     22  H5* UNL     1      70.264  83.300  86.724  0.00  0.00    +0.000 HD
ENDBRANCH  20  21
ENDBRANCH   4  20
TORSDOF 5
ENDMDL
