MODEL 1
REMARK VINA RESULT:      -6.2      0.000      0.000
REMARK  Name = 60953_Capecitabine.pdbqt.pdb
REMARK  6 active torsions:
REMARK  status: ('A' for Active; 'I' for Inactive)
REMARK    1  A    between atoms: N_4  and  C_16
REMARK    2  A    between atoms: C_11  and  O_23
REMARK    3  A    between atoms: C_14  and  O_19
REMARK    4  A    between atoms: C_15  and  O_21
REMARK    5  A    between atoms: O_23  and  C_24
REMARK    6  A    between atoms: C_25  and  C_26
REMARK                            x       y       z     vdW  Elec       q    Type
REMARK                         _______ _______ _______ _____ _____    ______ ____
ROOT
ATOM      1  F   UNL     1      50.009  38.673  73.513  0.00  0.00    +0.000 F 
ATOM      2  O   UNL     1      51.168  43.499  71.498  0.00  0.00    +0.000 OA
ATOM      3  O   UNL     1      54.566  40.613  72.906  0.00  0.00    +0.000 OA
ATOM      4  N   UNL     1      49.554  42.020  72.276  0.00  0.00    +0.000 N 
ATOM      5  N   UNL     1      51.902  41.574  72.497  0.00  0.00    +0.000 NA
ATOM      6  N   UNL     1      52.581  39.550  73.493  0.00  0.00    +0.000 N 
ATOM      7  C   UNL     1      49.387  40.840  72.906  0.00  0.00    +0.000 C 
ATOM      8  C   UNL     1      50.892  42.441  72.057  0.00  0.00    +0.000 C 
ATOM      9  C   UNL     1      50.225  39.994  73.393  0.00  0.00    +0.000 C 
ATOM     10  C   UNL     1      51.618  40.451  73.087  0.00  0.00    +0.000 C 
ATOM     11  C   UNL     1      53.947  39.665  73.365  0.00  0.00    +0.000 C 
ATOM     12  H   UNL     1      52.280  38.683  73.914  0.00  0.00    +0.000 HD
ENDROOT
BRANCH   4  16
ATOM     13  O   UNL     1      48.157  43.012  70.566  0.00  0.00    +0.000 OA
ATOM     14  C   UNL     1      47.387  43.321  72.718  0.00  0.00    +0.000 A 
ATOM     15  C   UNL     1      46.507  44.007  71.822  0.00  0.00    +0.000 A 
ATOM     16  C   UNL     1      48.433  42.723  71.921  0.00  0.00    +0.000 A 
ATOM     17  C   UNL     1      46.994  43.793  70.486  0.00  0.00    +0.000 A 
ATOM     18  C   UNL     1      46.635  44.453  69.200  0.00  0.00    +0.000 C 
BRANCH  14  19
ATOM     19  O   UNL     1      47.534  43.779  73.997  0.00  0.00    +0.000 OA
ATOM     20  H   UNL     1      48.401  44.220  74.135  0.00  0.00    +0.000 HD
ENDBRANCH  14  19
BRANCH  15  21
ATOM     21  O   UNL     1      45.839  45.137  72.214  0.00  0.00    +0.000 OA
ATOM     22  H   UNL     1      44.911  45.107  71.914  0.00  0.00    +0.000 HD
ENDBRANCH  15  21
ENDBRANCH   4  16
BRANCH  11  23
ATOM     23  O   UNL     1      54.524  38.528  73.859  0.00  0.00    +0.000 OA
BRANCH  23  24
ATOM     24  C   UNL     1      54.112  38.148  75.067  0.00  0.00    +0.000 C 
ATOM     25  C   UNL     1      53.638  37.713  76.457  0.00  0.00    +0.000 C 
BRANCH  25  26
ATOM     26  C   UNL     1      53.165  37.279  77.848  0.00  0.00    +0.000 C 
ATOM     27  C   UNL     1      52.697  36.851  79.241  0.00  0.00    +0.000 C 
ATOM     28  C   UNL     1      52.232  36.434  80.641  0.00  0.00    +0.000 C 
ENDBRANCH  25  26
ENDBRANCH  23  24
ENDBRANCH  11  23
TORSDOF 6
ENDMDL
MODEL 2
REMARK VINA RESULT:      -5.9      2.569      3.833
REMARK  Name = 60953_Capecitabine.pdbqt.pdb
REMARK  6 active torsions:
REMARK  status: ('A' for Active; 'I' for Inactive)
REMARK    1  A    between atoms: N_4  and  C_16
REMARK    2  A    between atoms: C_11  and  O_23
REMARK    3  A    between atoms: C_14  and  O_19
REMARK    4  A    between atoms: C_15  and  O_21
REMARK    5  A    between atoms: O_23  and  C_24
REMARK    6  A    between atoms: C_25  and  C_26
REMARK                            x       y       z     vdW  Elec       q    Type
REMARK                         _______ _______ _______ _____ _____    ______ ____
ROOT
ATOM      1  F   UNL     1      50.184  38.811  73.717  0.00  0.00    +0.000 F 
ATOM      2  O   UNL     1      51.193  43.467  71.266  0.00  0.00    +0.000 OA
ATOM      3  O   UNL     1      54.684  40.685  72.654  0.00  0.00    +0.000 OA
ATOM      4  N   UNL     1      49.639  42.056  72.263  0.00  0.00    +0.000 N 
ATOM      5  N   UNL     1      51.997  41.621  72.356  0.00  0.00    +0.000 NA
ATOM      6  N   UNL     1      52.747  39.676  73.455  0.00  0.00    +0.000 N 
ATOM      7  C   UNL     1      49.517  40.927  72.990  0.00  0.00    +0.000 C 
ATOM      8  C   UNL     1      50.958  42.454  71.922  0.00  0.00    +0.000 C 
ATOM      9  C   UNL     1      50.388  40.118  73.482  0.00  0.00    +0.000 C 
ATOM     10  C   UNL     1      51.756  40.546  73.048  0.00  0.00    +0.000 C 
ATOM     11  C   UNL     1      54.101  39.776  73.226  0.00  0.00    +0.000 C 
ATOM     12  H   UNL     1      52.477  38.843  73.960  0.00  0.00    +0.000 HD
ENDROOT
BRANCH   4  16
ATOM     13  O   UNL     1      48.183  43.017  70.584  0.00  0.00    +0.000 OA
ATOM     14  C   UNL     1      47.452  43.306  72.753  0.00  0.00    +0.000 A 
ATOM     15  C   UNL     1      46.538  43.973  71.876  0.00  0.00    +0.000 A 
ATOM     16  C   UNL     1      48.495  42.733  71.933  0.00  0.00    +0.000 A 
ATOM     17  C   UNL     1      47.001  43.771  70.531  0.00  0.00    +0.000 A 
ATOM     18  C   UNL     1      46.600  44.424  69.253  0.00  0.00    +0.000 C 
BRANCH  14  19
ATOM     19  O   UNL     1      47.616  43.766  74.029  0.00  0.00    +0.000 OA
ATOM     20  H   UNL     1      47.023  43.309  74.666  0.00  0.00    +0.000 HD
ENDBRANCH  14  19
BRANCH  15  21
ATOM     21  O   UNL     1      45.853  45.087  72.285  0.00  0.00    +0.000 OA
ATOM     22  H   UNL     1      45.570  45.615  71.514  0.00  0.00    +0.000 HD
ENDBRANCH  15  21
ENDBRANCH   4  16
BRANCH  11  23
ATOM     23  O   UNL     1      54.712  38.678  73.764  0.00  0.00    +0.000 OA
BRANCH  23  24
ATOM     24  C   UNL     1      56.008  38.546  73.492  0.00  0.00    +0.000 C 
ATOM     25  C   UNL     1      57.501  38.396  73.180  0.00  0.00    +0.000 C 
BRANCH  25  26
ATOM     26  C   UNL     1      58.993  38.248  72.868  0.00  0.00    +0.000 C 
ATOM     27  C   UNL     1      60.486  38.107  72.558  0.00  0.00    +0.000 C 
ATOM     28  C   UNL     1      61.983  37.975  72.257  0.00  0.00    +0.000 C 
ENDBRANCH  25  26
ENDBRANCH  23  24
ENDBRANCH  11  23
TORSDOF 6
ENDMDL
MODEL 3
REMARK VINA RESULT:      -5.9      7.317     11.781
REMARK  Name = 60953_Capecitabine.pdbqt.pdb
REMARK  6 active torsions:
REMARK  status: ('A' for Active; 'I' for Inactive)
REMARK    1  A    between atoms: N_4  and  C_16
REMARK    2  A    between atoms: C_11  and  O_23
REMARK    3  A    between atoms: C_14  and  O_19
REMARK    4  A    between atoms: C_15  and  O_21
REMARK    5  A    between atoms: O_23  and  C_24
REMARK    6  A    between atoms: C_25  and  C_26
REMARK                            x       y       z     vdW  Elec       q    Type
REMARK                         _______ _______ _______ _____ _____    ______ ____
ROOT
ATOM      1  F   UNL     1      59.634  38.284  73.503  0.00  0.00    +0.000 F 
ATOM      2  O   UNL     1      59.786  40.518  68.636  0.00  0.00    +0.000 OA
ATOM      3  O   UNL     1      55.728  39.957  70.888  0.00  0.00    +0.000 OA
ATOM      4  N   UNL     1      60.908  39.379  70.322  0.00  0.00    +0.000 N 
ATOM      5  N   UNL     1      58.534  39.721  70.380  0.00  0.00    +0.000 NA
ATOM      6  N   UNL     1      57.318  38.915  72.229  0.00  0.00    +0.000 N 
ATOM      7  C   UNL     1      60.728  38.727  71.488  0.00  0.00    +0.000 C 
ATOM      8  C   UNL     1      59.747  39.908  69.703  0.00  0.00    +0.000 C 
ATOM      9  C   UNL     1      59.672  38.452  72.170  0.00  0.00    +0.000 C 
ATOM     10  C   UNL     1      58.484  39.080  71.510  0.00  0.00    +0.000 C 
ATOM     11  C   UNL     1      56.057  39.363  71.904  0.00  0.00    +0.000 C 
ATOM     12  H   UNL     1      57.366  38.434  73.117  0.00  0.00    +0.000 HD
ENDROOT
BRANCH   4  16
ATOM     13  O   UNL     1      63.057  38.351  69.892  0.00  0.00    +0.000 OA
ATOM     14  C   UNL     1      62.901  40.547  69.204  0.00  0.00    +0.000 A 
ATOM     15  C   UNL     1      64.232  40.089  68.949  0.00  0.00    +0.000 A 
ATOM     16  C   UNL     1      62.181  39.457  69.820  0.00  0.00    +0.000 A 
ATOM     17  C   UNL     1      64.308  38.718  69.371  0.00  0.00    +0.000 A 
ATOM     18  C   UNL     1      65.482  37.822  69.572  0.00  0.00    +0.000 C 
BRANCH  14  19
ATOM     19  O   UNL     1      62.681  41.874  69.446  0.00  0.00    +0.000 OA
ATOM     20  H   UNL     1      61.781  42.157  69.171  0.00  0.00    +0.000 HD
ENDBRANCH  14  19
BRANCH  15  21
ATOM     21  O   UNL     1      65.295  40.954  68.981  0.00  0.00    +0.000 OA
ATOM     22  H   UNL     1      65.946  40.720  68.292  0.00  0.00    +0.000 HD
ENDBRANCH  15  21
ENDBRANCH   4  16
BRANCH  11  23
ATOM     23  O   UNL     1      55.203  39.021  72.914  0.00  0.00    +0.000 OA
BRANCH  23  24
ATOM     24  C   UNL     1      54.019  39.629  72.903  0.00  0.00    +0.000 C 
ATOM     25  C   UNL     1      52.656  40.328  72.888  0.00  0.00    +0.000 C 
BRANCH  25  26
ATOM     26  C   UNL     1      51.293  41.027  72.871  0.00  0.00    +0.000 C 
ATOM     27  C   UNL     1      49.933  41.730  72.859  0.00  0.00    +0.000 C 
ATOM     28  C   UNL     1      48.577  42.444  72.851  0.00  0.00    +0.000 C 
ENDBRANCH  25  26
ENDBRANCH  23  24
ENDBRANCH  11  23
TORSDOF 6
ENDMDL
MODEL 4
REMARK VINA RESULT:      -5.8     11.463     14.126
REMARK  Name = 60953_Capecitabine.pdbqt.pdb
REMARK  6 active torsions:
REMARK  status: ('A' for Active; 'I' for Inactive)
REMARK    1  A    between atoms: N_4  and  C_16
REMARK    2  A    between atoms: C_11  and  O_23
REMARK    3  A    between atoms: C_14  and  O_19
REMARK    4  A    between atoms: C_15  and  O_21
REMARK    5  A    between atoms: O_23  and  C_24
REMARK    6  A    between atoms: C_25  and  C_26
REMARK                            x       y       z     vdW  Elec       q    Type
REMARK                         _______ _______ _______ _____ _____    ______ ____
ROOT
ATOM      1  F   UNL     1      63.878  37.547  67.425  0.00  0.00    +0.000 F 
ATOM      2  O   UNL     1      59.239  40.138  68.106  0.00  0.00    +0.000 OA
ATOM      3  O   UNL     1      63.185  41.746  70.030  0.00  0.00    +0.000 OA
ATOM      4  N   UNL     1      60.348  38.241  67.353  0.00  0.00    +0.000 N 
ATOM      5  N   UNL     1      61.461  39.948  68.621  0.00  0.00    +0.000 NA
ATOM      6  N   UNL     1      63.761  39.705  69.072  0.00  0.00    +0.000 N 
ATOM      7  C   UNL     1      61.545  37.620  67.354  0.00  0.00    +0.000 C 
ATOM      8  C   UNL     1      60.276  39.483  68.036  0.00  0.00    +0.000 C 
ATOM      9  C   UNL     1      62.674  37.920  67.893  0.00  0.00    +0.000 C 
ATOM     10  C   UNL     1      62.563  39.261  68.549  0.00  0.00    +0.000 C 
ATOM     11  C   UNL     1      64.002  40.886  69.737  0.00  0.00    +0.000 C 
ATOM     12  H   UNL     1      64.582  39.130  68.946  0.00  0.00    +0.000 HD
ENDROOT
BRANCH   4  16
ATOM     13  O   UNL     1      59.413  37.215  65.371  0.00  0.00    +0.000 OA
ATOM     14  C   UNL     1      57.971  37.293  67.169  0.00  0.00    +0.000 A 
ATOM     15  C   UNL     1      57.272  36.725  66.057  0.00  0.00    +0.000 A 
ATOM     16  C   UNL     1      59.304  37.622  66.719  0.00  0.00    +0.000 A 
ATOM     17  C   UNL     1      58.188  36.671  64.951  0.00  0.00    +0.000 A 
ATOM     18  C   UNL     1      57.955  36.412  63.502  0.00  0.00    +0.000 C 
BRANCH  14  19
ATOM     19  O   UNL     1      57.271  37.975  68.125  0.00  0.00    +0.000 OA
ATOM     20  H   UNL     1      57.025  37.401  68.884  0.00  0.00    +0.000 HD
ENDBRANCH  14  19
BRANCH  15  21
ATOM     21  O   UNL     1      55.919  36.885  65.915  0.00  0.00    +0.000 OA
ATOM     22  H   UNL     1      55.651  36.720  64.991  0.00  0.00    +0.000 HD
ENDBRANCH  15  21
ENDBRANCH   4  16
BRANCH  11  23
ATOM     23  O   UNL     1      65.333  40.945  70.043  0.00  0.00    +0.000 OA
BRANCH  23  24
ATOM     24  C   UNL     1      66.147  40.297  69.212  0.00  0.00    +0.000 C 
ATOM     25  C   UNL     1      67.082  39.550  68.255  0.00  0.00    +0.000 C 
BRANCH  25  26
ATOM     26  C   UNL     1      68.016  38.802  67.299  0.00  0.00    +0.000 C 
ATOM     27  C   UNL     1      68.954  38.059  66.345  0.00  0.00    +0.000 C 
ATOM     28  C   UNL     1      69.904  37.321  65.394  0.00  0.00    +0.000 C 
ENDBRANCH  25  26
ENDBRANCH  23  24
ENDBRANCH  11  23
TORSDOF 6
ENDMDL
MODEL 5
REMARK VINA RESULT:      -5.5      6.036     10.634
REMARK  Name = 60953_Capecitabine.pdbqt.pdb
REMARK  6 active torsions:
REMARK  status: ('A' for Active; 'I' for Inactive)
REMARK    1  A    between atoms: N_4  and  C_16
REMARK    2  A    between atoms: C_11  and  O_23
REMARK    3  A    between atoms: C_14  and  O_19
REMARK    4  A    between atoms: C_15  and  O_21
REMARK    5  A    between atoms: O_23  and  C_24
REMARK    6  A    between atoms: C_25  and  C_26
REMARK                            x       y       z     vdW  Elec       q    Type
REMARK                         _______ _______ _______ _____ _____    ______ ____
ROOT
ATOM      1  F   UNL     1      57.734  38.568  73.550  0.00  0.00    +0.000 F 
ATOM      2  O   UNL     1      57.928  40.366  68.507  0.00  0.00    +0.000 OA
ATOM      3  O   UNL     1      53.866  40.126  70.810  0.00  0.00    +0.000 OA
ATOM      4  N   UNL     1      59.023  39.343  70.283  0.00  0.00    +0.000 N 
ATOM      5  N   UNL     1      56.661  39.762  70.317  0.00  0.00    +0.000 NA
ATOM      6  N   UNL     1      55.431  39.156  72.233  0.00  0.00    +0.000 N 
ATOM      7  C   UNL     1      58.830  38.801  71.502  0.00  0.00    +0.000 C 
ATOM      8  C   UNL     1      57.875  39.853  69.623  0.00  0.00    +0.000 C 
ATOM      9  C   UNL     1      57.770  38.619  72.208  0.00  0.00    +0.000 C 
ATOM     10  C   UNL     1      56.597  39.223  71.498  0.00  0.00    +0.000 C 
ATOM     11  C   UNL     1      54.183  39.613  71.873  0.00  0.00    +0.000 C 
ATOM     12  H   UNL     1      55.469  38.753  73.158  0.00  0.00    +0.000 HD
ENDROOT
BRANCH   4  16
ATOM     13  O   UNL     1      61.297  40.175  70.317  0.00  0.00    +0.000 OA
ATOM     14  C   UNL     1      60.881  38.617  68.667  0.00  0.00    +0.000 A 
ATOM     15  C   UNL     1      62.233  39.066  68.532  0.00  0.00    +0.000 A 
ATOM     16  C   UNL     1      60.295  39.339  69.773  0.00  0.00    +0.000 A 
ATOM     17  C   UNL     1      62.478  40.024  69.574  0.00  0.00    +0.000 A 
ATOM     18  C   UNL     1      63.601  40.984  69.773  0.00  0.00    +0.000 C 
BRANCH  14  19
ATOM     19  O   UNL     1      60.204  38.181  67.564  0.00  0.00    +0.000 OA
ATOM     20  H   UNL     1      59.316  37.825  67.790  0.00  0.00    +0.000 HD
ENDBRANCH  14  19
BRANCH  15  21
ATOM     21  O   UNL     1      62.846  39.101  67.308  0.00  0.00    +0.000 OA
ATOM     22  H   UNL     1      63.376  38.293  67.168  0.00  0.00    +0.000 HD
ENDBRANCH  15  21
ENDBRANCH   4  16
BRANCH  11  23
ATOM     23  O   UNL     1      53.324  39.385  72.911  0.00  0.00    +0.000 OA
BRANCH  23  24
ATOM     24  C   UNL     1      52.217  40.125  72.920  0.00  0.00    +0.000 C 
ATOM     25  C   UNL     1      50.944  40.977  72.928  0.00  0.00    +0.000 C 
BRANCH  25  26
ATOM     26  C   UNL     1      49.672  41.831  72.935  0.00  0.00    +0.000 C 
ATOM     27  C   UNL     1      48.399  42.681  72.949  0.00  0.00    +0.000 C 
ATOM     28  C   UNL     1      47.122  43.528  72.975  0.00  0.00    +0.000 C 
ENDBRANCH  25  26
ENDBRANCH  23  24
ENDBRANCH  11  23
TORSDOF 6
ENDMDL
MODEL 6
REMARK VINA RESULT:      -5.5     10.461     13.204
REMARK  Name = 60953_Capecitabine.pdbqt.pdb
REMARK  6 active torsions:
REMARK  status: ('A' for Active; 'I' for Inactive)
REMARK    1  A    between atoms: N_4  and  C_16
REMARK    2  A    between atoms: C_11  and  O_23
REMARK    3  A    between atoms: C_14  and  O_19
REMARK    4  A    between atoms: C_15  and  O_21
REMARK    5  A    between atoms: O_23  and  C_24
REMARK    6  A    between atoms: C_25  and  C_26
REMARK                            x       y       z     vdW  Elec       q    Type
REMARK                         _______ _______ _______ _____ _____    ______ ____
ROOT
ATOM      1  F   UNL     1      48.309  35.890  65.704  0.00  0.00    +0.000 F 
ATOM      2  O   UNL     1      46.688  37.154  60.757  0.00  0.00    +0.000 OA
ATOM      3  O   UNL     1      44.144  38.355  64.491  0.00  0.00    +0.000 OA
ATOM      4  N   UNL     1      48.167  35.980  62.111  0.00  0.00    +0.000 N 
ATOM      5  N   UNL     1      46.247  37.109  63.004  0.00  0.00    +0.000 NA
ATOM      6  N   UNL     1      45.885  37.059  65.331  0.00  0.00    +0.000 N 
ATOM      7  C   UNL     1      48.406  35.618  63.387  0.00  0.00    +0.000 C 
ATOM      8  C   UNL     1      47.010  36.768  61.879  0.00  0.00    +0.000 C 
ATOM      9  C   UNL     1      47.759  35.825  64.480  0.00  0.00    +0.000 C 
ATOM     10  C   UNL     1      46.582  36.707  64.194  0.00  0.00    +0.000 C 
ATOM     11  C   UNL     1      44.761  37.851  65.417  0.00  0.00    +0.000 C 
ATOM     12  H   UNL     1      46.227  36.735  66.224  0.00  0.00    +0.000 HD
ENDROOT
BRANCH   4  16
ATOM     13  O   UNL     1      49.902  36.449  60.490  0.00  0.00    +0.000 OA
ATOM     14  C   UNL     1      49.260  34.236  60.578  0.00  0.00    +0.000 A 
ATOM     15  C   UNL     1      50.237  34.380  59.542  0.00  0.00    +0.000 A 
ATOM     16  C   UNL     1      49.038  35.545  61.146  0.00  0.00    +0.000 A 
ATOM     17  C   UNL     1      50.635  35.760  59.510  0.00  0.00    +0.000 A 
ATOM     18  C   UNL     1      51.419  36.526  58.501  0.00  0.00    +0.000 C 
BRANCH  14  19
ATOM     19  O   UNL     1      48.320  33.249  60.482  0.00  0.00    +0.000 OA
ATOM     20  H   UNL     1      48.572  32.559  59.828  0.00  0.00    +0.000 HD
ENDBRANCH  14  19
BRANCH  15  21
ATOM     21  O   UNL     1      50.222  33.568  58.439  0.00  0.00    +0.000 OA
ATOM     22  H   UNL     1      49.493  33.820  57.840  0.00  0.00    +0.000 HD
ENDBRANCH  15  21
ENDBRANCH   4  16
BRANCH  11  23
ATOM     23  O   UNL     1      44.423  37.978  66.735  0.00  0.00    +0.000 OA
BRANCH  23  24
ATOM     24  C   UNL     1      44.691  39.158  67.290  0.00  0.00    +0.000 C 
ATOM     25  C   UNL     1      45.001  40.516  67.928  0.00  0.00    +0.000 C 
BRANCH  25  26
ATOM     26  C   UNL     1      45.313  41.873  68.567  0.00  0.00    +0.000 C 
ATOM     27  C   UNL     1      45.619  43.229  69.209  0.00  0.00    +0.000 C 
ATOM     28  C   UNL     1      45.918  44.583  69.862  0.00  0.00    +0.000 C 
ENDBRANCH  25  26
ENDBRANCH  23  24
ENDBRANCH  11  23
TORSDOF 6
ENDMDL
MODEL 7
REMARK VINA RESULT:      -5.5     21.950     24.585
REMARK  Name = 60953_Capecitabine.pdbqt.pdb
REMARK  6 active torsions:
REMARK  status: ('A' for Active; 'I' for Inactive)
REMARK    1  A    between atoms: N_4  and  C_16
REMARK    2  A    between atoms: C_11  and  O_23
REMARK    3  A    between atoms: C_14  and  O_19
REMARK    4  A    between atoms: C_15  and  O_21
REMARK    5  A    between atoms: O_23  and  C_24
REMARK    6  A    between atoms: C_25  and  C_26
REMARK                            x       y       z     vdW  Elec       q    Type
REMARK                         _______ _______ _______ _____ _____    ______ ____
ROOT
ATOM      1  F   UNL     1      64.579  38.697  52.718  0.00  0.00    +0.000 F 
ATOM      2  O   UNL     1      61.466  36.346  56.389  0.00  0.00    +0.000 OA
ATOM      3  O   UNL     1      61.491  40.994  55.893  0.00  0.00    +0.000 OA
ATOM      4  N   UNL     1      63.175  36.145  54.829  0.00  0.00    +0.000 N 
ATOM      5  N   UNL     1      62.286  38.278  55.475  0.00  0.00    +0.000 NA
ATOM      6  N   UNL     1      63.149  40.219  54.456  0.00  0.00    +0.000 N 
ATOM      7  C   UNL     1      63.996  36.856  54.031  0.00  0.00    +0.000 C 
ATOM      8  C   UNL     1      62.260  36.885  55.621  0.00  0.00    +0.000 C 
ATOM      9  C   UNL     1      64.145  38.122  53.852  0.00  0.00    +0.000 C 
ATOM     10  C   UNL     1      63.122  38.855  54.663  0.00  0.00    +0.000 C 
ATOM     11  C   UNL     1      62.348  41.175  55.042  0.00  0.00    +0.000 C 
ATOM     12  H   UNL     1      63.804  40.590  53.782  0.00  0.00    +0.000 HD
ENDROOT
BRANCH   4  16
ATOM     13  O   UNL     1      63.102  34.034  53.647  0.00  0.00    +0.000 OA
ATOM     14  C   UNL     1      63.595  33.847  55.892  0.00  0.00    +0.000 A 
ATOM     15  C   UNL     1      63.523  32.530  55.336  0.00  0.00    +0.000 A 
ATOM     16  C   UNL     1      63.303  34.781  54.829  0.00  0.00    +0.000 A 
ATOM     17  C   UNL     1      63.228  32.666  53.936  0.00  0.00    +0.000 A 
ATOM     18  C   UNL     1      62.803  31.657  52.926  0.00  0.00    +0.000 C 
BRANCH  14  19
ATOM     19  O   UNL     1      63.297  34.037  57.212  0.00  0.00    +0.000 OA
ATOM     20  H   UNL     1      63.805  34.781  57.604  0.00  0.00    +0.000 HD
ENDBRANCH  14  19
BRANCH  15  21
ATOM     21  O   UNL     1      63.122  31.463  56.097  0.00  0.00    +0.000 OA
ATOM     22  H   UNL     1      63.327  30.624  55.642  0.00  0.00    +0.000 HD
ENDBRANCH  15  21
ENDBRANCH   4  16
BRANCH  11  23
ATOM     23  O   UNL     1      62.681  42.394  54.521  0.00  0.00    +0.000 OA
BRANCH  23  24
ATOM     24  C   UNL     1      63.951  42.538  54.149  0.00  0.00    +0.000 C 
ATOM     25  C   UNL     1      65.412  42.704  53.718  0.00  0.00    +0.000 C 
BRANCH  25  26
ATOM     26  C   UNL     1      66.872  42.869  53.286  0.00  0.00    +0.000 C 
ATOM     27  C   UNL     1      68.334  43.029  52.859  0.00  0.00    +0.000 C 
ATOM     28  C   UNL     1      69.800  43.177  52.438  0.00  0.00    +0.000 C 
ENDBRANCH  25  26
ENDBRANCH  23  24
ENDBRANCH  11  23
TORSDOF 6
ENDMDL
MODEL 8
REMARK VINA RESULT:      -5.5     16.725     18.183
REMARK  Name = 60953_Capecitabine.pdbqt.pdb
REMARK  6 active torsions:
REMARK  status: ('A' for Active; 'I' for Inactive)
REMARK    1  A    between atoms: N_4  and  C_16
REMARK    2  A    between atoms: C_11  and  O_23
REMARK    3  A    between atoms: C_14  and  O_19
REMARK    4  A    between atoms: C_15  and  O_21
REMARK    5  A    between atoms: O_23  and  C_24
REMARK    6  A    between atoms: C_25  and  C_26
REMARK                            x       y       z     vdW  Elec       q    Type
REMARK                         _______ _______ _______ _____ _____    ______ ____
ROOT
ATOM      1  F   UNL     1      53.448  31.738  58.051  0.00  0.00    +0.000 F 
ATOM      2  O   UNL     1      50.920  36.445  57.660  0.00  0.00    +0.000 OA
ATOM      3  O   UNL     1      52.959  34.503  53.927  0.00  0.00    +0.000 OA
ATOM      4  N   UNL     1      51.753  34.759  59.023  0.00  0.00    +0.000 N 
ATOM      5  N   UNL     1      52.217  34.838  56.670  0.00  0.00    +0.000 NA
ATOM      6  N   UNL     1      53.519  33.123  55.715  0.00  0.00    +0.000 N 
ATOM      7  C   UNL     1      52.516  33.647  59.021  0.00  0.00    +0.000 C 
ATOM      8  C   UNL     1      51.589  35.421  57.779  0.00  0.00    +0.000 C 
ATOM      9  C   UNL     1      53.175  33.053  58.089  0.00  0.00    +0.000 C 
ATOM     10  C   UNL     1      52.924  33.753  56.788  0.00  0.00    +0.000 C 
ATOM     11  C   UNL     1      53.487  33.504  54.392  0.00  0.00    +0.000 C 
ATOM     12  H   UNL     1      54.024  32.264  55.881  0.00  0.00    +0.000 HD
ENDROOT
BRANCH   4  16
ATOM     13  O   UNL     1      52.049  35.687  61.239  0.00  0.00    +0.000 OA
ATOM     14  C   UNL     1      49.866  35.153  60.717  0.00  0.00    +0.000 A 
ATOM     15  C   UNL     1      49.903  35.627  62.067  0.00  0.00    +0.000 A 
ATOM     16  C   UNL     1      51.221  35.169  60.218  0.00  0.00    +0.000 A 
ATOM     17  C   UNL     1      51.266  35.967  62.371  0.00  0.00    +0.000 A 
ATOM     18  C   UNL     1      51.930  36.270  63.670  0.00  0.00    +0.000 C 
BRANCH  14  19
ATOM     19  O   UNL     1      48.899  34.264  60.344  0.00  0.00    +0.000 OA
ATOM     20  H   UNL     1      48.021  34.693  60.237  0.00  0.00    +0.000 HD
ENDBRANCH  14  19
BRANCH  15  21
ATOM     21  O   UNL     1      49.008  35.174  63.000  0.00  0.00    +0.000 OA
ATOM     22  H   UNL     1      48.438  34.480  62.617  0.00  0.00    +0.000 HD
ENDBRANCH  15  21
ENDBRANCH   4  16
BRANCH  11  23
ATOM     23  O   UNL     1      54.169  32.574  53.658  0.00  0.00    +0.000 OA
BRANCH  23  24
ATOM     24  C   UNL     1      55.444  32.394  53.994  0.00  0.00    +0.000 C 
ATOM     25  C   UNL     1      56.913  32.187  54.379  0.00  0.00    +0.000 C 
BRANCH  25  26
ATOM     26  C   UNL     1      58.381  31.981  54.763  0.00  0.00    +0.000 C 
ATOM     27  C   UNL     1      59.847  31.771  55.151  0.00  0.00    +0.000 C 
ATOM     28  C   UNL     1      61.312  31.550  55.547  0.00  0.00    +0.000 C 
ENDBRANCH  25  26
ENDBRANCH  23  24
ENDBRANCH  11  23
TORSDOF 6
ENDMDL
MODEL 9
REMARK VINA RESULT:      -5.4      4.150      5.676
REMARK  Name = 60953_Capecitabine.pdbqt.pdb
REMARK  6 active torsions:
REMARK  status: ('A' for Active; 'I' for Inactive)
REMARK    1  A    between atoms: N_4  and  C_16
REMARK    2  A    between atoms: C_11  and  O_23
REMARK    3  A    between atoms: C_14  and  O_19
REMARK    4  A    between atoms: C_15  and  O_21
REMARK    5  A    between atoms: O_23  and  C_24
REMARK    6  A    between atoms: C_25  and  C_26
REMARK                            x       y       z     vdW  Elec       q    Type
REMARK                         _______ _______ _______ _____ _____    ______ ____
ROOT
ATOM      1  F   UNL     1      51.049  38.701  69.297  0.00  0.00    +0.000 F 
ATOM      2  O   UNL     1      51.510  43.396  71.835  0.00  0.00    +0.000 OA
ATOM      3  O   UNL     1      55.296  40.870  70.764  0.00  0.00    +0.000 OA
ATOM      4  N   UNL     1      50.127  41.698  71.060  0.00  0.00    +0.000 N 
ATOM      5  N   UNL     1      52.518  41.500  71.039  0.00  0.00    +0.000 NA
ATOM      6  N   UNL     1      53.485  39.540  70.161  0.00  0.00    +0.000 N 
ATOM      7  C   UNL     1      50.133  40.456  70.535  0.00  0.00    +0.000 C 
ATOM      8  C   UNL     1      51.391  42.273  71.351  0.00  0.00    +0.000 C 
ATOM      9  C   UNL     1      51.089  39.641  70.256  0.00  0.00    +0.000 C 
ATOM     10  C   UNL     1      52.401  40.312  70.524  0.00  0.00    +0.000 C 
ATOM     11  C   UNL     1      54.820  39.857  70.275  0.00  0.00    +0.000 C 
ATOM     12  H   UNL     1      53.312  38.640  69.734  0.00  0.00    +0.000 HD
ENDROOT
BRANCH   4  16
ATOM     13  O   UNL     1      48.220  42.951  70.251  0.00  0.00    +0.000 OA
ATOM     14  C   UNL     1      48.129  42.428  72.496  0.00  0.00    +0.000 A 
ATOM     15  C   UNL     1      46.980  43.217  72.170  0.00  0.00    +0.000 A 
ATOM     16  C   UNL     1      48.913  42.291  71.290  0.00  0.00    +0.000 A 
ATOM     17  C   UNL     1      47.047  43.522  70.768  0.00  0.00    +0.000 A 
ATOM     18  C   UNL     1      46.275  44.494  69.943  0.00  0.00    +0.000 C 
BRANCH  14  19
ATOM     19  O   UNL     1      48.634  42.468  73.765  0.00  0.00    +0.000 OA
ATOM     20  H   UNL     1      48.542  41.606  74.228  0.00  0.00    +0.000 HD
ENDBRANCH  14  19
BRANCH  15  21
ATOM     21  O   UNL     1      46.402  44.041  73.100  0.00  0.00    +0.000 OA
ATOM     22  H   UNL     1      45.441  44.110  72.944  0.00  0.00    +0.000 HD
ENDBRANCH  15  21
ENDBRANCH   4  16
BRANCH  11  23
ATOM     23  O   UNL     1      55.554  38.827  69.756  0.00  0.00    +0.000 OA
BRANCH  23  24
ATOM     24  C   UNL     1      56.845  39.081  69.553  0.00  0.00    +0.000 C 
ATOM     25  C   UNL     1      58.331  39.373  69.323  0.00  0.00    +0.000 C 
BRANCH  25  26
ATOM     26  C   UNL     1      59.817  39.666  69.094  0.00  0.00    +0.000 C 
ATOM     27  C   UNL     1      61.304  39.955  68.871  0.00  0.00    +0.000 C 
ATOM     28  C   UNL     1      62.796  40.232  68.653  0.00  0.00    +0.000 C 
ENDBRANCH  25  26
ENDBRANCH  23  24
ENDBRANCH  11  23
TORSDOF 6
ENDMDL
