MODEL 1
REMARK VINA RESULT:      -5.1      0.000      0.000
REMARK  Name = 6223_Gliotoxin.pdbqt.pdb
REMARK  3 active torsions:
REMARK  status: ('A' for Active; 'I' for Inactive)
REMARK    1  A    between atoms: C_10  and  C_21
REMARK    2  A    between atoms: C_14  and  O_19
REMARK    3  A    between atoms: C_21  and  O_22
REMARK                            x       y       z     vdW  Elec       q    Type
REMARK                         _______ _______ _______ _____ _____    ______ ____
ROOT
ATOM      1  S   UNL     1      46.964  43.515  73.212  0.00  0.00    +0.000 S 
ATOM      2  S   UNL     1      45.804  42.260  74.370  0.00  0.00    +0.000 S 
ATOM      3  O   UNL     1      48.259  39.593  74.345  0.00  0.00    +0.000 OA
ATOM      4  O   UNL     1      46.149  41.932  70.136  0.00  0.00    +0.000 OA
ATOM      5  N   UNL     1      48.380  41.223  72.729  0.00  0.00    +0.000 N 
ATOM      6  N   UNL     1      45.793  40.686  72.098  0.00  0.00    +0.000 N 
ATOM      7  C   UNL     1      47.639  42.311  72.018  0.00  0.00    +0.000 C 
ATOM      8  C   UNL     1      49.741  41.248  72.418  0.00  0.00    +0.000 A 
ATOM      9  C   UNL     1      48.694  42.879  71.184  0.00  0.00    +0.000 C 
ATOM     10  C   UNL     1      46.145  40.615  73.554  0.00  0.00    +0.000 C 
ATOM     11  C   UNL     1      49.947  42.266  71.330  0.00  0.00    +0.000 A 
ATOM     12  C   UNL     1      47.691  40.390  73.600  0.00  0.00    +0.000 C 
ATOM     13  C   UNL     1      46.481  41.631  71.284  0.00  0.00    +0.000 C 
ATOM     14  C   UNL     1      50.895  40.766  73.213  0.00  0.00    +0.000 A 
ATOM     15  C   UNL     1      51.125  42.820  71.355  0.00  0.00    +0.000 A 
ATOM     16  C   UNL     1      52.083  41.525  72.930  0.00  0.00    +0.000 A 
ATOM     17  C   UNL     1      44.644  39.903  71.643  0.00  0.00    +0.000 C 
ATOM     18  C   UNL     1      52.354  42.436  72.194  0.00  0.00    +0.000 A 
ENDROOT
BRANCH  14  19
ATOM     19  O   UNL     1      50.756  40.106  74.400  0.00  0.00    +0.000 OA
ATOM     20  H   UNL     1      51.605  39.972  74.867  0.00  0.00    +0.000 HD
ENDBRANCH  14  19
BRANCH  10  21
ATOM     21  C   UNL     1      45.437  39.553  74.317  0.00  0.00    +0.000 C 
BRANCH  21  22
ATOM     22  O   UNL     1      44.787  38.600  74.990  0.00  0.00    +0.000 OA
ATOM     23  H   UNL     1      45.035  38.601  75.933  0.00  0.00    +0.000 HD
ENDBRANCH  21  22
ENDBRANCH  10  21
TORSDOF 3
ENDMDL
MODEL 2
REMARK VINA RESULT:      -5.1     20.662     22.808
REMARK  Name = 6223_Gliotoxin.pdbqt.pdb
REMARK  3 active torsions:
REMARK  status: ('A' for Active; 'I' for Inactive)
REMARK    1  A    between atoms: C_10  and  C_21
REMARK    2  A    between atoms: C_14  and  O_19
REMARK    3  A    between atoms: C_21  and  O_22
REMARK                            x       y       z     vdW  Elec       q    Type
REMARK                         _______ _______ _______ _____ _____    ______ ____
ROOT
ATOM      1  S   UNL     1      61.498  53.543  57.148  0.00  0.00    +0.000 S 
ATOM      2  S   UNL     1      59.558  54.014  56.624  0.00  0.00    +0.000 S 
ATOM      3  O   UNL     1      59.067  56.179  59.491  0.00  0.00    +0.000 OA
ATOM      4  O   UNL     1      60.579  51.145  59.604  0.00  0.00    +0.000 OA
ATOM      5  N   UNL     1      60.767  54.633  59.550  0.00  0.00    +0.000 N 
ATOM      6  N   UNL     1      58.937  52.708  58.979  0.00  0.00    +0.000 N 
ATOM      7  C   UNL     1      61.306  53.371  58.955  0.00  0.00    +0.000 C 
ATOM      8  C   UNL     1      61.697  55.230  60.403  0.00  0.00    +0.000 A 
ATOM      9  C   UNL     1      62.587  53.252  59.646  0.00  0.00    +0.000 C 
ATOM     10  C   UNL     1      58.737  54.031  58.301  0.00  0.00    +0.000 C 
ATOM     11  C   UNL     1      62.858  54.285  60.554  0.00  0.00    +0.000 A 
ATOM     12  C   UNL     1      59.503  55.072  59.179  0.00  0.00    +0.000 C 
ATOM     13  C   UNL     1      60.270  52.283  59.246  0.00  0.00    +0.000 C 
ATOM     14  C   UNL     1      61.844  56.655  60.782  0.00  0.00    +0.000 A 
ATOM     15  C   UNL     1      63.989  54.887  60.786  0.00  0.00    +0.000 A 
ATOM     16  C   UNL     1      63.211  56.981  61.083  0.00  0.00    +0.000 A 
ATOM     17  C   UNL     1      57.759  51.860  59.166  0.00  0.00    +0.000 C 
ATOM     18  C   UNL     1      64.245  56.367  61.115  0.00  0.00    +0.000 A 
ENDROOT
BRANCH  14  19
ATOM     19  O   UNL     1      60.968  57.624  60.385  0.00  0.00    +0.000 OA
ATOM     20  H   UNL     1      60.458  57.377  59.587  0.00  0.00    +0.000 HD
ENDBRANCH  14  19
BRANCH  10  21
ATOM     21  C   UNL     1      57.316  54.435  58.128  0.00  0.00    +0.000 C 
BRANCH  21  22
ATOM     22  O   UNL     1      56.043  54.813  57.984  0.00  0.00    +0.000 OA
ATOM     23  H   UNL     1      55.668  54.480  57.147  0.00  0.00    +0.000 HD
ENDBRANCH  21  22
ENDBRANCH  10  21
TORSDOF 3
ENDMDL
MODEL 3
REMARK VINA RESULT:      -5.0     13.394     16.223
REMARK  Name = 6223_Gliotoxin.pdbqt.pdb
REMARK  3 active torsions:
REMARK  status: ('A' for Active; 'I' for Inactive)
REMARK    1  A    between atoms: C_10  and  C_21
REMARK    2  A    between atoms: C_14  and  O_19
REMARK    3  A    between atoms: C_21  and  O_22
REMARK                            x       y       z     vdW  Elec       q    Type
REMARK                         _______ _______ _______ _____ _____    ______ ____
ROOT
ATOM      1  S   UNL     1      63.572  36.740  70.222  0.00  0.00    +0.000 S 
ATOM      2  S   UNL     1      64.282  38.201  71.496  0.00  0.00    +0.000 S 
ATOM      3  O   UNL     1      62.076  40.753  70.168  0.00  0.00    +0.000 OA
ATOM      4  O   UNL     1      65.473  37.826  67.422  0.00  0.00    +0.000 OA
ATOM      5  N   UNL     1      62.488  38.879  68.902  0.00  0.00    +0.000 N 
ATOM      6  N   UNL     1      65.146  39.385  69.153  0.00  0.00    +0.000 N 
ATOM      7  C   UNL     1      63.401  37.714  68.688  0.00  0.00    +0.000 C 
ATOM      8  C   UNL     1      61.327  38.764  68.136  0.00  0.00    +0.000 A 
ATOM      9  C   UNL     1      62.694  36.986  67.637  0.00  0.00    +0.000 C 
ATOM     10  C   UNL     1      64.301  39.680  70.357  0.00  0.00    +0.000 C 
ATOM     11  C   UNL     1      61.491  37.576  67.227  0.00  0.00    +0.000 A 
ATOM     12  C   UNL     1      62.848  39.863  69.814  0.00  0.00    +0.000 C 
ATOM     13  C   UNL     1      64.764  38.300  68.312  0.00  0.00    +0.000 C 
ATOM     14  C   UNL     1      59.980  39.333  68.380  0.00  0.00    +0.000 A 
ATOM     15  C   UNL     1      60.365  36.998  66.922  0.00  0.00    +0.000 A 
ATOM     16  C   UNL     1      58.949  38.502  67.821  0.00  0.00    +0.000 A 
ATOM     17  C   UNL     1      66.404  40.118  69.016  0.00  0.00    +0.000 C 
ATOM     18  C   UNL     1      58.930  37.476  67.195  0.00  0.00    +0.000 A 
ENDROOT
BRANCH  14  19
ATOM     19  O   UNL     1      59.709  40.180  69.415  0.00  0.00    +0.000 OA
ATOM     20  H   UNL     1      60.260  40.989  69.405  0.00  0.00    +0.000 HD
ENDBRANCH  14  19
BRANCH  10  21
ATOM     21  C   UNL     1      64.723  40.873  71.138  0.00  0.00    +0.000 C 
BRANCH  21  22
ATOM     22  O   UNL     1      65.085  41.947  71.845  0.00  0.00    +0.000 OA
ATOM     23  H   UNL     1      66.056  42.032  71.890  0.00  0.00    +0.000 HD
ENDBRANCH  21  22
ENDBRANCH  10  21
TORSDOF 3
ENDMDL
MODEL 4
REMARK VINA RESULT:      -5.0      2.701      5.144
REMARK  Name = 6223_Gliotoxin.pdbqt.pdb
REMARK  3 active torsions:
REMARK  status: ('A' for Active; 'I' for Inactive)
REMARK    1  A    between atoms: C_10  and  C_21
REMARK    2  A    between atoms: C_14  and  O_19
REMARK    3  A    between atoms: C_21  and  O_22
REMARK                            x       y       z     vdW  Elec       q    Type
REMARK                         _______ _______ _______ _____ _____    ______ ____
ROOT
ATOM      1  S   UNL     1      45.941  39.624  72.284  0.00  0.00    +0.000 S 
ATOM      2  S   UNL     1      47.585  39.711  73.528  0.00  0.00    +0.000 S 
ATOM      3  O   UNL     1      48.171  43.230  72.884  0.00  0.00    +0.000 OA
ATOM      4  O   UNL     1      47.836  39.412  69.285  0.00  0.00    +0.000 OA
ATOM      5  N   UNL     1      46.893  42.032  71.396  0.00  0.00    +0.000 N 
ATOM      6  N   UNL     1      48.940  40.258  71.182  0.00  0.00    +0.000 N 
ATOM      7  C   UNL     1      46.530  40.666  70.906  0.00  0.00    +0.000 C 
ATOM      8  C   UNL     1      46.051  43.006  70.859  0.00  0.00    +0.000 A 
ATOM      9  C   UNL     1      45.473  40.978  69.947  0.00  0.00    +0.000 C 
ATOM     10  C   UNL     1      48.708  40.836  72.547  0.00  0.00    +0.000 C 
ATOM     11  C   UNL     1      45.176  42.343  69.830  0.00  0.00    +0.000 A 
ATOM     12  C   UNL     1      47.931  42.170  72.310  0.00  0.00    +0.000 C 
ATOM     13  C   UNL     1      47.813  40.060  70.334  0.00  0.00    +0.000 C 
ATOM     14  C   UNL     1      45.680  44.332  71.406  0.00  0.00    +0.000 A 
ATOM     15  C   UNL     1      44.014  42.913  69.693  0.00  0.00    +0.000 A 
ATOM     16  C   UNL     1      44.365  44.728  70.980  0.00  0.00    +0.000 A 
ATOM     17  C   UNL     1      50.286  39.773  70.875  0.00  0.00    +0.000 C 
ATOM     18  C   UNL     1      43.517  44.245  70.278  0.00  0.00    +0.000 A 
ENDROOT
BRANCH  14  19
ATOM     19  O   UNL     1      46.227  44.845  72.547  0.00  0.00    +0.000 OA
ATOM     20  H   UNL     1      45.564  45.022  73.245  0.00  0.00    +0.000 HD
ENDBRANCH  14  19
BRANCH  10  21
ATOM     21  C   UNL     1      49.942  41.081  73.339  0.00  0.00    +0.000 C 
BRANCH  21  22
ATOM     22  O   UNL     1      51.040  41.301  74.067  0.00  0.00    +0.000 OA
ATOM     23  H   UNL     1      51.453  42.155  73.836  0.00  0.00    +0.000 HD
ENDBRANCH  21  22
ENDBRANCH  10  21
TORSDOF 3
ENDMDL
MODEL 5
REMARK VINA RESULT:      -5.0     15.367     16.421
REMARK  Name = 6223_Gliotoxin.pdbqt.pdb
REMARK  3 active torsions:
REMARK  status: ('A' for Active; 'I' for Inactive)
REMARK    1  A    between atoms: C_10  and  C_21
REMARK    2  A    between atoms: C_14  and  O_19
REMARK    3  A    between atoms: C_21  and  O_22
REMARK                            x       y       z     vdW  Elec       q    Type
REMARK                         _______ _______ _______ _____ _____    ______ ____
ROOT
ATOM      1  S   UNL     1      53.412  51.879  86.940  0.00  0.00    +0.000 S 
ATOM      2  S   UNL     1      52.240  50.232  87.357  0.00  0.00    +0.000 S 
ATOM      3  O   UNL     1      54.177  48.029  85.228  0.00  0.00    +0.000 OA
ATOM      4  O   UNL     1      51.897  52.544  83.795  0.00  0.00    +0.000 OA
ATOM      5  N   UNL     1      54.333  50.299  84.903  0.00  0.00    +0.000 N 
ATOM      6  N   UNL     1      51.627  50.376  84.666  0.00  0.00    +0.000 N 
ATOM      7  C   UNL     1      53.690  51.626  85.154  0.00  0.00    +0.000 C 
ATOM      8  C   UNL     1      55.617  50.447  84.377  0.00  0.00    +0.000 A 
ATOM      9  C   UNL     1      54.692  52.538  84.607  0.00  0.00    +0.000 C 
ATOM     10  C   UNL     1      52.174  49.415  85.680  0.00  0.00    +0.000 C 
ATOM     11  C   UNL     1      55.830  51.908  84.085  0.00  0.00    +0.000 A 
ATOM     12  C   UNL     1      53.648  49.139  85.243  0.00  0.00    +0.000 C 
ATOM     13  C   UNL     1      52.338  51.590  84.437  0.00  0.00    +0.000 C 
ATOM     14  C   UNL     1      56.778  49.529  84.458  0.00  0.00    +0.000 A 
ATOM     15  C   UNL     1      57.075  52.277  84.171  0.00  0.00    +0.000 A 
ATOM     16  C   UNL     1      58.022  50.248  84.423  0.00  0.00    +0.000 A 
ATOM     17  C   UNL     1      50.308  50.087  84.105  0.00  0.00    +0.000 C 
ATOM     18  C   UNL     1      58.332  51.406  84.327  0.00  0.00    +0.000 A 
ENDROOT
BRANCH  14  19
ATOM     19  O   UNL     1      56.705  48.289  85.023  0.00  0.00    +0.000 OA
ATOM     20  H   UNL     1      55.822  47.876  84.934  0.00  0.00    +0.000 HD
ENDBRANCH  14  19
BRANCH  10  21
ATOM     21  C   UNL     1      51.417  48.141  85.804  0.00  0.00    +0.000 C 
BRANCH  21  22
ATOM     22  O   UNL     1      50.747  46.992  85.930  0.00  0.00    +0.000 OA
ATOM     23  H   UNL     1      51.193  46.268  85.451  0.00  0.00    +0.000 HD
ENDBRANCH  21  22
ENDBRANCH  10  21
TORSDOF 3
ENDMDL
MODEL 6
REMARK VINA RESULT:      -4.9     11.279     13.893
REMARK  Name = 6223_Gliotoxin.pdbqt.pdb
REMARK  3 active torsions:
REMARK  status: ('A' for Active; 'I' for Inactive)
REMARK    1  A    between atoms: C_10  and  C_21
REMARK    2  A    between atoms: C_14  and  O_19
REMARK    3  A    between atoms: C_21  and  O_22
REMARK                            x       y       z     vdW  Elec       q    Type
REMARK                         _______ _______ _______ _____ _____    ______ ____
ROOT
ATOM      1  S   UNL     1      61.289  36.526  70.128  0.00  0.00    +0.000 S 
ATOM      2  S   UNL     1      59.427  36.930  69.333  0.00  0.00    +0.000 S 
ATOM      3  O   UNL     1      60.121  40.463  68.912  0.00  0.00    +0.000 OA
ATOM      4  O   UNL     1      60.499  37.720  73.380  0.00  0.00    +0.000 OA
ATOM      5  N   UNL     1      61.413  39.249  70.375  0.00  0.00    +0.000 N 
ATOM      6  N   UNL     1      59.129  38.457  71.617  0.00  0.00    +0.000 N 
ATOM      7  C   UNL     1      61.507  37.996  71.187  0.00  0.00    +0.000 C 
ATOM      8  C   UNL     1      62.626  39.938  70.359  0.00  0.00    +0.000 A 
ATOM      9  C   UNL     1      62.861  38.105  71.724  0.00  0.00    +0.000 C 
ATOM     10  C   UNL     1      59.060  38.581  70.123  0.00  0.00    +0.000 C 
ATOM     11  C   UNL     1      63.559  39.251  71.319  0.00  0.00    +0.000 A 
ATOM     12  C   UNL     1      60.220  39.550  69.729  0.00  0.00    +0.000 C 
ATOM     13  C   UNL     1      60.364  38.055  72.202  0.00  0.00    +0.000 C 
ATOM     14  C   UNL     1      63.163  40.871  69.340  0.00  0.00    +0.000 A 
ATOM     15  C   UNL     1      64.814  39.366  70.994  0.00  0.00    +0.000 A 
ATOM     16  C   UNL     1      64.600  40.838  69.302  0.00  0.00    +0.000 A 
ATOM     17  C   UNL     1      57.878  38.588  72.363  0.00  0.00    +0.000 C 
ATOM     18  C   UNL     1      65.454  40.249  69.910  0.00  0.00    +0.000 A 
ENDROOT
BRANCH  14  19
ATOM     19  O   UNL     1      62.446  41.274  68.251  0.00  0.00    +0.000 OA
ATOM     20  H   UNL     1      62.672  42.180  67.956  0.00  0.00    +0.000 HD
ENDBRANCH  14  19
BRANCH  10  21
ATOM     21  C   UNL     1      57.760  39.078  69.598  0.00  0.00    +0.000 C 
BRANCH  21  22
ATOM     22  O   UNL     1      56.602  39.538  69.116  0.00  0.00    +0.000 OA
ATOM     23  H   UNL     1      56.465  39.252  68.193  0.00  0.00    +0.000 HD
ENDBRANCH  21  22
ENDBRANCH  10  21
TORSDOF 3
ENDMDL
MODEL 7
REMARK VINA RESULT:      -4.8     10.858     11.799
REMARK  Name = 6223_Gliotoxin.pdbqt.pdb
REMARK  3 active torsions:
REMARK  status: ('A' for Active; 'I' for Inactive)
REMARK    1  A    between atoms: C_10  and  C_21
REMARK    2  A    between atoms: C_14  and  O_19
REMARK    3  A    between atoms: C_21  and  O_22
REMARK                            x       y       z     vdW  Elec       q    Type
REMARK                         _______ _______ _______ _____ _____    ______ ____
ROOT
ATOM      1  S   UNL     1      49.588  34.362  64.715  0.00  0.00    +0.000 S 
ATOM      2  S   UNL     1      47.612  34.850  64.373  0.00  0.00    +0.000 S 
ATOM      3  O   UNL     1      48.302  36.349  61.145  0.00  0.00    +0.000 OA
ATOM      4  O   UNL     1      50.540  37.633  65.726  0.00  0.00    +0.000 OA
ATOM      5  N   UNL     1      50.032  36.086  62.635  0.00  0.00    +0.000 N 
ATOM      6  N   UNL     1      48.560  37.444  64.471  0.00  0.00    +0.000 N 
ATOM      7  C   UNL     1      50.401  35.863  64.067  0.00  0.00    +0.000 C 
ATOM      8  C   UNL     1      51.143  35.963  61.798  0.00  0.00    +0.000 A 
ATOM      9  C   UNL     1      51.851  35.717  63.970  0.00  0.00    +0.000 C 
ATOM     10  C   UNL     1      47.798  36.523  63.564  0.00  0.00    +0.000 C 
ATOM     11  C   UNL     1      52.362  35.818  62.669  0.00  0.00    +0.000 A 
ATOM     12  C   UNL     1      48.704  36.329  62.307  0.00  0.00    +0.000 C 
ATOM     13  C   UNL     1      49.888  37.081  64.837  0.00  0.00    +0.000 C 
ATOM     14  C   UNL     1      51.203  35.586  60.367  0.00  0.00    +0.000 A 
ATOM     15  C   UNL     1      53.316  35.128  62.114  0.00  0.00    +0.000 A 
ATOM     16  C   UNL     1      52.441  34.928  60.047  0.00  0.00    +0.000 A 
ATOM     17  C   UNL     1      47.830  38.566  65.060  0.00  0.00    +0.000 C 
ATOM     18  C   UNL     1      53.431  34.633  60.663  0.00  0.00    +0.000 A 
ENDROOT
BRANCH  14  19
ATOM     19  O   UNL     1      50.089  35.383  59.604  0.00  0.00    +0.000 OA
ATOM     20  H   UNL     1      49.851  34.438  59.514  0.00  0.00    +0.000 HD
ENDBRANCH  14  19
BRANCH  10  21
ATOM     21  C   UNL     1      46.450  37.010  63.169  0.00  0.00    +0.000 C 
BRANCH  21  22
ATOM     22  O   UNL     1      45.238  37.459  62.829  0.00  0.00    +0.000 OA
ATOM     23  H   UNL     1      44.629  37.445  63.592  0.00  0.00    +0.000 HD
ENDBRANCH  21  22
ENDBRANCH  10  21
TORSDOF 3
ENDMDL
MODEL 8
REMARK VINA RESULT:      -4.8     22.001     23.726
REMARK  Name = 6223_Gliotoxin.pdbqt.pdb
REMARK  3 active torsions:
REMARK  status: ('A' for Active; 'I' for Inactive)
REMARK    1  A    between atoms: C_10  and  C_21
REMARK    2  A    between atoms: C_14  and  O_19
REMARK    3  A    between atoms: C_21  and  O_22
REMARK                            x       y       z     vdW  Elec       q    Type
REMARK                         _______ _______ _______ _____ _____    ______ ____
ROOT
ATOM      1  S   UNL     1      60.507  54.471  57.110  0.00  0.00    +0.000 S 
ATOM      2  S   UNL     1      61.373  56.344  57.174  0.00  0.00    +0.000 S 
ATOM      3  O   UNL     1      64.044  55.285  59.385  0.00  0.00    +0.000 OA
ATOM      4  O   UNL     1      58.884  54.777  60.257  0.00  0.00    +0.000 OA
ATOM      5  N   UNL     1      62.140  54.002  59.257  0.00  0.00    +0.000 N 
ATOM      6  N   UNL     1      60.693  56.224  59.851  0.00  0.00    +0.000 N 
ATOM      7  C   UNL     1      60.699  53.974  58.856  0.00  0.00    +0.000 C 
ATOM      8  C   UNL     1      62.609  52.724  59.562  0.00  0.00    +0.000 A 
ATOM      9  C   UNL     1      60.368  52.568  59.078  0.00  0.00    +0.000 C 
ATOM     10  C   UNL     1      61.888  56.431  58.967  0.00  0.00    +0.000 C 
ATOM     11  C   UNL     1      61.433  51.785  59.545  0.00  0.00    +0.000 A 
ATOM     12  C   UNL     1      62.825  55.211  59.238  0.00  0.00    +0.000 C 
ATOM     13  C   UNL     1      59.986  54.991  59.748  0.00  0.00    +0.000 C 
ATOM     14  C   UNL     1      63.989  52.187  59.492  0.00  0.00    +0.000 A 
ATOM     15  C   UNL     1      61.749  50.565  59.218  0.00  0.00    +0.000 A 
ATOM     16  C   UNL     1      63.992  50.776  59.218  0.00  0.00    +0.000 A 
ATOM     17  C   UNL     1      60.228  57.368  60.635  0.00  0.00    +0.000 C 
ATOM     18  C   UNL     1      63.143  49.940  59.053  0.00  0.00    +0.000 A 
ENDROOT
BRANCH  14  19
ATOM     19  O   UNL     1      65.071  52.960  59.183  0.00  0.00    +0.000 OA
ATOM     20  H   UNL     1      65.143  53.761  59.740  0.00  0.00    +0.000 HD
ENDBRANCH  14  19
BRANCH  10  21
ATOM     21  C   UNL     1      62.614  57.710  59.189  0.00  0.00    +0.000 C 
BRANCH  21  22
ATOM     22  O   UNL     1      63.272  58.852  59.406  0.00  0.00    +0.000 OA
ATOM     23  H   UNL     1      62.680  59.623  59.319  0.00  0.00    +0.000 HD
ENDBRANCH  21  22
ENDBRANCH  10  21
TORSDOF 3
ENDMDL
MODEL 9
REMARK VINA RESULT:      -4.7     48.625     50.682
REMARK  Name = 6223_Gliotoxin.pdbqt.pdb
REMARK  3 active torsions:
REMARK  status: ('A' for Active; 'I' for Inactive)
REMARK    1  A    between atoms: C_10  and  C_21
REMARK    2  A    between atoms: C_14  and  O_19
REMARK    3  A    between atoms: C_21  and  O_22
REMARK                            x       y       z     vdW  Elec       q    Type
REMARK                         _______ _______ _______ _____ _____    ______ ____
ROOT
ATOM      1  S   UNL     1      78.962  82.197  83.845  0.00  0.00    +0.000 S 
ATOM      2  S   UNL     1      79.340  80.189  83.549  0.00  0.00    +0.000 S 
ATOM      3  O   UNL     1      77.158  79.970  80.663  0.00  0.00    +0.000 OA
ATOM      4  O   UNL     1      75.834  81.686  85.452  0.00  0.00    +0.000 OA
ATOM      5  N   UNL     1      76.888  81.726  82.122  0.00  0.00    +0.000 N 
ATOM      6  N   UNL     1      76.653  79.917  84.137  0.00  0.00    +0.000 N 
ATOM      7  C   UNL     1      77.170  82.237  83.499  0.00  0.00    +0.000 C 
ATOM      8  C   UNL     1      76.365  82.728  81.304  0.00  0.00    +0.000 A 
ATOM      9  C   UNL     1      76.646  83.597  83.413  0.00  0.00    +0.000 C 
ATOM     10  C   UNL     1      77.643  79.582  83.061  0.00  0.00    +0.000 C 
ATOM     11  C   UNL     1      76.108  83.937  82.163  0.00  0.00    +0.000 A 
ATOM     12  C   UNL     1      77.200  80.408  81.811  0.00  0.00    +0.000 C 
ATOM     13  C   UNL     1      76.453  81.290  84.464  0.00  0.00    +0.000 C 
ATOM     14  C   UNL     1      76.425  82.864  79.830  0.00  0.00    +0.000 A 
ATOM     15  C   UNL     1      76.203  85.062  81.516  0.00  0.00    +0.000 A 
ATOM     16  C   UNL     1      76.407  84.244  79.427  0.00  0.00    +0.000 A 
ATOM     17  C   UNL     1      76.084  78.807  84.900  0.00  0.00    +0.000 C 
ATOM     18  C   UNL     1      76.339  85.297  80.004  0.00  0.00    +0.000 A 
ENDROOT
BRANCH  14  19
ATOM     19  O   UNL     1      76.960  81.907  79.017  0.00  0.00    +0.000 OA
ATOM     20  H   UNL     1      76.848  82.105  78.065  0.00  0.00    +0.000 HD
ENDBRANCH  14  19
BRANCH  10  21
ATOM     21  C   UNL     1      77.736  78.135  82.727  0.00  0.00    +0.000 C 
BRANCH  21  22
ATOM     22  O   UNL     1      77.839  76.838  82.427  0.00  0.00    +0.000 OA
ATOM     23  H   UNL     1      78.739  76.616  82.121  0.00  0.00    +0.000 HD
ENDBRANCH  21  22
ENDBRANCH  10  21
TORSDOF 3
ENDMDL
