MODEL 1
REMARK VINA RESULT:      -5.3      0.000      0.000
REMARK  Name = 6256_Trifluridine.pdbqt.pdb
REMARK  5 active torsions:
REMARK  status: ('A' for Active; 'I' for Inactive)
REMARK    1  A    between atoms: N_3  and  C1*_11
REMARK    2  A    between atoms: C_7  and  C_23
REMARK    3  A    between atoms: C3*_12  and  O3*_15
REMARK    4  A    between atoms: C4*_14  and  C5*_17
REMARK    5  A    between atoms: C5*_17  and  O5*_18
REMARK                            x       y       z     vdW  Elec       q    Type
REMARK                         _______ _______ _______ _____ _____    ______ ____
ROOT
ATOM      1  O   UNL     1      53.080  32.333  61.865  0.00  0.00    +0.000 OA
ATOM      2  O   UNL     1      56.721  33.697  64.304  0.00  0.00    +0.000 OA
ATOM      3  N   UNL     1      53.621  34.639  61.864  0.00  0.00    +0.000 N 
ATOM      4  N   UNL     1      54.895  33.076  63.061  0.00  0.00    +0.000 N 
ATOM      5  C   UNL     1      54.518  35.506  62.374  0.00  0.00    +0.000 A 
ATOM      6  C   UNL     1      53.779  33.279  62.212  0.00  0.00    +0.000 A 
ATOM      7  C   UNL     1      55.551  35.419  63.147  0.00  0.00    +0.000 A 
ATOM      8  C   UNL     1      55.799  34.017  63.567  0.00  0.00    +0.000 A 
ATOM      9  H   UNL     1      55.051  32.118  63.340  0.00  0.00    +0.000 HD
ENDROOT
BRANCH   3  11
ATOM     10  O4* UNL     1      52.888  35.752  59.846  0.00  0.00    +0.000 OA
ATOM     11  C1* UNL     1      52.623  35.111  61.061  0.00  0.00    +0.000 A 
ATOM     12  C3* UNL     1      50.599  35.700  60.195  0.00  0.00    +0.000 A 
ATOM     13  C2* UNL     1      51.233  35.083  61.287  0.00  0.00    +0.000 A 
ATOM     14  C4* UNL     1      51.650  36.121  59.303  0.00  0.00    +0.000 A 
BRANCH  12  15
ATOM     15  O3* UNL     1      49.428  36.400  60.281  0.00  0.00    +0.000 OA
ATOM     16  H3* UNL     1      48.844  36.019  60.959  0.00  0.00    +0.000 HD
ENDBRANCH  12  15
BRANCH  14  17
ATOM     17  C5* UNL     1      51.538  36.965  58.181  0.00  0.00    +0.000 C 
BRANCH  17  18
ATOM     18  O5* UNL     1      51.432  37.766  57.124  0.00  0.00    +0.000 OA
ATOM     19  H5* UNL     1      51.403  37.240  56.306  0.00  0.00    +0.000 HD
ENDBRANCH  17  18
ENDBRANCH  14  17
ENDBRANCH   3  11
BRANCH   7  23
ATOM     20  F   UNL     1      56.165  37.688  63.127  0.00  0.00    +0.000 F 
ATOM     21  F   UNL     1      56.342  36.609  65.004  0.00  0.00    +0.000 F 
ATOM     22  F   UNL     1      57.751  36.206  63.402  0.00  0.00    +0.000 F 
ATOM     23  C   UNL     1      56.444  36.469  63.653  0.00  0.00    +0.000 C 
ENDBRANCH   7  23
TORSDOF 5
ENDMDL
MODEL 2
REMARK VINA RESULT:      -5.2      5.075      6.294
REMARK  Name = 6256_Trifluridine.pdbqt.pdb
REMARK  5 active torsions:
REMARK  status: ('A' for Active; 'I' for Inactive)
REMARK    1  A    between atoms: N_3  and  C1*_11
REMARK    2  A    between atoms: C_7  and  C_23
REMARK    3  A    between atoms: C3*_12  and  O3*_15
REMARK    4  A    between atoms: C4*_14  and  C5*_17
REMARK    5  A    between atoms: C5*_17  and  O5*_18
REMARK                            x       y       z     vdW  Elec       q    Type
REMARK                         _______ _______ _______ _____ _____    ______ ____
ROOT
ATOM      1  O   UNL     1      49.012  32.695  60.708  0.00  0.00    +0.000 OA
ATOM      2  O   UNL     1      51.693  33.848  57.165  0.00  0.00    +0.000 OA
ATOM      3  N   UNL     1      49.672  34.960  60.501  0.00  0.00    +0.000 N 
ATOM      4  N   UNL     1      50.348  33.335  58.952  0.00  0.00    +0.000 N 
ATOM      5  C   UNL     1      50.398  35.773  59.708  0.00  0.00    +0.000 A 
ATOM      6  C   UNL     1      49.609  33.598  60.132  0.00  0.00    +0.000 A 
ATOM      7  C   UNL     1      51.099  35.629  58.632  0.00  0.00    +0.000 A 
ATOM      8  C   UNL     1      51.092  34.219  58.163  0.00  0.00    +0.000 A 
ATOM      9  H   UNL     1      50.336  32.372  58.646  0.00  0.00    +0.000 HD
ENDROOT
BRANCH   3  11
ATOM     10  O4* UNL     1      47.677  35.735  61.628  0.00  0.00    +0.000 OA
ATOM     11  C1* UNL     1      49.053  35.483  61.600  0.00  0.00    +0.000 A 
ATOM     12  C3* UNL     1      48.607  36.374  63.650  0.00  0.00    +0.000 A 
ATOM     13  C2* UNL     1      49.630  35.878  62.823  0.00  0.00    +0.000 A 
ATOM     14  C4* UNL     1      47.390  36.285  62.884  0.00  0.00    +0.000 A 
BRANCH  12  15
ATOM     15  O3* UNL     1      48.783  37.359  64.580  0.00  0.00    +0.000 OA
ATOM     16  H3* UNL     1      48.166  37.249  65.325  0.00  0.00    +0.000 HD
ENDBRANCH  12  15
BRANCH  14  17
ATOM     17  C5* UNL     1      46.137  36.849  63.194  0.00  0.00    +0.000 C 
BRANCH  17  18
ATOM     18  O5* UNL     1      44.954  37.379  63.490  0.00  0.00    +0.000 OA
ATOM     19  H5* UNL     1      45.071  38.227  63.952  0.00  0.00    +0.000 HD
ENDBRANCH  17  18
ENDBRANCH  14  17
ENDBRANCH   3  11
BRANCH   7  23
ATOM     20  F   UNL     1      53.197  36.311  57.818  0.00  0.00    +0.000 F 
ATOM     21  F   UNL     1      51.457  36.693  56.576  0.00  0.00    +0.000 F 
ATOM     22  F   UNL     1      51.765  37.868  58.375  0.00  0.00    +0.000 F 
ATOM     23  C   UNL     1      51.876  36.615  57.869  0.00  0.00    +0.000 C 
ENDBRANCH   7  23
TORSDOF 5
ENDMDL
MODEL 3
REMARK VINA RESULT:      -5.1     11.789     12.947
REMARK  Name = 6256_Trifluridine.pdbqt.pdb
REMARK  5 active torsions:
REMARK  status: ('A' for Active; 'I' for Inactive)
REMARK    1  A    between atoms: N_3  and  C1*_11
REMARK    2  A    between atoms: C_7  and  C_23
REMARK    3  A    between atoms: C3*_12  and  O3*_15
REMARK    4  A    between atoms: C4*_14  and  C5*_17
REMARK    5  A    between atoms: C5*_17  and  O5*_18
REMARK                            x       y       z     vdW  Elec       q    Type
REMARK                         _______ _______ _______ _____ _____    ______ ____
ROOT
ATOM      1  O   UNL     1      61.679  41.385  56.274  0.00  0.00    +0.000 OA
ATOM      2  O   UNL     1      62.680  37.066  57.462  0.00  0.00    +0.000 OA
ATOM      3  N   UNL     1      62.476  39.923  54.590  0.00  0.00    +0.000 N 
ATOM      4  N   UNL     1      62.190  39.210  56.806  0.00  0.00    +0.000 N 
ATOM      5  C   UNL     1      62.886  38.651  54.413  0.00  0.00    +0.000 A 
ATOM      6  C   UNL     1      62.079  40.290  55.896  0.00  0.00    +0.000 A 
ATOM      7  C   UNL     1      63.024  37.611  55.169  0.00  0.00    +0.000 A 
ATOM      8  C   UNL     1      62.628  37.901  56.571  0.00  0.00    +0.000 A 
ATOM      9  H   UNL     1      61.919  39.422  57.756  0.00  0.00    +0.000 HD
ENDROOT
BRANCH   3  11
ATOM     10  O4* UNL     1      61.306  41.052  52.800  0.00  0.00    +0.000 OA
ATOM     11  C1* UNL     1      62.471  40.774  53.523  0.00  0.00    +0.000 A 
ATOM     12  C3* UNL     1      63.078  42.210  51.860  0.00  0.00    +0.000 A 
ATOM     13  C2* UNL     1      63.557  41.466  52.953  0.00  0.00    +0.000 A 
ATOM     14  C4* UNL     1      61.666  41.934  51.772  0.00  0.00    +0.000 A 
BRANCH  12  15
ATOM     15  O3* UNL     1      63.810  42.490  50.742  0.00  0.00    +0.000 OA
ATOM     16  H3* UNL     1      64.699  42.098  50.799  0.00  0.00    +0.000 HD
ENDBRANCH  12  15
BRANCH  14  17
ATOM     17  C5* UNL     1      60.788  42.272  50.724  0.00  0.00    +0.000 C 
BRANCH  17  18
ATOM     18  O5* UNL     1      59.957  42.592  49.736  0.00  0.00    +0.000 OA
ATOM     19  H5* UNL     1      59.036  42.435  50.008  0.00  0.00    +0.000 HD
ENDBRANCH  17  18
ENDBRANCH  14  17
ENDBRANCH   3  11
BRANCH   7  23
ATOM     20  F   UNL     1      62.670  35.289  55.263  0.00  0.00    +0.000 F 
ATOM     21  F   UNL     1      63.656  36.091  53.502  0.00  0.00    +0.000 F 
ATOM     22  F   UNL     1      64.732  36.011  55.386  0.00  0.00    +0.000 F 
ATOM     23  C   UNL     1      63.514  36.265  54.845  0.00  0.00    +0.000 C 
ENDBRANCH   7  23
TORSDOF 5
ENDMDL
MODEL 4
REMARK VINA RESULT:      -4.9      4.576      6.115
REMARK  Name = 6256_Trifluridine.pdbqt.pdb
REMARK  5 active torsions:
REMARK  status: ('A' for Active; 'I' for Inactive)
REMARK    1  A    between atoms: N_3  and  C1*_11
REMARK    2  A    between atoms: C_7  and  C_23
REMARK    3  A    between atoms: C3*_12  and  O3*_15
REMARK    4  A    between atoms: C4*_14  and  C5*_17
REMARK    5  A    between atoms: C5*_17  and  O5*_18
REMARK                            x       y       z     vdW  Elec       q    Type
REMARK                         _______ _______ _______ _____ _____    ______ ____
ROOT
ATOM      1  O   UNL     1      49.392  33.350  62.176  0.00  0.00    +0.000 OA
ATOM      2  O   UNL     1      52.328  33.777  58.674  0.00  0.00    +0.000 OA
ATOM      3  N   UNL     1      49.614  35.479  61.162  0.00  0.00    +0.000 N 
ATOM      4  N   UNL     1      50.840  33.625  60.415  0.00  0.00    +0.000 N 
ATOM      5  C   UNL     1      50.283  36.105  60.174  0.00  0.00    +0.000 A 
ATOM      6  C   UNL     1      49.883  34.103  61.343  0.00  0.00    +0.000 A 
ATOM      7  C   UNL     1      51.164  35.761  59.292  0.00  0.00    +0.000 A 
ATOM      8  C   UNL     1      51.512  34.322  59.404  0.00  0.00    +0.000 A 
ATOM      9  H   UNL     1      51.069  32.645  60.504  0.00  0.00    +0.000 HD
ENDROOT
BRANCH   3  11
ATOM     10  O4* UNL     1      49.013  36.542  63.249  0.00  0.00    +0.000 OA
ATOM     11  C1* UNL     1      48.734  36.192  61.924  0.00  0.00    +0.000 A 
ATOM     12  C3* UNL     1      46.909  37.326  62.684  0.00  0.00    +0.000 A 
ATOM     13  C2* UNL     1      47.451  36.656  61.573  0.00  0.00    +0.000 A 
ATOM     14  C4* UNL     1      47.897  37.240  63.730  0.00  0.00    +0.000 A 
BRANCH  12  15
ATOM     15  O3* UNL     1      45.576  37.370  62.978  0.00  0.00    +0.000 OA
ATOM     16  H3* UNL     1      45.433  37.440  63.939  0.00  0.00    +0.000 HD
ENDBRANCH  12  15
BRANCH  14  17
ATOM     17  C5* UNL     1      47.740  37.571  65.090  0.00  0.00    +0.000 C 
BRANCH  17  18
ATOM     18  O5* UNL     1      47.593  37.880  66.375  0.00  0.00    +0.000 OA
ATOM     19  H5* UNL     1      48.446  37.809  66.837  0.00  0.00    +0.000 HD
ENDBRANCH  17  18
ENDBRANCH  14  17
ENDBRANCH   3  11
BRANCH   7  23
ATOM     20  F   UNL     1      51.466  37.871  58.299  0.00  0.00    +0.000 F 
ATOM     21  F   UNL     1      53.193  36.562  58.438  0.00  0.00    +0.000 F 
ATOM     22  F   UNL     1      51.620  36.107  57.013  0.00  0.00    +0.000 F 
ATOM     23  C   UNL     1      51.842  36.567  58.269  0.00  0.00    +0.000 C 
ENDBRANCH   7  23
TORSDOF 5
ENDMDL
MODEL 5
REMARK VINA RESULT:      -4.8     12.205     13.352
REMARK  Name = 6256_Trifluridine.pdbqt.pdb
REMARK  5 active torsions:
REMARK  status: ('A' for Active; 'I' for Inactive)
REMARK    1  A    between atoms: N_3  and  C1*_11
REMARK    2  A    between atoms: C_7  and  C_23
REMARK    3  A    between atoms: C3*_12  and  O3*_15
REMARK    4  A    between atoms: C4*_14  and  C5*_17
REMARK    5  A    between atoms: C5*_17  and  O5*_18
REMARK                            x       y       z     vdW  Elec       q    Type
REMARK                         _______ _______ _______ _____ _____    ______ ____
ROOT
ATOM      1  O   UNL     1      61.589  41.448  55.711  0.00  0.00    +0.000 OA
ATOM      2  O   UNL     1      61.185  37.226  57.465  0.00  0.00    +0.000 OA
ATOM      3  N   UNL     1      62.740  39.680  54.634  0.00  0.00    +0.000 N 
ATOM      4  N   UNL     1      61.420  39.312  56.537  0.00  0.00    +0.000 N 
ATOM      5  C   UNL     1      62.946  38.352  54.729  0.00  0.00    +0.000 A 
ATOM      6  C   UNL     1      61.904  40.268  55.610  0.00  0.00    +0.000 A 
ATOM      7  C   UNL     1      62.559  37.411  55.527  0.00  0.00    +0.000 A 
ATOM      8  C   UNL     1      61.668  37.935  56.594  0.00  0.00    +0.000 A 
ATOM      9  H   UNL     1      60.817  39.683  57.258  0.00  0.00    +0.000 HD
ENDROOT
BRANCH   3  11
ATOM     10  O4* UNL     1      64.339  41.327  53.871  0.00  0.00    +0.000 OA
ATOM     11  C1* UNL     1      63.342  40.376  53.626  0.00  0.00    +0.000 A 
ATOM     12  C3* UNL     1      63.935  41.219  51.593  0.00  0.00    +0.000 A 
ATOM     13  C2* UNL     1      63.082  40.310  52.243  0.00  0.00    +0.000 A 
ATOM     14  C4* UNL     1      64.712  41.855  52.628  0.00  0.00    +0.000 A 
BRANCH  12  15
ATOM     15  O3* UNL     1      63.614  41.887  50.445  0.00  0.00    +0.000 OA
ATOM     16  H3* UNL     1      62.828  42.446  50.574  0.00  0.00    +0.000 HD
ENDBRANCH  12  15
BRANCH  14  17
ATOM     17  C5* UNL     1      65.548  42.982  52.505  0.00  0.00    +0.000 C 
BRANCH  17  18
ATOM     18  O5* UNL     1      66.338  44.045  52.386  0.00  0.00    +0.000 OA
ATOM     19  H5* UNL     1      66.080  44.570  51.609  0.00  0.00    +0.000 HD
ENDBRANCH  17  18
ENDBRANCH  14  17
ENDBRANCH   3  11
BRANCH   7  23
ATOM     20  F   UNL     1      61.810  35.202  55.817  0.00  0.00    +0.000 F 
ATOM     21  F   UNL     1      63.334  35.564  54.313  0.00  0.00    +0.000 F 
ATOM     22  F   UNL     1      63.862  35.670  56.416  0.00  0.00    +0.000 F 
ATOM     23  C   UNL     1      62.884  35.979  55.529  0.00  0.00    +0.000 C 
ENDBRANCH   7  23
TORSDOF 5
ENDMDL
MODEL 6
REMARK VINA RESULT:      -4.6     25.696     27.207
REMARK  Name = 6256_Trifluridine.pdbqt.pdb
REMARK  5 active torsions:
REMARK  status: ('A' for Active; 'I' for Inactive)
REMARK    1  A    between atoms: N_3  and  C1*_11
REMARK    2  A    between atoms: C_7  and  C_23
REMARK    3  A    between atoms: C3*_12  and  O3*_15
REMARK    4  A    between atoms: C4*_14  and  C5*_17
REMARK    5  A    between atoms: C5*_17  and  O5*_18
REMARK                            x       y       z     vdW  Elec       q    Type
REMARK                         _______ _______ _______ _____ _____    ______ ____
ROOT
ATOM      1  O   UNL     1      54.154  52.762  84.228  0.00  0.00    +0.000 OA
ATOM      2  O   UNL     1      58.675  52.004  84.452  0.00  0.00    +0.000 OA
ATOM      3  N   UNL     1      54.897  50.529  84.491  0.00  0.00    +0.000 N 
ATOM      4  N   UNL     1      56.404  52.320  84.354  0.00  0.00    +0.000 N 
ATOM      5  C   UNL     1      56.030  49.807  84.605  0.00  0.00    +0.000 A 
ATOM      6  C   UNL     1      55.043  51.927  84.348  0.00  0.00    +0.000 A 
ATOM      7  C   UNL     1      57.296  50.069  84.617  0.00  0.00    +0.000 A 
ATOM      8  C   UNL     1      57.550  51.525  84.472  0.00  0.00    +0.000 A 
ATOM      9  H   UNL     1      56.563  53.313  84.253  0.00  0.00    +0.000 HD
ENDROOT
BRANCH   3  11
ATOM     10  O4* UNL     1      52.852  49.845  83.397  0.00  0.00    +0.000 OA
ATOM     11  C1* UNL     1      53.694  49.885  84.514  0.00  0.00    +0.000 A 
ATOM     12  C3* UNL     1      51.842  48.718  85.150  0.00  0.00    +0.000 A 
ATOM     13  C2* UNL     1      53.084  49.209  85.590  0.00  0.00    +0.000 A 
ATOM     14  C4* UNL     1      51.707  49.131  83.776  0.00  0.00    +0.000 A 
BRANCH  12  15
ATOM     15  O3* UNL     1      50.746  48.576  85.953  0.00  0.00    +0.000 OA
ATOM     16  H3* UNL     1      50.974  48.734  86.886  0.00  0.00    +0.000 HD
ENDBRANCH  12  15
BRANCH  14  17
ATOM     17  C5* UNL     1      50.555  49.065  82.969  0.00  0.00    +0.000 C 
BRANCH  17  18
ATOM     18  O5* UNL     1      49.470  49.003  82.203  0.00  0.00    +0.000 OA
ATOM     19  H5* UNL     1      48.699  48.735  82.733  0.00  0.00    +0.000 HD
ENDBRANCH  17  18
ENDBRANCH  14  17
ENDBRANCH   3  11
BRANCH   7  23
ATOM     20  F   UNL     1      59.356  49.587  85.641  0.00  0.00    +0.000 F 
ATOM     21  F   UNL     1      58.072  47.916  85.116  0.00  0.00    +0.000 F 
ATOM     22  F   UNL     1      59.100  49.009  83.547  0.00  0.00    +0.000 F 
ATOM     23  C   UNL     1      58.448  49.165  84.725  0.00  0.00    +0.000 C 
ENDBRANCH   7  23
TORSDOF 5
ENDMDL
MODEL 7
REMARK VINA RESULT:      -4.6     12.178     13.332
REMARK  Name = 6256_Trifluridine.pdbqt.pdb
REMARK  5 active torsions:
REMARK  status: ('A' for Active; 'I' for Inactive)
REMARK    1  A    between atoms: N_3  and  C1*_11
REMARK    2  A    between atoms: C_7  and  C_23
REMARK    3  A    between atoms: C3*_12  and  O3*_15
REMARK    4  A    between atoms: C4*_14  and  C5*_17
REMARK    5  A    between atoms: C5*_17  and  O5*_18
REMARK                            x       y       z     vdW  Elec       q    Type
REMARK                         _______ _______ _______ _____ _____    ______ ____
ROOT
ATOM      1  O   UNL     1      61.583  41.428  55.675  0.00  0.00    +0.000 OA
ATOM      2  O   UNL     1      61.179  37.195  57.404  0.00  0.00    +0.000 OA
ATOM      3  N   UNL     1      62.765  39.673  54.611  0.00  0.00    +0.000 N 
ATOM      4  N   UNL     1      61.415  39.287  56.489  0.00  0.00    +0.000 N 
ATOM      5  C   UNL     1      62.979  38.345  54.704  0.00  0.00    +0.000 A 
ATOM      6  C   UNL     1      61.908  40.250  55.575  0.00  0.00    +0.000 A 
ATOM      7  C   UNL     1      62.585  37.399  55.491  0.00  0.00    +0.000 A 
ATOM      8  C   UNL     1      61.672  37.912  56.544  0.00  0.00    +0.000 A 
ATOM      9  H   UNL     1      60.797  39.650  57.201  0.00  0.00    +0.000 HD
ENDROOT
BRANCH   3  11
ATOM     10  O4* UNL     1      63.156  40.101  52.263  0.00  0.00    +0.000 OA
ATOM     11  C1* UNL     1      63.380  40.377  53.616  0.00  0.00    +0.000 A 
ATOM     12  C3* UNL     1      64.686  41.830  52.443  0.00  0.00    +0.000 A 
ATOM     13  C2* UNL     1      64.318  41.422  53.737  0.00  0.00    +0.000 A 
ATOM     14  C4* UNL     1      63.955  40.987  51.530  0.00  0.00    +0.000 A 
BRANCH  12  15
ATOM     15  O3* UNL     1      65.919  42.319  52.115  0.00  0.00    +0.000 OA
ATOM     16  H3* UNL     1      66.549  41.596  51.952  0.00  0.00    +0.000 HD
ENDBRANCH  12  15
BRANCH  14  17
ATOM     17  C5* UNL     1      64.140  40.865  50.139  0.00  0.00    +0.000 C 
BRANCH  17  18
ATOM     18  O5* UNL     1      64.316  40.753  48.825  0.00  0.00    +0.000 OA
ATOM     19  H5* UNL     1      65.215  41.034  48.581  0.00  0.00    +0.000 HD
ENDBRANCH  17  18
ENDBRANCH  14  17
ENDBRANCH   3  11
BRANCH   7  23
ATOM     20  F   UNL     1      63.459  35.559  54.317  0.00  0.00    +0.000 F 
ATOM     21  F   UNL     1      63.840  35.670  56.452  0.00  0.00    +0.000 F 
ATOM     22  F   UNL     1      61.846  35.183  55.747  0.00  0.00    +0.000 F 
ATOM     23  C   UNL     1      62.921  35.969  55.493  0.00  0.00    +0.000 C 
ENDBRANCH   7  23
TORSDOF 5
ENDMDL
MODEL 8
REMARK VINA RESULT:      -4.5     27.917     29.668
REMARK  Name = 6256_Trifluridine.pdbqt.pdb
REMARK  5 active torsions:
REMARK  status: ('A' for Active; 'I' for Inactive)
REMARK    1  A    between atoms: N_3  and  C1*_11
REMARK    2  A    between atoms: C_7  and  C_23
REMARK    3  A    between atoms: C3*_12  and  O3*_15
REMARK    4  A    between atoms: C4*_14  and  C5*_17
REMARK    5  A    between atoms: C5*_17  and  O5*_18
REMARK                            x       y       z     vdW  Elec       q    Type
REMARK                         _______ _______ _______ _____ _____    ______ ____
ROOT
ATOM      1  O   UNL     1      70.070  61.055  68.193  0.00  0.00    +0.000 OA
ATOM      2  O   UNL     1      67.352  62.340  64.725  0.00  0.00    +0.000 OA
ATOM      3  N   UNL     1      69.719  59.519  66.425  0.00  0.00    +0.000 N 
ATOM      4  N   UNL     1      68.726  61.643  66.426  0.00  0.00    +0.000 N 
ATOM      5  C   UNL     1      69.062  59.400  65.254  0.00  0.00    +0.000 A 
ATOM      6  C   UNL     1      69.568  60.740  67.120  0.00  0.00    +0.000 A 
ATOM      7  C   UNL     1      68.280  60.153  64.552  0.00  0.00    +0.000 A 
ATOM      8  C   UNL     1      68.061  61.468  65.206  0.00  0.00    +0.000 A 
ATOM      9  H   UNL     1      68.584  62.532  66.883  0.00  0.00    +0.000 HD
ENDROOT
BRANCH   3  11
ATOM     10  O4* UNL     1      71.734  58.661  67.451  0.00  0.00    +0.000 OA
ATOM     11  C1* UNL     1      70.474  58.473  66.872  0.00  0.00    +0.000 A 
ATOM     12  C3* UNL     1      71.259  56.395  67.384  0.00  0.00    +0.000 A 
ATOM     13  C2* UNL     1      70.180  57.096  66.818  0.00  0.00    +0.000 A 
ATOM     14  C4* UNL     1      72.229  57.389  67.769  0.00  0.00    +0.000 A 
BRANCH  12  15
ATOM     15  O3* UNL     1      71.649  55.145  66.996  0.00  0.00    +0.000 OA
ATOM     16  H3* UNL     1      72.211  55.185  66.203  0.00  0.00    +0.000 HD
ENDBRANCH  12  15
BRANCH  14  17
ATOM     17  C5* UNL     1      73.558  57.177  68.183  0.00  0.00    +0.000 C 
BRANCH  17  18
ATOM     18  O5* UNL     1      74.815  56.979  68.571  0.00  0.00    +0.000 OA
ATOM     19  H5* UNL     1      74.976  56.031  68.717  0.00  0.00    +0.000 HD
ENDBRANCH  17  18
ENDBRANCH  14  17
ENDBRANCH   3  11
BRANCH   7  23
ATOM     20  F   UNL     1      67.914  58.667  62.768  0.00  0.00    +0.000 F 
ATOM     21  F   UNL     1      66.246  59.896  63.418  0.00  0.00    +0.000 F 
ATOM     22  F   UNL     1      67.887  60.810  62.330  0.00  0.00    +0.000 F 
ATOM     23  C   UNL     1      67.601  59.884  63.278  0.00  0.00    +0.000 C 
ENDBRANCH   7  23
TORSDOF 5
ENDMDL
MODEL 9
REMARK VINA RESULT:      -4.5     16.069     18.066
REMARK  Name = 6256_Trifluridine.pdbqt.pdb
REMARK  5 active torsions:
REMARK  status: ('A' for Active; 'I' for Inactive)
REMARK    1  A    between atoms: N_3  and  C1*_11
REMARK    2  A    between atoms: C_7  and  C_23
REMARK    3  A    between atoms: C3*_12  and  O3*_15
REMARK    4  A    between atoms: C4*_14  and  C5*_17
REMARK    5  A    between atoms: C5*_17  and  O5*_18
REMARK                            x       y       z     vdW  Elec       q    Type
REMARK                         _______ _______ _______ _____ _____    ______ ____
ROOT
ATOM      1  O   UNL     1      71.745  38.048  61.152  0.00  0.00    +0.000 OA
ATOM      2  O   UNL     1      72.354  42.351  59.675  0.00  0.00    +0.000 OA
ATOM      3  N   UNL     1      70.604  39.787  62.285  0.00  0.00    +0.000 N 
ATOM      4  N   UNL     1      72.004  40.221  60.455  0.00  0.00    +0.000 N 
ATOM      5  C   UNL     1      70.443  41.125  62.263  0.00  0.00    +0.000 A 
ATOM      6  C   UNL     1      71.459  39.230  61.308  0.00  0.00    +0.000 A 
ATOM      7  C   UNL     1      70.892  42.097  61.539  0.00  0.00    +0.000 A 
ATOM      8  C   UNL     1      71.806  41.607  60.476  0.00  0.00    +0.000 A 
ATOM      9  H   UNL     1      72.625  39.874  59.738  0.00  0.00    +0.000 HD
ENDROOT
BRANCH   3  11
ATOM     10  O4* UNL     1      70.239  39.181  64.598  0.00  0.00    +0.000 OA
ATOM     11  C1* UNL     1      69.951  39.055  63.235  0.00  0.00    +0.000 A 
ATOM     12  C3* UNL     1      68.591  37.579  64.316  0.00  0.00    +0.000 A 
ATOM     13  C2* UNL     1      68.956  38.074  63.052  0.00  0.00    +0.000 A 
ATOM     14  C4* UNL     1      69.410  38.277  65.275  0.00  0.00    +0.000 A 
BRANCH  12  15
ATOM     15  O3* UNL     1      68.174  36.299  64.547  0.00  0.00    +0.000 OA
ATOM     16  H3* UNL     1      67.476  36.041  63.921  0.00  0.00    +0.000 HD
ENDBRANCH  12  15
BRANCH  14  17
ATOM     17  C5* UNL     1      69.567  37.985  66.644  0.00  0.00    +0.000 C 
BRANCH  17  18
ATOM     18  O5* UNL     1      69.720  37.708  67.935  0.00  0.00    +0.000 OA
ATOM     19  H5* UNL     1      69.277  38.383  68.479  0.00  0.00    +0.000 HD
ENDBRANCH  17  18
ENDBRANCH  14  17
ENDBRANCH   3  11
BRANCH   7  23
ATOM     20  F   UNL     1      69.917  44.021  60.603  0.00  0.00    +0.000 F 
ATOM     21  F   UNL     1      69.954  43.857  62.769  0.00  0.00    +0.000 F 
ATOM     22  F   UNL     1      71.798  44.260  61.696  0.00  0.00    +0.000 F 
ATOM     23  C   UNL     1      70.649  43.542  61.641  0.00  0.00    +0.000 C 
ENDBRANCH   7  23
TORSDOF 5
ENDMDL
