MODEL 1
REMARK VINA RESULT:      -5.2      0.000      0.000
REMARK  Name = 6323266_Tipiracil.pdbqt.pdb
REMARK  2 active torsions:
REMARK  status: ('A' for Active; 'I' for Inactive)
REMARK    1  A    between atoms: C_6  and  C_12
REMARK    2  A    between atoms: C_12  and  N_13
REMARK                            x       y       z     vdW  Elec       q    Type
REMARK                         _______ _______ _______ _____ _____    ______ ____
ROOT
ATOM      1 CL   UNL     1      53.173  32.991  59.092  0.00  0.00    +0.000 Cl
ATOM      2  O   UNL     1      52.464  35.533  60.528  0.00  0.00    +0.000 OA
ATOM      3  O   UNL     1      50.937  37.867  56.959  0.00  0.00    +0.000 OA
ATOM      4  N   UNL     1      51.684  35.749  56.634  0.00  0.00    +0.000 N 
ATOM      5  N   UNL     1      51.694  36.687  58.742  0.00  0.00    +0.000 N 
ATOM      6  C   UNL     1      52.213  34.577  57.112  0.00  0.00    +0.000 A 
ATOM      7  C   UNL     1      52.502  34.423  58.411  0.00  0.00    +0.000 A 
ATOM      8  C   UNL     1      52.229  35.568  59.324  0.00  0.00    +0.000 A 
ATOM      9  C   UNL     1      51.408  36.832  57.417  0.00  0.00    +0.000 A 
ATOM     10  H   UNL     1      51.477  35.842  55.643  0.00  0.00    +0.000 HD
ATOM     11  H   UNL     1      51.502  37.475  59.343  0.00  0.00    +0.000 HD
ENDROOT
BRANCH   6  12
ATOM     12  C   UNL     1      52.427  33.562  56.141  0.00  0.00    +0.000 C 
BRANCH  12  13
ATOM     13  N   UNL     1      52.766  32.570  55.139  0.00  0.00    +0.000 N 
ATOM     14  N   UNL     1      53.626  34.116  53.417  0.00  0.00    +0.000 NA
ATOM     15  C   UNL     1      53.524  31.396  55.573  0.00  0.00    +0.000 C 
ATOM     16  C   UNL     1      54.757  30.872  54.845  0.00  0.00    +0.000 C 
ATOM     17  C   UNL     1      54.608  32.057  53.890  0.00  0.00    +0.000 C 
ATOM     18  C   UNL     1      53.566  33.038  54.104  0.00  0.00    +0.000 C 
ATOM     19  H   UNL     1      54.409  34.081  52.753  0.00  0.00    +0.000 HD
ENDBRANCH  12  13
ENDBRANCH   6  12
TORSDOF 2
ENDMDL
MODEL 2
REMARK VINA RESULT:      -5.2     11.227     11.800
REMARK  Name = 6323266_Tipiracil.pdbqt.pdb
REMARK  2 active torsions:
REMARK  status: ('A' for Active; 'I' for Inactive)
REMARK    1  A    between atoms: C_6  and  C_12
REMARK    2  A    between atoms: C_12  and  N_13
REMARK                            x       y       z     vdW  Elec       q    Type
REMARK                         _______ _______ _______ _____ _____    ______ ____
ROOT
ATOM      1 CL   UNL     1      64.176  37.516  54.994  0.00  0.00    +0.000 Cl
ATOM      2  O   UNL     1      62.408  36.057  56.936  0.00  0.00    +0.000 OA
ATOM      3  O   UNL     1      59.000  39.039  57.047  0.00  0.00    +0.000 OA
ATOM      4  N   UNL     1      60.792  39.484  55.727  0.00  0.00    +0.000 N 
ATOM      5  N   UNL     1      60.706  37.547  56.978  0.00  0.00    +0.000 N 
ATOM      6  C   UNL     1      62.021  39.148  55.220  0.00  0.00    +0.000 A 
ATOM      7  C   UNL     1      62.633  38.011  55.575  0.00  0.00    +0.000 A 
ATOM      8  C   UNL     1      61.932  37.117  56.541  0.00  0.00    +0.000 A 
ATOM      9  C   UNL     1      60.097  38.710  56.610  0.00  0.00    +0.000 A 
ATOM     10  H   UNL     1      60.350  40.356  55.444  0.00  0.00    +0.000 HD
ATOM     11  H   UNL     1      60.215  36.957  57.633  0.00  0.00    +0.000 HD
ENDROOT
BRANCH   6  12
ATOM     12  C   UNL     1      62.583  40.083  54.309  0.00  0.00    +0.000 C 
BRANCH  12  13
ATOM     13  N   UNL     1      63.219  41.088  53.481  0.00  0.00    +0.000 N 
ATOM     14  N   UNL     1      61.213  41.812  52.236  0.00  0.00    +0.000 NA
ATOM     15  C   UNL     1      64.110  42.047  54.136  0.00  0.00    +0.000 C 
ATOM     16  C   UNL     1      64.048  43.552  53.903  0.00  0.00    +0.000 C 
ATOM     17  C   UNL     1      62.850  43.288  52.989  0.00  0.00    +0.000 C 
ATOM     18  C   UNL     1      62.341  41.943  52.827  0.00  0.00    +0.000 C 
ATOM     19  H   UNL     1      60.866  42.721  51.909  0.00  0.00    +0.000 HD
ENDBRANCH  12  13
ENDBRANCH   6  12
TORSDOF 2
ENDMDL
MODEL 3
REMARK VINA RESULT:      -4.6     16.298     17.279
REMARK  Name = 6323266_Tipiracil.pdbqt.pdb
REMARK  2 active torsions:
REMARK  status: ('A' for Active; 'I' for Inactive)
REMARK    1  A    between atoms: C_6  and  C_12
REMARK    2  A    between atoms: C_12  and  N_13
REMARK                            x       y       z     vdW  Elec       q    Type
REMARK                         _______ _______ _______ _____ _____    ______ ____
ROOT
ATOM      1 CL   UNL     1      62.286  38.358  72.377  0.00  0.00    +0.000 Cl
ATOM      2  O   UNL     1      59.673  38.047  73.827  0.00  0.00    +0.000 OA
ATOM      3  O   UNL     1      56.956  39.660  70.581  0.00  0.00    +0.000 OA
ATOM      4  N   UNL     1      59.190  39.580  70.189  0.00  0.00    +0.000 N 
ATOM      5  N   UNL     1      58.323  38.844  72.196  0.00  0.00    +0.000 N 
ATOM      6  C   UNL     1      60.467  39.279  70.586  0.00  0.00    +0.000 A 
ATOM      7  C   UNL     1      60.716  38.758  71.796  0.00  0.00    +0.000 A 
ATOM      8  C   UNL     1      59.555  38.514  72.698  0.00  0.00    +0.000 A 
ATOM      9  C   UNL     1      58.086  39.378  70.964  0.00  0.00    +0.000 A 
ATOM     10  H   UNL     1      59.029  39.978  69.267  0.00  0.00    +0.000 HD
ATOM     11  H   UNL     1      57.523  38.687  72.792  0.00  0.00    +0.000 HD
ENDROOT
BRANCH   6  12
ATOM     12  C   UNL     1      61.486  39.559  69.636  0.00  0.00    +0.000 C 
BRANCH  12  13
ATOM     13  N   UNL     1      62.608  39.850  68.765  0.00  0.00    +0.000 N 
ATOM     14  N   UNL     1      63.343  41.940  69.855  0.00  0.00    +0.000 NA
ATOM     15  C   UNL     1      63.541  38.763  68.469  0.00  0.00    +0.000 C 
ATOM     16  C   UNL     1      65.057  38.904  68.555  0.00  0.00    +0.000 C 
ATOM     17  C   UNL     1      64.822  40.335  69.041  0.00  0.00    +0.000 C 
ATOM     18  C   UNL     1      63.475  40.825  69.240  0.00  0.00    +0.000 C 
ATOM     19  H   UNL     1      64.259  42.351  70.066  0.00  0.00    +0.000 HD
ENDBRANCH  12  13
ENDBRANCH   6  12
TORSDOF 2
ENDMDL
MODEL 4
REMARK VINA RESULT:      -4.4     14.868     16.678
REMARK  Name = 6323266_Tipiracil.pdbqt.pdb
REMARK  2 active torsions:
REMARK  status: ('A' for Active; 'I' for Inactive)
REMARK    1  A    between atoms: C_6  and  C_12
REMARK    2  A    between atoms: C_12  and  N_13
REMARK                            x       y       z     vdW  Elec       q    Type
REMARK                         _______ _______ _______ _____ _____    ______ ____
ROOT
ATOM      1 CL   UNL     1      61.346  39.098  71.026  0.00  0.00    +0.000 Cl
ATOM      2  O   UNL     1      63.847  39.850  72.511  0.00  0.00    +0.000 OA
ATOM      3  O   UNL     1      66.417  40.891  68.930  0.00  0.00    +0.000 OA
ATOM      4  N   UNL     1      64.284  40.202  68.574  0.00  0.00    +0.000 N 
ATOM      5  N   UNL     1      65.120  40.377  70.717  0.00  0.00    +0.000 N 
ATOM      6  C   UNL     1      63.067  39.776  69.042  0.00  0.00    +0.000 A 
ATOM      7  C   UNL     1      62.838  39.633  70.354  0.00  0.00    +0.000 A 
ATOM      8  C   UNL     1      63.950  39.954  71.293  0.00  0.00    +0.000 A 
ATOM      9  C   UNL     1      65.340  40.514  69.378  0.00  0.00    +0.000 A 
ATOM     10  H   UNL     1      64.434  40.299  67.572  0.00  0.00    +0.000 HD
ATOM     11  H   UNL     1      65.886  40.600  71.335  0.00  0.00    +0.000 HD
ENDROOT
BRANCH   6  12
ATOM     12  C   UNL     1      62.091  39.503  68.046  0.00  0.00    +0.000 C 
BRANCH  12  13
ATOM     13  N   UNL     1      61.168  39.125  66.994  0.00  0.00    +0.000 N 
ATOM     14  N   UNL     1      62.782  37.945  65.544  0.00  0.00    +0.000 NA
ATOM     15  C   UNL     1      59.896  38.518  67.387  0.00  0.00    +0.000 C 
ATOM     16  C   UNL     1      59.332  37.252  66.753  0.00  0.00    +0.000 C 
ATOM     17  C   UNL     1      60.609  37.192  65.913  0.00  0.00    +0.000 C 
ATOM     18  C   UNL     1      61.655  38.172  66.108  0.00  0.00    +0.000 C 
ATOM     19  H   UNL     1      62.738  37.093  64.973  0.00  0.00    +0.000 HD
ENDBRANCH  12  13
ENDBRANCH   6  12
TORSDOF 2
ENDMDL
MODEL 5
REMARK VINA RESULT:      -4.4     30.771     33.404
REMARK  Name = 6323266_Tipiracil.pdbqt.pdb
REMARK  2 active torsions:
REMARK  status: ('A' for Active; 'I' for Inactive)
REMARK    1  A    between atoms: C_6  and  C_12
REMARK    2  A    between atoms: C_12  and  N_13
REMARK                            x       y       z     vdW  Elec       q    Type
REMARK                         _______ _______ _______ _____ _____    ______ ____
ROOT
ATOM      1 CL   UNL     1      59.852  66.111  65.533  0.00  0.00    +0.000 Cl
ATOM      2  O   UNL     1      58.613  64.500  63.320  0.00  0.00    +0.000 OA
ATOM      3  O   UNL     1      55.783  62.028  65.849  0.00  0.00    +0.000 OA
ATOM      4  N   UNL     1      57.117  63.547  66.880  0.00  0.00    +0.000 N 
ATOM      5  N   UNL     1      57.195  63.278  64.590  0.00  0.00    +0.000 N 
ATOM      6  C   UNL     1      58.080  64.523  66.837  0.00  0.00    +0.000 A 
ATOM      7  C   UNL     1      58.634  64.903  65.677  0.00  0.00    +0.000 A 
ATOM      8  C   UNL     1      58.167  64.231  64.431  0.00  0.00    +0.000 A 
ATOM      9  C   UNL     1      56.644  62.897  65.778  0.00  0.00    +0.000 A 
ATOM     10  H   UNL     1      56.715  63.274  67.774  0.00  0.00    +0.000 HD
ATOM     11  H   UNL     1      56.865  62.810  63.758  0.00  0.00    +0.000 HD
ENDROOT
BRANCH   6  12
ATOM     12  C   UNL     1      58.439  65.084  68.092  0.00  0.00    +0.000 C 
BRANCH  12  13
ATOM     13  N   UNL     1      58.901  65.718  69.311  0.00  0.00    +0.000 N 
ATOM     14  N   UNL     1      60.998  64.442  69.577  0.00  0.00    +0.000 NA
ATOM     15  C   UNL     1      58.873  67.180  69.372  0.00  0.00    +0.000 C 
ATOM     16  C   UNL     1      60.045  68.027  69.854  0.00  0.00    +0.000 C 
ATOM     17  C   UNL     1      60.827  66.723  70.014  0.00  0.00    +0.000 C 
ATOM     18  C   UNL     1      60.228  65.463  69.633  0.00  0.00    +0.000 C 
ATOM     19  H   UNL     1      61.947  64.684  69.882  0.00  0.00    +0.000 HD
ENDBRANCH  12  13
ENDBRANCH   6  12
TORSDOF 2
ENDMDL
MODEL 6
REMARK VINA RESULT:      -4.3      4.780      7.520
REMARK  Name = 6323266_Tipiracil.pdbqt.pdb
REMARK  2 active torsions:
REMARK  status: ('A' for Active; 'I' for Inactive)
REMARK    1  A    between atoms: C_6  and  C_12
REMARK    2  A    between atoms: C_12  and  N_13
REMARK                            x       y       z     vdW  Elec       q    Type
REMARK                         _______ _______ _______ _____ _____    ______ ____
ROOT
ATOM      1 CL   UNL     1      50.914  35.079  63.582  0.00  0.00    +0.000 Cl
ATOM      2  O   UNL     1      53.339  35.425  61.843  0.00  0.00    +0.000 OA
ATOM      3  O   UNL     1      51.204  36.442  57.980  0.00  0.00    +0.000 OA
ATOM      4  N   UNL     1      49.961  36.029  59.833  0.00  0.00    +0.000 N 
ATOM      5  N   UNL     1      52.264  35.942  59.921  0.00  0.00    +0.000 N 
ATOM      6  C   UNL     1      49.860  35.710  61.163  0.00  0.00    +0.000 A 
ATOM      7  C   UNL     1      50.949  35.492  61.911  0.00  0.00    +0.000 A 
ATOM      8  C   UNL     1      52.280  35.611  61.251  0.00  0.00    +0.000 A 
ATOM      9  C   UNL     1      51.146  36.156  59.171  0.00  0.00    +0.000 A 
ATOM     10  H   UNL     1      49.117  36.186  59.286  0.00  0.00    +0.000 HD
ATOM     11  H   UNL     1      53.156  36.028  59.454  0.00  0.00    +0.000 HD
ENDROOT
BRANCH   6  12
ATOM     12  C   UNL     1      48.536  35.626  61.674  0.00  0.00    +0.000 C 
BRANCH  12  13
ATOM     13  N   UNL     1      47.225  35.613  62.293  0.00  0.00    +0.000 N 
ATOM     14  N   UNL     1      46.235  37.480  61.016  0.00  0.00    +0.000 NA
ATOM     15  C   UNL     1      46.548  34.324  62.428  0.00  0.00    +0.000 C 
ATOM     16  C   UNL     1      45.093  34.089  62.037  0.00  0.00    +0.000 C 
ATOM     17  C   UNL     1      45.062  35.543  61.565  0.00  0.00    +0.000 C 
ATOM     18  C   UNL     1      46.259  36.354  61.625  0.00  0.00    +0.000 C 
ATOM     19  H   UNL     1      45.307  37.657  60.614  0.00  0.00    +0.000 HD
ENDBRANCH  12  13
ENDBRANCH   6  12
TORSDOF 2
ENDMDL
MODEL 7
REMARK VINA RESULT:      -4.3     20.647     22.242
REMARK  Name = 6323266_Tipiracil.pdbqt.pdb
REMARK  2 active torsions:
REMARK  status: ('A' for Active; 'I' for Inactive)
REMARK    1  A    between atoms: C_6  and  C_12
REMARK    2  A    between atoms: C_12  and  N_13
REMARK                            x       y       z     vdW  Elec       q    Type
REMARK                         _______ _______ _______ _____ _____    ______ ____
ROOT
ATOM      1 CL   UNL     1      60.264  54.995  58.030  0.00  0.00    +0.000 Cl
ATOM      2  O   UNL     1      59.275  56.972  60.064  0.00  0.00    +0.000 OA
ATOM      3  O   UNL     1      61.859  55.644  63.540  0.00  0.00    +0.000 OA
ATOM      4  N   UNL     1      62.060  54.557  61.558  0.00  0.00    +0.000 N 
ATOM      5  N   UNL     1      60.577  56.309  61.791  0.00  0.00    +0.000 N 
ATOM      6  C   UNL     1      61.704  54.380  60.245  0.00  0.00    +0.000 A 
ATOM      7  C   UNL     1      60.775  55.153  59.666  0.00  0.00    +0.000 A 
ATOM      8  C   UNL     1      60.140  56.216  60.495  0.00  0.00    +0.000 A 
ATOM      9  C   UNL     1      61.521  55.512  62.369  0.00  0.00    +0.000 A 
ATOM     10  H   UNL     1      62.766  53.955  61.975  0.00  0.00    +0.000 HD
ATOM     11  H   UNL     1      60.160  57.023  62.371  0.00  0.00    +0.000 HD
ENDROOT
BRANCH   6  12
ATOM     12  C   UNL     1      62.381  53.334  59.563  0.00  0.00    +0.000 C 
BRANCH  12  13
ATOM     13  N   UNL     1      63.138  52.357  58.805  0.00  0.00    +0.000 N 
ATOM     14  N   UNL     1      65.394  53.039  59.540  0.00  0.00    +0.000 NA
ATOM     15  C   UNL     1      62.697  50.963  58.857  0.00  0.00    +0.000 C 
ATOM     16  C   UNL     1      63.636  49.789  59.108  0.00  0.00    +0.000 C 
ATOM     17  C   UNL     1      64.759  50.815  59.263  0.00  0.00    +0.000 C 
ATOM     18  C   UNL     1      64.469  52.230  59.183  0.00  0.00    +0.000 C 
ATOM     19  H   UNL     1      66.251  52.528  59.781  0.00  0.00    +0.000 HD
ENDBRANCH  12  13
ENDBRANCH   6  12
TORSDOF 2
ENDMDL
MODEL 8
REMARK VINA RESULT:      -4.2      4.866      6.631
REMARK  Name = 6323266_Tipiracil.pdbqt.pdb
REMARK  2 active torsions:
REMARK  status: ('A' for Active; 'I' for Inactive)
REMARK    1  A    between atoms: C_6  and  C_12
REMARK    2  A    between atoms: C_12  and  N_13
REMARK                            x       y       z     vdW  Elec       q    Type
REMARK                         _______ _______ _______ _____ _____    ______ ____
ROOT
ATOM      1 CL   UNL     1      53.840  32.350  62.591  0.00  0.00    +0.000 Cl
ATOM      2  O   UNL     1      55.535  33.011  64.982  0.00  0.00    +0.000 OA
ATOM      3  O   UNL     1      55.776  37.492  64.363  0.00  0.00    +0.000 OA
ATOM      4  N   UNL     1      54.599  36.250  62.873  0.00  0.00    +0.000 N 
ATOM      5  N   UNL     1      55.641  35.249  64.671  0.00  0.00    +0.000 N 
ATOM      6  C   UNL     1      54.122  35.043  62.428  0.00  0.00    +0.000 A 
ATOM      7  C   UNL     1      54.391  33.906  63.082  0.00  0.00    +0.000 A 
ATOM      8  C   UNL     1      55.225  33.993  64.314  0.00  0.00    +0.000 A 
ATOM      9  C   UNL     1      55.364  36.399  63.992  0.00  0.00    +0.000 A 
ATOM     10  H   UNL     1      54.383  37.100  62.356  0.00  0.00    +0.000 HD
ATOM     11  H   UNL     1      56.208  35.330  65.502  0.00  0.00    +0.000 HD
ENDROOT
BRANCH   6  12
ATOM     12  C   UNL     1      53.340  35.094  61.243  0.00  0.00    +0.000 C 
BRANCH  12  13
ATOM     13  N   UNL     1      52.470  35.051  60.084  0.00  0.00    +0.000 N 
ATOM     14  N   UNL     1      50.394  35.790  61.198  0.00  0.00    +0.000 NA
ATOM     15  C   UNL     1      52.948  35.673  58.849  0.00  0.00    +0.000 C 
ATOM     16  C   UNL     1      52.110  36.626  58.005  0.00  0.00    +0.000 C 
ATOM     17  C   UNL     1      51.016  36.487  59.065  0.00  0.00    +0.000 C 
ATOM     18  C   UNL     1      51.248  35.690  60.250  0.00  0.00    +0.000 C 
ATOM     19  H   UNL     1      49.617  36.404  60.926  0.00  0.00    +0.000 HD
ENDBRANCH  12  13
ENDBRANCH   6  12
TORSDOF 2
ENDMDL
MODEL 9
REMARK VINA RESULT:      -4.2     16.312     18.451
REMARK  Name = 6323266_Tipiracil.pdbqt.pdb
REMARK  2 active torsions:
REMARK  status: ('A' for Active; 'I' for Inactive)
REMARK    1  A    between atoms: C_6  and  C_12
REMARK    2  A    between atoms: C_12  and  N_13
REMARK                            x       y       z     vdW  Elec       q    Type
REMARK                         _______ _______ _______ _____ _____    ______ ____
ROOT
ATOM      1 CL   UNL     1      61.620  38.461  71.577  0.00  0.00    +0.000 Cl
ATOM      2  O   UNL     1      59.343  38.704  69.632  0.00  0.00    +0.000 OA
ATOM      3  O   UNL     1      61.273  41.635  66.768  0.00  0.00    +0.000 OA
ATOM      4  N   UNL     1      62.453  40.950  68.581  0.00  0.00    +0.000 N 
ATOM      5  N   UNL     1      60.319  40.160  68.202  0.00  0.00    +0.000 N 
ATOM      6  C   UNL     1      62.566  40.205  69.727  0.00  0.00    +0.000 A 
ATOM      7  C   UNL     1      61.565  39.422  70.149  0.00  0.00    +0.000 A 
ATOM      8  C   UNL     1      60.320  39.383  69.331  0.00  0.00    +0.000 A 
ATOM      9  C   UNL     1      61.344  40.957  67.786  0.00  0.00    +0.000 A 
ATOM     10  H   UNL     1      63.227  41.540  68.284  0.00  0.00    +0.000 HD
ATOM     11  H   UNL     1      59.485  40.148  67.632  0.00  0.00    +0.000 HD
ENDROOT
BRANCH   6  12
ATOM     12  C   UNL     1      63.802  40.330  70.418  0.00  0.00    +0.000 C 
BRANCH  12  13
ATOM     13  N   UNL     1      64.994  40.480  71.230  0.00  0.00    +0.000 N 
ATOM     14  N   UNL     1      63.915  40.296  73.443  0.00  0.00    +0.000 NA
ATOM     15  C   UNL     1      66.166  39.681  70.873  0.00  0.00    +0.000 C 
ATOM     16  C   UNL     1      66.980  38.878  71.881  0.00  0.00    +0.000 C 
ATOM     17  C   UNL     1      65.974  39.329  72.941  0.00  0.00    +0.000 C 
ATOM     18  C   UNL     1      64.834  40.138  72.566  0.00  0.00    +0.000 C 
ATOM     19  H   UNL     1      64.177  39.850  74.330  0.00  0.00    +0.000 HD
ENDBRANCH  12  13
ENDBRANCH   6  12
TORSDOF 2
ENDMDL
