REMARK  Name = 6325056_Deoxyelephantopin.pdbqt.pdb
REMARK  3 active torsions:
REMARK  status: ('A' for Active; 'I' for Inactive)
REMARK    1  A    between atoms: C_6  and  O_20
REMARK    2  A    between atoms: O_20  and  C_22
REMARK    3  A    between atoms: C_22  and  C_23
REMARK                            x       y       z     vdW  Elec       q    Type
REMARK                         _______ _______ _______ _____ _____    ______ ____
ROOT
ATOM      1  O   UNL     1       0.901  -3.133  -0.368  0.00  0.00    +0.000 OA
ATOM      2  O   UNL     1       2.700   3.131  -0.138  0.00  0.00    +0.000 OA
ATOM      3  O   UNL     1      -0.653  -4.770   0.058  0.00  0.00    +0.000 OA
ATOM      4  O   UNL     1       0.519   3.901  -0.340  0.00  0.00    +0.000 OA
ATOM      5  C   UNL     1      -0.337  -1.233   0.286  0.00  0.00    +0.000 C 
ATOM      6  C   UNL     1      -0.746   0.155   0.505  0.00  0.00    +0.000 C 
ATOM      7  C   UNL     1       0.920  -1.739  -0.235  0.00  0.00    +0.000 C 
ATOM      8  C   UNL     1       0.135   1.166   0.970  0.00  0.00    +0.000 C 
ATOM      9  C   UNL     1      -1.140  -2.422   0.479  0.00  0.00    +0.000 C 
ATOM     10  C   UNL     1       1.092   2.185   1.275  0.00  0.00    +0.000 C 
ATOM     11  C   UNL     1       2.118  -1.046  -0.528  0.00  0.00    +0.000 C 
ATOM     12  C   UNL     1       3.222   2.064   0.624  0.00  0.00    +0.000 C 
ATOM     13  C   UNL     1       3.555   0.904  -0.137  0.00  0.00    +0.000 C 
ATOM     14  C   UNL     1       3.347  -0.356  -0.743  0.00  0.00    +0.000 C 
ATOM     15  C   UNL     1       2.373   1.829   1.724  0.00  0.00    +0.000 C 
ATOM     16  C   UNL     1      -0.331  -3.594   0.049  0.00  0.00    +0.000 C 
ATOM     17  C   UNL     1       1.357   3.204   0.204  0.00  0.00    +0.000 C 
ATOM     18  C   UNL     1      -2.362  -2.485   1.020  0.00  0.00    +0.000 C 
ATOM     19  C   UNL     1       4.495  -1.074  -1.376  0.00  0.00    +0.000 C 
ENDROOT
BRANCH   6  20
ATOM     20  O   UNL     1      -2.111   0.490   0.507  0.00  0.00    +0.000 OA
BRANCH  20  22
ATOM     21  O   UNL     1      -2.224  -0.125  -1.708  0.00  0.00    +0.000 OA
ATOM     22  C   UNL     1      -2.763   0.309  -0.693  0.00  0.00    +0.000 C 
BRANCH  22  23
ATOM     23  C   UNL     1      -4.210   0.711  -0.559  0.00  0.00    +0.000 C 
ATOM     24  C   UNL     1      -4.787   1.325   0.706  0.00  0.00    +0.000 C 
ATOM     25  C   UNL     1      -5.070   0.608  -1.580  0.00  0.00    +0.000 C 
ENDBRANCH  22  23
ENDBRANCH  20  22
ENDBRANCH   6  20
TORSDOF 3
