MODEL 1
REMARK VINA RESULT:      -6.3      0.000      0.000
REMARK  Name = 6325056_Deoxyelephantopin.pdbqt.pdb
REMARK  3 active torsions:
REMARK  status: ('A' for Active; 'I' for Inactive)
REMARK    1  A    between atoms: C_6  and  O_20
REMARK    2  A    between atoms: O_20  and  C_22
REMARK    3  A    between atoms: C_22  and  C_23
REMARK                            x       y       z     vdW  Elec       q    Type
REMARK                         _______ _______ _______ _____ _____    ______ ____
ROOT
ATOM      1  O   UNL     1      65.012  52.109  59.447  0.00  0.00    +0.000 OA
ATOM      2  O   UNL     1      61.314  57.347  60.637  0.00  0.00    +0.000 OA
ATOM      3  O   UNL     1      65.193  49.852  59.058  0.00  0.00    +0.000 OA
ATOM      4  O   UNL     1      59.504  56.500  59.456  0.00  0.00    +0.000 OA
ATOM      5  C   UNL     1      62.661  52.315  59.490  0.00  0.00    +0.000 C 
ATOM      6  C   UNL     1      61.314  52.885  59.524  0.00  0.00    +0.000 C 
ATOM      7  C   UNL     1      63.939  52.995  59.606  0.00  0.00    +0.000 C 
ATOM      8  C   UNL     1      60.941  53.962  60.370  0.00  0.00    +0.000 C 
ATOM      9  C   UNL     1      63.020  50.932  59.257  0.00  0.00    +0.000 C 
ATOM     10  C   UNL     1      60.655  55.152  61.111  0.00  0.00    +0.000 C 
ATOM     11  C   UNL     1      64.216  54.345  59.924  0.00  0.00    +0.000 C 
ATOM     12  C   UNL     1      62.199  56.705  61.530  0.00  0.00    +0.000 C 
ATOM     13  C   UNL     1      63.490  56.434  60.987  0.00  0.00    +0.000 C 
ATOM     14  C   UNL     1      64.490  55.685  60.325  0.00  0.00    +0.000 C 
ATOM     15  C   UNL     1      61.549  55.592  62.099  0.00  0.00    +0.000 C 
ATOM     16  C   UNL     1      64.505  50.844  59.228  0.00  0.00    +0.000 C 
ATOM     17  C   UNL     1      60.363  56.390  60.313  0.00  0.00    +0.000 C 
ATOM     18  C   UNL     1      62.184  49.892  59.161  0.00  0.00    +0.000 C 
ATOM     19  C   UNL     1      65.895  56.194  60.286  0.00  0.00    +0.000 C 
ENDROOT
BRANCH   6  20
ATOM     20  O   UNL     1      60.253  52.211  58.895  0.00  0.00    +0.000 OA
BRANCH  20  22
ATOM     21  O   UNL     1      59.957  53.570  57.061  0.00  0.00    +0.000 OA
ATOM     22  C   UNL     1      59.498  52.976  58.034  0.00  0.00    +0.000 C 
BRANCH  22  23
ATOM     23  C   UNL     1      58.053  52.961  58.463  0.00  0.00    +0.000 C 
ATOM     24  C   UNL     1      57.424  51.802  59.220  0.00  0.00    +0.000 C 
ATOM     25  C   UNL     1      57.242  54.006  58.255  0.00  0.00    +0.000 C 
ENDBRANCH  22  23
ENDBRANCH  20  22
ENDBRANCH   6  20
TORSDOF 3
ENDMDL
MODEL 2
REMARK VINA RESULT:      -6.1     14.318     17.054
REMARK  Name = 6325056_Deoxyelephantopin.pdbqt.pdb
REMARK  3 active torsions:
REMARK  status: ('A' for Active; 'I' for Inactive)
REMARK    1  A    between atoms: C_6  and  O_20
REMARK    2  A    between atoms: O_20  and  C_22
REMARK    3  A    between atoms: C_22  and  C_23
REMARK                            x       y       z     vdW  Elec       q    Type
REMARK                         _______ _______ _______ _____ _____    ______ ____
ROOT
ATOM      1  O   UNL     1      63.810  35.820  51.788  0.00  0.00    +0.000 OA
ATOM      2  O   UNL     1      62.294  39.518  56.941  0.00  0.00    +0.000 OA
ATOM      3  O   UNL     1      63.428  35.195  49.611  0.00  0.00    +0.000 OA
ATOM      4  O   UNL     1      61.563  41.284  55.624  0.00  0.00    +0.000 OA
ATOM      5  C   UNL     1      62.265  37.595  51.966  0.00  0.00    +0.000 C 
ATOM      6  C   UNL     1      61.525  38.752  52.473  0.00  0.00    +0.000 C 
ATOM      7  C   UNL     1      63.279  36.801  52.635  0.00  0.00    +0.000 C 
ATOM      8  C   UNL     1      61.079  38.868  53.816  0.00  0.00    +0.000 C 
ATOM      9  C   UNL     1      62.194  37.026  50.637  0.00  0.00    +0.000 C 
ATOM     10  C   UNL     1      60.799  39.020  55.211  0.00  0.00    +0.000 C 
ATOM     11  C   UNL     1      63.711  36.840  53.982  0.00  0.00    +0.000 C 
ATOM     12  C   UNL     1      62.090  38.129  56.797  0.00  0.00    +0.000 C 
ATOM     13  C   UNL     1      63.226  37.412  56.318  0.00  0.00    +0.000 C 
ATOM     14  C   UNL     1      64.084  36.828  55.358  0.00  0.00    +0.000 C 
ATOM     15  C   UNL     1      60.902  37.915  56.069  0.00  0.00    +0.000 C 
ATOM     16  C   UNL     1      63.186  35.920  50.561  0.00  0.00    +0.000 C 
ATOM     17  C   UNL     1      61.543  40.106  55.933  0.00  0.00    +0.000 C 
ATOM     18  C   UNL     1      61.343  37.367  49.663  0.00  0.00    +0.000 C 
ATOM     19  C   UNL     1      65.229  35.977  55.805  0.00  0.00    +0.000 C 
ENDROOT
BRANCH   6  20
ATOM     20  O   UNL     1      60.995  39.693  51.573  0.00  0.00    +0.000 OA
BRANCH  20  22
ATOM     21  O   UNL     1      61.231  41.857  52.318  0.00  0.00    +0.000 OA
ATOM     22  C   UNL     1      61.596  40.932  51.597  0.00  0.00    +0.000 C 
BRANCH  22  23
ATOM     23  C   UNL     1      62.749  40.965  50.626  0.00  0.00    +0.000 C 
ATOM     24  C   UNL     1      62.569  41.177  49.131  0.00  0.00    +0.000 C 
ATOM     25  C   UNL     1      64.020  40.870  51.034  0.00  0.00    +0.000 C 
ENDBRANCH  22  23
ENDBRANCH  20  22
ENDBRANCH   6  20
TORSDOF 3
ENDMDL
MODEL 3
REMARK VINA RESULT:      -6.0      2.126      5.007
REMARK  Name = 6325056_Deoxyelephantopin.pdbqt.pdb
REMARK  3 active torsions:
REMARK  status: ('A' for Active; 'I' for Inactive)
REMARK    1  A    between atoms: C_6  and  O_20
REMARK    2  A    between atoms: O_20  and  C_22
REMARK    3  A    between atoms: C_22  and  C_23
REMARK                            x       y       z     vdW  Elec       q    Type
REMARK                         _______ _______ _______ _____ _____    ______ ____
ROOT
ATOM      1  O   UNL     1      65.185  58.523  59.919  0.00  0.00    +0.000 OA
ATOM      2  O   UNL     1      59.332  55.662  60.197  0.00  0.00    +0.000 OA
ATOM      3  O   UNL     1      67.471  58.392  60.107  0.00  0.00    +0.000 OA
ATOM      4  O   UNL     1      60.162  53.600  59.528  0.00  0.00    +0.000 OA
ATOM      5  C   UNL     1      64.633  56.248  60.221  0.00  0.00    +0.000 C 
ATOM      6  C   UNL     1      63.880  54.995  60.286  0.00  0.00    +0.000 C 
ATOM      7  C   UNL     1      64.140  57.593  59.985  0.00  0.00    +0.000 C 
ATOM      8  C   UNL     1      62.590  54.886  60.867  0.00  0.00    +0.000 C 
ATOM      9  C   UNL     1      66.069  56.412  60.308  0.00  0.00    +0.000 C 
ATOM     10  C   UNL     1      61.228  54.857  61.306  0.00  0.00    +0.000 C 
ATOM     11  C   UNL     1      62.808  58.063  59.903  0.00  0.00    +0.000 C 
ATOM     12  C   UNL     1      59.863  56.609  61.098  0.00  0.00    +0.000 C 
ATOM     13  C   UNL     1      60.443  57.755  60.476  0.00  0.00    +0.000 C 
ATOM     14  C   UNL     1      61.466  58.544  59.903  0.00  0.00    +0.000 C 
ATOM     15  C   UNL     1      60.700  55.945  62.018  0.00  0.00    +0.000 C 
ATOM     16  C   UNL     1      66.377  57.853  60.105  0.00  0.00    +0.000 C 
ATOM     17  C   UNL     1      60.188  54.573  60.261  0.00  0.00    +0.000 C 
ATOM     18  C   UNL     1      66.967  55.464  60.598  0.00  0.00    +0.000 C 
ATOM     19  C   UNL     1      61.193  59.969  59.547  0.00  0.00    +0.000 C 
ENDROOT
BRANCH   6  20
ATOM     20  O   UNL     1      64.522  53.778  60.000  0.00  0.00    +0.000 OA
BRANCH  20  22
ATOM     21  O   UNL     1      63.903  53.695  57.785  0.00  0.00    +0.000 OA
ATOM     22  C   UNL     1      64.085  53.134  58.863  0.00  0.00    +0.000 C 
BRANCH  22  23
ATOM     23  C   UNL     1      63.881  51.668  59.147  0.00  0.00    +0.000 C 
ATOM     24  C   UNL     1      62.509  51.042  59.333  0.00  0.00    +0.000 C 
ATOM     25  C   UNL     1      64.905  50.807  59.190  0.00  0.00    +0.000 C 
ENDBRANCH  22  23
ENDBRANCH  20  22
ENDBRANCH   6  20
TORSDOF 3
ENDMDL
MODEL 4
REMARK VINA RESULT:      -5.8     13.276     15.629
REMARK  Name = 6325056_Deoxyelephantopin.pdbqt.pdb
REMARK  3 active torsions:
REMARK  status: ('A' for Active; 'I' for Inactive)
REMARK    1  A    between atoms: C_6  and  O_20
REMARK    2  A    between atoms: O_20  and  C_22
REMARK    3  A    between atoms: C_22  and  C_23
REMARK                            x       y       z     vdW  Elec       q    Type
REMARK                         _______ _______ _______ _____ _____    ______ ____
ROOT
ATOM      1  O   UNL     1      71.360  44.789  66.470  0.00  0.00    +0.000 OA
ATOM      2  O   UNL     1      72.113  44.230  60.016  0.00  0.00    +0.000 OA
ATOM      3  O   UNL     1      70.696  43.891  68.477  0.00  0.00    +0.000 OA
ATOM      4  O   UNL     1      72.462  41.937  60.123  0.00  0.00    +0.000 OA
ATOM      5  C   UNL     1      71.033  42.916  65.071  0.00  0.00    +0.000 C 
ATOM      6  C   UNL     1      71.044  42.027  63.909  0.00  0.00    +0.000 C 
ATOM      7  C   UNL     1      71.451  44.303  65.159  0.00  0.00    +0.000 C 
ATOM      8  C   UNL     1      70.736  42.458  62.592  0.00  0.00    +0.000 C 
ATOM      9  C   UNL     1      70.662  42.575  66.429  0.00  0.00    +0.000 C 
ATOM     10  C   UNL     1      70.587  42.968  61.263  0.00  0.00    +0.000 C 
ATOM     11  C   UNL     1      71.837  45.195  64.131  0.00  0.00    +0.000 C 
ATOM     12  C   UNL     1      71.184  45.042  60.700  0.00  0.00    +0.000 C 
ATOM     13  C   UNL     1      71.745  45.816  61.759  0.00  0.00    +0.000 C 
ATOM     14  C   UNL     1      72.144  46.111  63.083  0.00  0.00    +0.000 C 
ATOM     15  C   UNL     1      70.071  44.258  61.064  0.00  0.00    +0.000 C 
ATOM     16  C   UNL     1      70.889  43.775  67.279  0.00  0.00    +0.000 C 
ATOM     17  C   UNL     1      71.804  42.928  60.384  0.00  0.00    +0.000 C 
ATOM     18  C   UNL     1      70.133  41.421  66.849  0.00  0.00    +0.000 C 
ATOM     19  C   UNL     1      72.640  47.480  63.421  0.00  0.00    +0.000 C 
ENDROOT
BRANCH   6  20
ATOM     20  O   UNL     1      71.113  40.635  64.092  0.00  0.00    +0.000 OA
BRANCH  20  22
ATOM     21  O   UNL     1      73.170  40.061  63.235  0.00  0.00    +0.000 OA
ATOM     22  C   UNL     1      71.945  39.967  63.222  0.00  0.00    +0.000 C 
BRANCH  22  23
ATOM     23  C   UNL     1      71.131  39.117  62.280  0.00  0.00    +0.000 C 
ATOM     24  C   UNL     1      69.658  38.811  62.501  0.00  0.00    +0.000 C 
ATOM     25  C   UNL     1      71.646  38.625  61.146  0.00  0.00    +0.000 C 
ENDBRANCH  22  23
ENDBRANCH  20  22
ENDBRANCH   6  20
TORSDOF 3
ENDMDL
MODEL 5
REMARK VINA RESULT:      -5.5     16.164     18.394
REMARK  Name = 6325056_Deoxyelephantopin.pdbqt.pdb
REMARK  3 active torsions:
REMARK  status: ('A' for Active; 'I' for Inactive)
REMARK    1  A    between atoms: C_6  and  O_20
REMARK    2  A    between atoms: O_20  and  C_22
REMARK    3  A    between atoms: C_22  and  C_23
REMARK                            x       y       z     vdW  Elec       q    Type
REMARK                         _______ _______ _______ _____ _____    ______ ____
ROOT
ATOM      1  O   UNL     1      60.658  38.313  71.985  0.00  0.00    +0.000 OA
ATOM      2  O   UNL     1      66.915  39.647  70.717  0.00  0.00    +0.000 OA
ATOM      3  O   UNL     1      58.446  38.398  71.373  0.00  0.00    +0.000 OA
ATOM      4  O   UNL     1      66.620  39.484  68.420  0.00  0.00    +0.000 OA
ATOM      5  C   UNL     1      61.642  39.219  70.040  0.00  0.00    +0.000 C 
ATOM      6  C   UNL     1      62.630  39.646  69.048  0.00  0.00    +0.000 C 
ATOM      7  C   UNL     1      61.862  38.675  71.367  0.00  0.00    +0.000 C 
ATOM      8  C   UNL     1      63.840  40.308  69.385  0.00  0.00    +0.000 C 
ATOM      9  C   UNL     1      60.203  39.180  69.880  0.00  0.00    +0.000 C 
ATOM     10  C   UNL     1      65.118  40.816  69.779  0.00  0.00    +0.000 C 
ATOM     11  C   UNL     1      63.065  38.550  72.101  0.00  0.00    +0.000 C 
ATOM     12  C   UNL     1      66.096  40.244  71.700  0.00  0.00    +0.000 C 
ATOM     13  C   UNL     1      65.362  39.317  72.498  0.00  0.00    +0.000 C 
ATOM     14  C   UNL     1      64.267  38.503  72.868  0.00  0.00    +0.000 C 
ATOM     15  C   UNL     1      65.320  41.254  71.097  0.00  0.00    +0.000 C 
ATOM     16  C   UNL     1      59.622  38.597  71.119  0.00  0.00    +0.000 C 
ATOM     17  C   UNL     1      66.306  39.940  69.505  0.00  0.00    +0.000 C 
ATOM     18  C   UNL     1      59.499  39.651  68.845  0.00  0.00    +0.000 C 
ATOM     19  C   UNL     1      64.271  37.809  74.191  0.00  0.00    +0.000 C 
ENDROOT
BRANCH   6  20
ATOM     20  O   UNL     1      62.296  39.647  67.683  0.00  0.00    +0.000 OA
BRANCH  20  22
ATOM     21  O   UNL     1      63.384  37.655  67.300  0.00  0.00    +0.000 OA
ATOM     22  C   UNL     1      62.484  38.448  67.031  0.00  0.00    +0.000 C 
BRANCH  22  23
ATOM     23  C   UNL     1      61.430  38.267  65.969  0.00  0.00    +0.000 C 
ATOM     24  C   UNL     1      60.255  37.315  66.119  0.00  0.00    +0.000 C 
ATOM     25  C   UNL     1      61.430  38.990  64.842  0.00  0.00    +0.000 C 
ENDBRANCH  22  23
ENDBRANCH  20  22
ENDBRANCH   6  20
TORSDOF 3
ENDMDL
MODEL 6
REMARK VINA RESULT:      -5.5     14.154     17.080
REMARK  Name = 6325056_Deoxyelephantopin.pdbqt.pdb
REMARK  3 active torsions:
REMARK  status: ('A' for Active; 'I' for Inactive)
REMARK    1  A    between atoms: C_6  and  O_20
REMARK    2  A    between atoms: O_20  and  C_22
REMARK    3  A    between atoms: C_22  and  C_23
REMARK                            x       y       z     vdW  Elec       q    Type
REMARK                         _______ _______ _______ _____ _____    ______ ____
ROOT
ATOM      1  O   UNL     1      68.010  40.008  52.526  0.00  0.00    +0.000 OA
ATOM      2  O   UNL     1      65.168  35.628  56.433  0.00  0.00    +0.000 OA
ATOM      3  O   UNL     1      67.851  41.589  50.867  0.00  0.00    +0.000 OA
ATOM      4  O   UNL     1      63.168  36.804  56.515  0.00  0.00    +0.000 OA
ATOM      5  C   UNL     1      65.721  39.521  52.829  0.00  0.00    +0.000 C 
ATOM      6  C   UNL     1      64.471  38.987  53.371  0.00  0.00    +0.000 C 
ATOM      7  C   UNL     1      67.084  39.238  53.241  0.00  0.00    +0.000 C 
ATOM      8  C   UNL     1      64.319  37.646  53.811  0.00  0.00    +0.000 C 
ATOM      9  C   UNL     1      65.868  40.521  51.793  0.00  0.00    +0.000 C 
ATOM     10  C   UNL     1      64.258  36.343  54.399  0.00  0.00    +0.000 C 
ATOM     11  C   UNL     1      67.567  38.277  54.160  0.00  0.00    +0.000 C 
ATOM     12  C   UNL     1      66.029  35.370  55.345  0.00  0.00    +0.000 C 
ATOM     13  C   UNL     1      67.221  36.153  55.339  0.00  0.00    +0.000 C 
ATOM     14  C   UNL     1      68.052  37.252  55.024  0.00  0.00    +0.000 C 
ATOM     15  C   UNL     1      65.282  35.416  54.151  0.00  0.00    +0.000 C 
ATOM     16  C   UNL     1      67.320  40.807  51.638  0.00  0.00    +0.000 C 
ATOM     17  C   UNL     1      64.072  36.282  55.888  0.00  0.00    +0.000 C 
ATOM     18  C   UNL     1      64.894  41.048  51.043  0.00  0.00    +0.000 C 
ATOM     19  C   UNL     1      69.505  37.209  55.373  0.00  0.00    +0.000 C 
ENDROOT
BRANCH   6  20
ATOM     20  O   UNL     1      63.280  39.721  53.237  0.00  0.00    +0.000 OA
BRANCH  20  22
ATOM     21  O   UNL     1      63.543  41.651  54.463  0.00  0.00    +0.000 OA
ATOM     22  C   UNL     1      62.990  40.568  54.284  0.00  0.00    +0.000 C 
BRANCH  22  23
ATOM     23  C   UNL     1      61.907  39.971  55.145  0.00  0.00    +0.000 C 
ATOM     24  C   UNL     1      60.875  38.987  54.618  0.00  0.00    +0.000 C 
ATOM     25  C   UNL     1      61.825  40.227  56.457  0.00  0.00    +0.000 C 
ENDBRANCH  22  23
ENDBRANCH  20  22
ENDBRANCH   6  20
TORSDOF 3
ENDMDL
MODEL 7
REMARK VINA RESULT:      -5.4     12.460     16.437
REMARK  Name = 6325056_Deoxyelephantopin.pdbqt.pdb
REMARK  3 active torsions:
REMARK  status: ('A' for Active; 'I' for Inactive)
REMARK    1  A    between atoms: C_6  and  O_20
REMARK    2  A    between atoms: O_20  and  C_22
REMARK    3  A    between atoms: C_22  and  C_23
REMARK                            x       y       z     vdW  Elec       q    Type
REMARK                         _______ _______ _______ _____ _____    ______ ____
ROOT
ATOM      1  O   UNL     1      66.193  39.718  51.491  0.00  0.00    +0.000 OA
ATOM      2  O   UNL     1      64.140  36.439  56.740  0.00  0.00    +0.000 OA
ATOM      3  O   UNL     1      65.758  41.151  49.749  0.00  0.00    +0.000 OA
ATOM      4  O   UNL     1      62.550  38.042  57.282  0.00  0.00    +0.000 OA
ATOM      5  C   UNL     1      64.107  39.791  52.592  0.00  0.00    +0.000 C 
ATOM      6  C   UNL     1      63.049  39.602  53.586  0.00  0.00    +0.000 C 
ATOM      7  C   UNL     1      65.450  39.241  52.578  0.00  0.00    +0.000 C 
ATOM      8  C   UNL     1      62.815  38.372  54.255  0.00  0.00    +0.000 C 
ATOM      9  C   UNL     1      64.064  40.643  51.422  0.00  0.00    +0.000 C 
ATOM     10  C   UNL     1      62.724  37.170  55.026  0.00  0.00    +0.000 C 
ATOM     11  C   UNL     1      66.037  38.275  53.429  0.00  0.00    +0.000 C 
ATOM     12  C   UNL     1      64.501  35.903  55.486  0.00  0.00    +0.000 C 
ATOM     13  C   UNL     1      65.739  36.390  54.971  0.00  0.00    +0.000 C 
ATOM     14  C   UNL     1      66.596  37.242  54.237  0.00  0.00    +0.000 C 
ATOM     15  C   UNL     1      63.406  36.018  54.606  0.00  0.00    +0.000 C 
ATOM     16  C   UNL     1      65.396  40.577  50.761  0.00  0.00    +0.000 C 
ATOM     17  C   UNL     1      63.064  37.277  56.485  0.00  0.00    +0.000 C 
ATOM     18  C   UNL     1      63.005  41.313  50.956  0.00  0.00    +0.000 C 
ATOM     19  C   UNL     1      68.044  36.898  54.097  0.00  0.00    +0.000 C 
ENDROOT
BRANCH   6  20
ATOM     20  O   UNL     1      62.045  40.575  53.733  0.00  0.00    +0.000 OA
BRANCH  20  22
ATOM     21  O   UNL     1      61.996  41.136  55.964  0.00  0.00    +0.000 OA
ATOM     22  C   UNL     1      62.212  41.438  54.793  0.00  0.00    +0.000 C 
BRANCH  22  23
ATOM     23  C   UNL     1      62.700  42.775  54.297  0.00  0.00    +0.000 C 
ATOM     24  C   UNL     1      64.174  43.122  54.159  0.00  0.00    +0.000 C 
ATOM     25  C   UNL     1      61.855  43.727  53.883  0.00  0.00    +0.000 C 
ENDBRANCH  22  23
ENDBRANCH  20  22
ENDBRANCH   6  20
TORSDOF 3
ENDMDL
MODEL 8
REMARK VINA RESULT:      -5.4      1.747      4.995
REMARK  Name = 6325056_Deoxyelephantopin.pdbqt.pdb
REMARK  3 active torsions:
REMARK  status: ('A' for Active; 'I' for Inactive)
REMARK    1  A    between atoms: C_6  and  O_20
REMARK    2  A    between atoms: O_20  and  C_22
REMARK    3  A    between atoms: C_22  and  C_23
REMARK                            x       y       z     vdW  Elec       q    Type
REMARK                         _______ _______ _______ _____ _____    ______ ____
ROOT
ATOM      1  O   UNL     1      66.059  53.187  60.269  0.00  0.00    +0.000 OA
ATOM      2  O   UNL     1      59.991  52.825  57.907  0.00  0.00    +0.000 OA
ATOM      3  O   UNL     1      67.855  54.449  60.947  0.00  0.00    +0.000 OA
ATOM      4  O   UNL     1      59.350  54.830  58.886  0.00  0.00    +0.000 OA
ATOM      5  C   UNL     1      64.504  54.910  59.839  0.00  0.00    +0.000 C 
ATOM      6  C   UNL     1      63.263  55.620  59.529  0.00  0.00    +0.000 C 
ATOM      7  C   UNL     1      64.758  53.480  59.842  0.00  0.00    +0.000 C 
ATOM      8  C   UNL     1      62.360  55.210  58.514  0.00  0.00    +0.000 C 
ATOM      9  C   UNL     1      65.754  55.488  60.287  0.00  0.00    +0.000 C 
ATOM     10  C   UNL     1      61.400  54.668  57.601  0.00  0.00    +0.000 C 
ATOM     11  C   UNL     1      63.929  52.417  59.413  0.00  0.00    +0.000 C 
ATOM     12  C   UNL     1      61.188  52.477  57.245  0.00  0.00    +0.000 C 
ATOM     13  C   UNL     1      62.067  51.653  58.010  0.00  0.00    +0.000 C 
ATOM     14  C   UNL     1      63.122  51.358  58.903  0.00  0.00    +0.000 C 
ATOM     15  C   UNL     1      61.776  53.644  56.718  0.00  0.00    +0.000 C 
ATOM     16  C   UNL     1      66.702  54.374  60.556  0.00  0.00    +0.000 C 
ATOM     17  C   UNL     1      60.110  54.178  58.192  0.00  0.00    +0.000 C 
ATOM     18  C   UNL     1      66.049  56.790  60.375  0.00  0.00    +0.000 C 
ATOM     19  C   UNL     1      63.556  49.941  59.098  0.00  0.00    +0.000 C 
ENDROOT
BRANCH   6  20
ATOM     20  O   UNL     1      63.038  56.901  60.062  0.00  0.00    +0.000 OA
BRANCH  20  22
ATOM     21  O   UNL     1      60.997  57.884  60.472  0.00  0.00    +0.000 OA
ATOM     22  C   UNL     1      61.855  57.051  60.754  0.00  0.00    +0.000 C 
BRANCH  22  23
ATOM     23  C   UNL     1      61.784  56.047  61.876  0.00  0.00    +0.000 C 
ATOM     24  C   UNL     1      62.869  55.901  62.930  0.00  0.00    +0.000 C 
ATOM     25  C   UNL     1      60.717  55.256  62.051  0.00  0.00    +0.000 C 
ENDBRANCH  22  23
ENDBRANCH  20  22
ENDBRANCH   6  20
TORSDOF 3
ENDMDL
MODEL 9
REMARK VINA RESULT:      -5.4     17.041     18.676
REMARK  Name = 6325056_Deoxyelephantopin.pdbqt.pdb
REMARK  3 active torsions:
REMARK  status: ('A' for Active; 'I' for Inactive)
REMARK    1  A    between atoms: C_6  and  O_20
REMARK    2  A    between atoms: O_20  and  C_22
REMARK    3  A    between atoms: C_22  and  C_23
REMARK                            x       y       z     vdW  Elec       q    Type
REMARK                         _______ _______ _______ _____ _____    ______ ____
ROOT
ATOM      1  O   UNL     1      60.262  36.166  65.921  0.00  0.00    +0.000 OA
ATOM      2  O   UNL     1      56.913  40.110  69.891  0.00  0.00    +0.000 OA
ATOM      3  O   UNL     1      60.365  34.271  64.628  0.00  0.00    +0.000 OA
ATOM      4  O   UNL     1      54.879  39.603  68.892  0.00  0.00    +0.000 OA
ATOM      5  C   UNL     1      57.989  36.092  66.552  0.00  0.00    +0.000 C 
ATOM      6  C   UNL     1      56.684  36.459  67.104  0.00  0.00    +0.000 C 
ATOM      7  C   UNL     1      59.251  36.803  66.652  0.00  0.00    +0.000 C 
ATOM      8  C   UNL     1      56.517  37.076  68.372  0.00  0.00    +0.000 C 
ATOM      9  C   UNL     1      58.294  34.954  65.710  0.00  0.00    +0.000 C 
ATOM     10  C   UNL     1      56.407  37.847  69.572  0.00  0.00    +0.000 C 
ATOM     11  C   UNL     1      59.584  37.944  67.418  0.00  0.00    +0.000 C 
ATOM     12  C   UNL     1      57.992  39.269  70.234  0.00  0.00    +0.000 C 
ATOM     13  C   UNL     1      59.117  39.367  69.362  0.00  0.00    +0.000 C 
ATOM     14  C   UNL     1      59.934  39.044  68.255  0.00  0.00    +0.000 C 
ATOM     15  C   UNL     1      57.508  37.960  70.434  0.00  0.00    +0.000 C 
ATOM     16  C   UNL     1      59.729  35.041  65.328  0.00  0.00    +0.000 C 
ATOM     17  C   UNL     1      55.920  39.260  69.423  0.00  0.00    +0.000 C 
ATOM     18  C   UNL     1      57.469  33.951  65.388  0.00  0.00    +0.000 C 
ATOM     19  C   UNL     1      61.284  39.672  68.120  0.00  0.00    +0.000 C 
ENDROOT
BRANCH   6  20
ATOM     20  O   UNL     1      55.509  35.975  66.504  0.00  0.00    +0.000 OA
BRANCH  20  22
ATOM     21  O   UNL     1      54.058  37.718  66.112  0.00  0.00    +0.000 OA
ATOM     22  C   UNL     1      54.848  36.874  65.696  0.00  0.00    +0.000 C 
BRANCH  22  23
ATOM     23  C   UNL     1      55.249  36.665  64.257  0.00  0.00    +0.000 C 
ATOM     24  C   UNL     1      56.382  37.430  63.592  0.00  0.00    +0.000 C 
ATOM     25  C   UNL     1      54.665  35.738  63.488  0.00  0.00    +0.000 C 
ENDBRANCH  22  23
ENDBRANCH  20  22
ENDBRANCH   6  20
TORSDOF 3
ENDMDL
