MODEL 1
REMARK VINA RESULT:      -6.2      0.000      0.000
REMARK  Name = 641785_Cardamonin.pdbqt.pdb
REMARK  6 active torsions:
REMARK  status: ('A' for Active; 'I' for Inactive)
REMARK    1  A    between atoms: C_1  and  C_14
REMARK    2  A    between atoms: C_2  and  O_7
REMARK    3  A    between atoms: C_3  and  O_9
REMARK    4  A    between atoms: C_6  and  O_11
REMARK    5  A    between atoms: C_14  and  C_15
REMARK    6  A    between atoms: C_16  and  C_17
REMARK                            x       y       z     vdW  Elec       q    Type
REMARK                         _______ _______ _______ _____ _____    ______ ____
ROOT
ATOM      1  C   UNL     1      62.482  39.296  54.825  0.00  0.00    +0.000 A 
ATOM      2  C   UNL     1      63.111  38.141  54.322  0.00  0.00    +0.000 A 
ATOM      3  C   UNL     1      62.006  39.288  56.152  0.00  0.00    +0.000 A 
ATOM      4  C   UNL     1      63.224  37.010  55.143  0.00  0.00    +0.000 A 
ATOM      5  C   UNL     1      62.118  38.150  56.951  0.00  0.00    +0.000 A 
ATOM      6  C   UNL     1      62.722  37.015  56.437  0.00  0.00    +0.000 A 
ENDROOT
BRANCH   2   7
ATOM      7  O   UNL     1      63.668  38.178  53.064  0.00  0.00    +0.000 OA
ATOM      8  C   UNL     1      65.067  38.210  53.012  0.00  0.00    +0.000 C 
ENDBRANCH   2   7
BRANCH   3   9
ATOM      9  O   UNL     1      61.408  40.368  56.750  0.00  0.00    +0.000 OA
ATOM     10  H   UNL     1      61.716  40.444  57.680  0.00  0.00    +0.000 HD
ENDBRANCH   3   9
BRANCH   6  11
ATOM     11  O   UNL     1      62.823  35.911  57.229  0.00  0.00    +0.000 OA
ATOM     12  H   UNL     1      63.729  35.859  57.582  0.00  0.00    +0.000 HD
ENDBRANCH   6  11
BRANCH   1  14
ATOM     13  O   UNL     1      61.347  40.637  53.256  0.00  0.00    +0.000 OA
ATOM     14  C   UNL     1      62.291  40.537  54.030  0.00  0.00    +0.000 C 
BRANCH  14  15
ATOM     15  C   UNL     1      63.254  41.609  54.103  0.00  0.00    +0.000 C 
ATOM     16  C   UNL     1      64.060  42.498  54.181  0.00  0.00    +0.000 C 
BRANCH  16  17
ATOM     17  C   UNL     1      65.013  43.554  54.268  0.00  0.00    +0.000 A 
ATOM     18  C   UNL     1      66.376  43.262  54.269  0.00  0.00    +0.000 A 
ATOM     19  C   UNL     1      64.581  44.876  54.353  0.00  0.00    +0.000 A 
ATOM     20  C   UNL     1      67.308  44.293  54.356  0.00  0.00    +0.000 A 
ATOM     21  C   UNL     1      65.514  45.907  54.440  0.00  0.00    +0.000 A 
ATOM     22  C   UNL     1      66.876  45.615  54.441  0.00  0.00    +0.000 A 
ENDBRANCH  16  17
ENDBRANCH  14  15
ENDBRANCH   1  14
TORSDOF 6
ENDMDL
MODEL 2
REMARK VINA RESULT:      -5.5     14.255     17.555
REMARK  Name = 641785_Cardamonin.pdbqt.pdb
REMARK  6 active torsions:
REMARK  status: ('A' for Active; 'I' for Inactive)
REMARK    1  A    between atoms: C_1  and  C_14
REMARK    2  A    between atoms: C_2  and  O_7
REMARK    3  A    between atoms: C_3  and  O_9
REMARK    4  A    between atoms: C_6  and  O_11
REMARK    5  A    between atoms: C_14  and  C_15
REMARK    6  A    between atoms: C_16  and  C_17
REMARK                            x       y       z     vdW  Elec       q    Type
REMARK                         _______ _______ _______ _____ _____    ______ ____
ROOT
ATOM      1  C   UNL     1      61.106  55.010  60.669  0.00  0.00    +0.000 A 
ATOM      2  C   UNL     1      62.487  55.125  60.918  0.00  0.00    +0.000 A 
ATOM      3  C   UNL     1      60.639  53.904  59.930  0.00  0.00    +0.000 A 
ATOM      4  C   UNL     1      63.359  54.153  60.405  0.00  0.00    +0.000 A 
ATOM      5  C   UNL     1      61.521  52.954  59.418  0.00  0.00    +0.000 A 
ATOM      6  C   UNL     1      62.879  53.089  59.654  0.00  0.00    +0.000 A 
ENDROOT
BRANCH   2   7
ATOM      7  O   UNL     1      62.938  56.144  61.725  0.00  0.00    +0.000 OA
ATOM      8  C   UNL     1      63.913  56.981  61.169  0.00  0.00    +0.000 C 
ENDBRANCH   2   7
BRANCH   3   9
ATOM      9  O   UNL     1      59.312  53.680  59.657  0.00  0.00    +0.000 OA
ATOM     10  H   UNL     1      58.760  54.041  60.385  0.00  0.00    +0.000 HD
ENDBRANCH   3   9
BRANCH   6  11
ATOM     11  O   UNL     1      63.729  52.153  59.147  0.00  0.00    +0.000 OA
ATOM     12  H   UNL     1      64.119  51.650  59.884  0.00  0.00    +0.000 HD
ENDBRANCH   6  11
BRANCH   1  14
ATOM     13  O   UNL     1      59.157  55.630  61.837  0.00  0.00    +0.000 OA
ATOM     14  C   UNL     1      60.103  55.995  61.148  0.00  0.00    +0.000 C 
BRANCH  14  15
ATOM     15  C   UNL     1      60.184  57.378  60.748  0.00  0.00    +0.000 C 
ATOM     16  C   UNL     1      60.271  58.530  60.415  0.00  0.00    +0.000 C 
BRANCH  16  17
ATOM     17  C   UNL     1      60.367  59.897  60.021  0.00  0.00    +0.000 A 
ATOM     18  C   UNL     1      61.489  60.342  59.323  0.00  0.00    +0.000 A 
ATOM     19  C   UNL     1      59.342  60.786  60.336  0.00  0.00    +0.000 A 
ATOM     20  C   UNL     1      61.584  61.677  58.940  0.00  0.00    +0.000 A 
ATOM     21  C   UNL     1      59.438  62.122  59.952  0.00  0.00    +0.000 A 
ATOM     22  C   UNL     1      60.559  62.566  59.254  0.00  0.00    +0.000 A 
ENDBRANCH  16  17
ENDBRANCH  14  15
ENDBRANCH   1  14
TORSDOF 6
ENDMDL
MODEL 3
REMARK VINA RESULT:      -5.4     12.834     16.263
REMARK  Name = 641785_Cardamonin.pdbqt.pdb
REMARK  6 active torsions:
REMARK  status: ('A' for Active; 'I' for Inactive)
REMARK    1  A    between atoms: C_1  and  C_14
REMARK    2  A    between atoms: C_2  and  O_7
REMARK    3  A    between atoms: C_3  and  O_9
REMARK    4  A    between atoms: C_6  and  O_11
REMARK    5  A    between atoms: C_14  and  C_15
REMARK    6  A    between atoms: C_16  and  C_17
REMARK                            x       y       z     vdW  Elec       q    Type
REMARK                         _______ _______ _______ _____ _____    ______ ____
ROOT
ATOM      1  C   UNL     1      52.199  35.209  58.765  0.00  0.00    +0.000 A 
ATOM      2  C   UNL     1      52.455  33.929  58.236  0.00  0.00    +0.000 A 
ATOM      3  C   UNL     1      52.174  36.313  57.890  0.00  0.00    +0.000 A 
ATOM      4  C   UNL     1      52.703  33.792  56.863  0.00  0.00    +0.000 A 
ATOM      5  C   UNL     1      52.433  36.160  56.528  0.00  0.00    +0.000 A 
ATOM      6  C   UNL     1      52.702  34.899  56.024  0.00  0.00    +0.000 A 
ENDROOT
BRANCH   2   7
ATOM      7  O   UNL     1      52.380  32.835  59.067  0.00  0.00    +0.000 OA
ATOM      8  C   UNL     1      51.216  32.063  58.963  0.00  0.00    +0.000 C 
ENDBRANCH   2   7
BRANCH   3   9
ATOM      9  O   UNL     1      51.904  37.596  58.294  0.00  0.00    +0.000 OA
ATOM     10  H   UNL     1      51.197  37.979  57.729  0.00  0.00    +0.000 HD
ENDBRANCH   3   9
BRANCH   6  11
ATOM     11  O   UNL     1      52.954  34.765  54.692  0.00  0.00    +0.000 OA
ATOM     12  H   UNL     1      52.828  33.832  54.441  0.00  0.00    +0.000 HD
ENDBRANCH   6  11
BRANCH   1  14
ATOM     13  O   UNL     1      52.884  35.522  60.997  0.00  0.00    +0.000 OA
ATOM     14  C   UNL     1      51.948  35.464  60.207  0.00  0.00    +0.000 C 
BRANCH  14  15
ATOM     15  C   UNL     1      50.600  35.572  60.708  0.00  0.00    +0.000 C 
ATOM     16  C   UNL     1      49.470  35.652  61.111  0.00  0.00    +0.000 C 
BRANCH  16  17
ATOM     17  C   UNL     1      48.133  35.753  61.594  0.00  0.00    +0.000 A 
ATOM     18  C   UNL     1      47.363  34.601  61.752  0.00  0.00    +0.000 A 
ATOM     19  C   UNL     1      47.596  37.000  61.905  0.00  0.00    +0.000 A 
ATOM     20  C   UNL     1      46.056  34.699  62.222  0.00  0.00    +0.000 A 
ATOM     21  C   UNL     1      46.288  37.097  62.375  0.00  0.00    +0.000 A 
ATOM     22  C   UNL     1      45.519  35.946  62.532  0.00  0.00    +0.000 A 
ENDBRANCH  16  17
ENDBRANCH  14  15
ENDBRANCH   1  14
TORSDOF 6
ENDMDL
MODEL 4
REMARK VINA RESULT:      -5.4     12.731     16.184
REMARK  Name = 641785_Cardamonin.pdbqt.pdb
REMARK  6 active torsions:
REMARK  status: ('A' for Active; 'I' for Inactive)
REMARK    1  A    between atoms: C_1  and  C_14
REMARK    2  A    between atoms: C_2  and  O_7
REMARK    3  A    between atoms: C_3  and  O_9
REMARK    4  A    between atoms: C_6  and  O_11
REMARK    5  A    between atoms: C_14  and  C_15
REMARK    6  A    between atoms: C_16  and  C_17
REMARK                            x       y       z     vdW  Elec       q    Type
REMARK                         _______ _______ _______ _____ _____    ______ ____
ROOT
ATOM      1  C   UNL     1      52.586  34.853  59.354  0.00  0.00    +0.000 A 
ATOM      2  C   UNL     1      52.636  35.728  58.252  0.00  0.00    +0.000 A 
ATOM      3  C   UNL     1      52.995  33.516  59.179  0.00  0.00    +0.000 A 
ATOM      4  C   UNL     1      53.064  35.240  57.008  0.00  0.00    +0.000 A 
ATOM      5  C   UNL     1      53.408  33.045  57.933  0.00  0.00    +0.000 A 
ATOM      6  C   UNL     1      53.434  33.911  56.853  0.00  0.00    +0.000 A 
ENDROOT
BRANCH   2   7
ATOM      7  O   UNL     1      52.337  37.058  58.440  0.00  0.00    +0.000 OA
ATOM      8  C   UNL     1      51.167  37.517  57.824  0.00  0.00    +0.000 C 
ENDBRANCH   2   7
BRANCH   3   9
ATOM      9  O   UNL     1      53.017  32.590  60.191  0.00  0.00    +0.000 OA
ATOM     10  H   UNL     1      53.892  32.144  60.214  0.00  0.00    +0.000 HD
ENDBRANCH   3   9
BRANCH   6  11
ATOM     11  O   UNL     1      53.839  33.437  55.642  0.00  0.00    +0.000 OA
ATOM     12  H   UNL     1      53.115  33.553  55.000  0.00  0.00    +0.000 HD
ENDBRANCH   6  11
BRANCH   1  14
ATOM     13  O   UNL     1      52.939  35.445  61.606  0.00  0.00    +0.000 OA
ATOM     14  C   UNL     1      52.127  35.264  60.705  0.00  0.00    +0.000 C 
BRANCH  14  15
ATOM     15  C   UNL     1      50.720  35.382  60.997  0.00  0.00    +0.000 C 
ATOM     16  C   UNL     1      49.543  35.465  61.231  0.00  0.00    +0.000 C 
BRANCH  16  17
ATOM     17  C   UNL     1      48.149  35.569  61.510  0.00  0.00    +0.000 A 
ATOM     18  C   UNL     1      47.378  34.415  61.640  0.00  0.00    +0.000 A 
ATOM     19  C   UNL     1      47.559  36.823  61.649  0.00  0.00    +0.000 A 
ATOM     20  C   UNL     1      46.016  34.516  61.911  0.00  0.00    +0.000 A 
ATOM     21  C   UNL     1      46.196  36.924  61.920  0.00  0.00    +0.000 A 
ATOM     22  C   UNL     1      45.426  35.770  62.050  0.00  0.00    +0.000 A 
ENDBRANCH  16  17
ENDBRANCH  14  15
ENDBRANCH   1  14
TORSDOF 6
ENDMDL
MODEL 5
REMARK VINA RESULT:      -5.3     15.362     18.615
REMARK  Name = 641785_Cardamonin.pdbqt.pdb
REMARK  6 active torsions:
REMARK  status: ('A' for Active; 'I' for Inactive)
REMARK    1  A    between atoms: C_1  and  C_14
REMARK    2  A    between atoms: C_2  and  O_7
REMARK    3  A    between atoms: C_3  and  O_9
REMARK    4  A    between atoms: C_6  and  O_11
REMARK    5  A    between atoms: C_14  and  C_15
REMARK    6  A    between atoms: C_16  and  C_17
REMARK                            x       y       z     vdW  Elec       q    Type
REMARK                         _______ _______ _______ _____ _____    ______ ____
ROOT
ATOM      1  C   UNL     1      70.214  53.177  64.242  0.00  0.00    +0.000 A 
ATOM      2  C   UNL     1      70.564  53.399  62.897  0.00  0.00    +0.000 A 
ATOM      3  C   UNL     1      69.343  52.112  64.551  0.00  0.00    +0.000 A 
ATOM      4  C   UNL     1      70.018  52.575  61.902  0.00  0.00    +0.000 A 
ATOM      5  C   UNL     1      68.802  51.309  63.549  0.00  0.00    +0.000 A 
ATOM      6  C   UNL     1      69.139  51.550  62.227  0.00  0.00    +0.000 A 
ENDROOT
BRANCH   2   7
ATOM      7  O   UNL     1      71.492  54.370  62.599  0.00  0.00    +0.000 OA
ATOM      8  C   UNL     1      71.347  54.998  61.356  0.00  0.00    +0.000 C 
ENDBRANCH   2   7
BRANCH   3   9
ATOM      9  O   UNL     1      68.964  51.789  65.830  0.00  0.00    +0.000 OA
ATOM     10  H   UNL     1      68.309  52.444  66.156  0.00  0.00    +0.000 HD
ENDBRANCH   3   9
BRANCH   6  11
ATOM     11  O   UNL     1      68.602  50.758  61.258  0.00  0.00    +0.000 OA
ATOM     12  H   UNL     1      67.681  51.033  61.101  0.00  0.00    +0.000 HD
ENDBRANCH   6  11
BRANCH   1  14
ATOM     13  O   UNL     1      71.399  53.500  66.252  0.00  0.00    +0.000 OA
ATOM     14  C   UNL     1      70.718  54.006  65.367  0.00  0.00    +0.000 C 
BRANCH  14  15
ATOM     15  C   UNL     1      70.352  55.397  65.474  0.00  0.00    +0.000 C 
ATOM     16  C   UNL     1      70.063  56.562  65.556  0.00  0.00    +0.000 C 
BRANCH  16  17
ATOM     17  C   UNL     1      69.715  57.941  65.658  0.00  0.00    +0.000 A 
ATOM     18  C   UNL     1      69.953  58.631  66.845  0.00  0.00    +0.000 A 
ATOM     19  C   UNL     1      69.138  58.594  64.572  0.00  0.00    +0.000 A 
ATOM     20  C   UNL     1      69.612  59.978  66.945  0.00  0.00    +0.000 A 
ATOM     21  C   UNL     1      68.797  59.942  64.673  0.00  0.00    +0.000 A 
ATOM     22  C   UNL     1      69.034  60.632  65.860  0.00  0.00    +0.000 A 
ENDBRANCH  16  17
ENDBRANCH  14  15
ENDBRANCH   1  14
TORSDOF 6
ENDMDL
MODEL 6
REMARK VINA RESULT:      -5.3     33.660     35.467
REMARK  Name = 641785_Cardamonin.pdbqt.pdb
REMARK  6 active torsions:
REMARK  status: ('A' for Active; 'I' for Inactive)
REMARK    1  A    between atoms: C_1  and  C_14
REMARK    2  A    between atoms: C_2  and  O_7
REMARK    3  A    between atoms: C_3  and  O_9
REMARK    4  A    between atoms: C_6  and  O_11
REMARK    5  A    between atoms: C_14  and  C_15
REMARK    6  A    between atoms: C_16  and  C_17
REMARK                            x       y       z     vdW  Elec       q    Type
REMARK                         _______ _______ _______ _____ _____    ______ ____
ROOT
ATOM      1  C   UNL     1      54.732  59.012  81.887  0.00  0.00    +0.000 A 
ATOM      2  C   UNL     1      53.349  58.773  81.779  0.00  0.00    +0.000 A 
ATOM      3  C   UNL     1      55.519  58.119  82.643  0.00  0.00    +0.000 A 
ATOM      4  C   UNL     1      52.789  57.672  82.444  0.00  0.00    +0.000 A 
ATOM      5  C   UNL     1      54.944  57.035  83.307  0.00  0.00    +0.000 A 
ATOM      6  C   UNL     1      53.579  56.822  83.208  0.00  0.00    +0.000 A 
ENDROOT
BRANCH   2   7
ATOM      7  O   UNL     1      52.593  59.580  80.960  0.00  0.00    +0.000 OA
ATOM      8  C   UNL     1      52.230  59.032  79.724  0.00  0.00    +0.000 C 
ENDBRANCH   2   7
BRANCH   3   9
ATOM      9  O   UNL     1      56.878  58.240  82.788  0.00  0.00    +0.000 OA
ATOM     10  H   UNL     1      57.078  58.902  83.486  0.00  0.00    +0.000 HD
ENDBRANCH   3   9
BRANCH   6  11
ATOM     11  O   UNL     1      53.032  55.761  83.862  0.00  0.00    +0.000 OA
ATOM     12  H   UNL     1      53.733  55.300  84.356  0.00  0.00    +0.000 HD
ENDBRANCH   6  11
BRANCH   1  14
ATOM     13  O   UNL     1      56.032  60.003  80.192  0.00  0.00    +0.000 OA
ATOM     14  C   UNL     1      55.418  60.160  81.242  0.00  0.00    +0.000 C 
BRANCH  14  15
ATOM     15  C   UNL     1      55.434  61.455  81.876  0.00  0.00    +0.000 C 
ATOM     16  C   UNL     1      55.431  62.532  82.411  0.00  0.00    +0.000 C 
BRANCH  16  17
ATOM     17  C   UNL     1      55.432  63.810  83.043  0.00  0.00    +0.000 A 
ATOM     18  C   UNL     1      56.193  64.016  84.193  0.00  0.00    +0.000 A 
ATOM     19  C   UNL     1      54.673  64.850  82.511  0.00  0.00    +0.000 A 
ATOM     20  C   UNL     1      56.193  65.264  84.811  0.00  0.00    +0.000 A 
ATOM     21  C   UNL     1      54.675  66.098  83.130  0.00  0.00    +0.000 A 
ATOM     22  C   UNL     1      55.434  66.304  84.279  0.00  0.00    +0.000 A 
ENDBRANCH  16  17
ENDBRANCH  14  15
ENDBRANCH   1  14
TORSDOF 6
ENDMDL
MODEL 7
REMARK VINA RESULT:      -5.3     12.738     14.336
REMARK  Name = 641785_Cardamonin.pdbqt.pdb
REMARK  6 active torsions:
REMARK  status: ('A' for Active; 'I' for Inactive)
REMARK    1  A    between atoms: C_1  and  C_14
REMARK    2  A    between atoms: C_2  and  O_7
REMARK    3  A    between atoms: C_3  and  O_9
REMARK    4  A    between atoms: C_6  and  O_11
REMARK    5  A    between atoms: C_14  and  C_15
REMARK    6  A    between atoms: C_16  and  C_17
REMARK                            x       y       z     vdW  Elec       q    Type
REMARK                         _______ _______ _______ _____ _____    ______ ____
ROOT
ATOM      1  C   UNL     1      52.328  35.060  59.465  0.00  0.00    +0.000 A 
ATOM      2  C   UNL     1      51.370  36.029  59.820  0.00  0.00    +0.000 A 
ATOM      3  C   UNL     1      52.745  34.978  58.120  0.00  0.00    +0.000 A 
ATOM      4  C   UNL     1      50.839  36.865  58.827  0.00  0.00    +0.000 A 
ATOM      5  C   UNL     1      52.199  35.810  57.144  0.00  0.00    +0.000 A 
ATOM      6  C   UNL     1      51.243  36.746  57.503  0.00  0.00    +0.000 A 
ENDROOT
BRANCH   2   7
ATOM      7  O   UNL     1      51.036  36.183  61.146  0.00  0.00    +0.000 OA
ATOM      8  C   UNL     1      49.762  35.732  61.515  0.00  0.00    +0.000 C 
ENDBRANCH   2   7
BRANCH   3   9
ATOM      9  O   UNL     1      53.694  34.094  57.673  0.00  0.00    +0.000 OA
ATOM     10  H   UNL     1      53.255  33.294  57.308  0.00  0.00    +0.000 HD
ENDBRANCH   3   9
BRANCH   6  11
ATOM     11  O   UNL     1      50.718  37.551  56.539  0.00  0.00    +0.000 OA
ATOM     12  H   UNL     1      50.035  37.056  56.053  0.00  0.00    +0.000 HD
ENDBRANCH   6  11
BRANCH   1  14
ATOM     13  O   UNL     1      52.749  32.906  60.320  0.00  0.00    +0.000 OA
ATOM     14  C   UNL     1      52.934  34.113  60.435  0.00  0.00    +0.000 C 
BRANCH  14  15
ATOM     15  C   UNL     1      53.684  34.601  61.566  0.00  0.00    +0.000 C 
ATOM     16  C   UNL     1      54.301  35.025  62.506  0.00  0.00    +0.000 C 
BRANCH  16  17
ATOM     17  C   UNL     1      55.038  35.522  63.622  0.00  0.00    +0.000 A 
ATOM     18  C   UNL     1      56.078  36.428  63.419  0.00  0.00    +0.000 A 
ATOM     19  C   UNL     1      54.719  35.101  64.910  0.00  0.00    +0.000 A 
ATOM     20  C   UNL     1      56.799  36.913  64.507  0.00  0.00    +0.000 A 
ATOM     21  C   UNL     1      55.440  35.587  65.999  0.00  0.00    +0.000 A 
ATOM     22  C   UNL     1      56.480  36.492  65.796  0.00  0.00    +0.000 A 
ENDBRANCH  16  17
ENDBRANCH  14  15
ENDBRANCH   1  14
TORSDOF 6
ENDMDL
MODEL 8
REMARK VINA RESULT:      -5.2     13.211     14.915
REMARK  Name = 641785_Cardamonin.pdbqt.pdb
REMARK  6 active torsions:
REMARK  status: ('A' for Active; 'I' for Inactive)
REMARK    1  A    between atoms: C_1  and  C_14
REMARK    2  A    between atoms: C_2  and  O_7
REMARK    3  A    between atoms: C_3  and  O_9
REMARK    4  A    between atoms: C_6  and  O_11
REMARK    5  A    between atoms: C_14  and  C_15
REMARK    6  A    between atoms: C_16  and  C_17
REMARK                            x       y       z     vdW  Elec       q    Type
REMARK                         _______ _______ _______ _____ _____    ______ ____
ROOT
ATOM      1  C   UNL     1      50.988  35.371  58.989  0.00  0.00    +0.000 A 
ATOM      2  C   UNL     1      50.922  34.071  58.454  0.00  0.00    +0.000 A 
ATOM      3  C   UNL     1      51.563  36.398  58.213  0.00  0.00    +0.000 A 
ATOM      4  C   UNL     1      51.451  33.827  57.178  0.00  0.00    +0.000 A 
ATOM      5  C   UNL     1      52.093  36.136  56.950  0.00  0.00    +0.000 A 
ATOM      6  C   UNL     1      52.040  34.849  56.443  0.00  0.00    +0.000 A 
ENDROOT
BRANCH   2   7
ATOM      7  O   UNL     1      50.271  33.088  59.163  0.00  0.00    +0.000 OA
ATOM      8  C   UNL     1      49.394  32.280  58.430  0.00  0.00    +0.000 C 
ENDBRANCH   2   7
BRANCH   3   9
ATOM      9  O   UNL     1      51.648  37.704  58.625  0.00  0.00    +0.000 OA
ATOM     10  H   UNL     1      50.792  37.983  59.018  0.00  0.00    +0.000 HD
ENDBRANCH   3   9
BRANCH   6  11
ATOM     11  O   UNL     1      52.563  34.607  55.209  0.00  0.00    +0.000 OA
ATOM     12  H   UNL     1      53.530  34.524  55.288  0.00  0.00    +0.000 HD
ENDBRANCH   6  11
BRANCH   1  14
ATOM     13  O   UNL     1      49.289  35.981  60.503  0.00  0.00    +0.000 OA
ATOM     14  C   UNL     1      50.478  35.729  60.338  0.00  0.00    +0.000 C 
BRANCH  14  15
ATOM     15  C   UNL     1      51.382  35.856  61.454  0.00  0.00    +0.000 C 
ATOM     16  C   UNL     1      52.149  35.971  62.373  0.00  0.00    +0.000 C 
BRANCH  16  17
ATOM     17  C   UNL     1      53.054  36.102  63.467  0.00  0.00    +0.000 A 
ATOM     18  C   UNL     1      52.664  36.796  64.611  0.00  0.00    +0.000 A 
ATOM     19  C   UNL     1      54.325  35.539  63.389  0.00  0.00    +0.000 A 
ATOM     20  C   UNL     1      53.549  36.927  65.679  0.00  0.00    +0.000 A 
ATOM     21  C   UNL     1      55.209  35.670  64.458  0.00  0.00    +0.000 A 
ATOM     22  C   UNL     1      54.820  36.364  65.602  0.00  0.00    +0.000 A 
ENDBRANCH  16  17
ENDBRANCH  14  15
ENDBRANCH   1  14
TORSDOF 6
ENDMDL
MODEL 9
REMARK VINA RESULT:      -5.2     12.872     14.945
REMARK  Name = 641785_Cardamonin.pdbqt.pdb
REMARK  6 active torsions:
REMARK  status: ('A' for Active; 'I' for Inactive)
REMARK    1  A    between atoms: C_1  and  C_14
REMARK    2  A    between atoms: C_2  and  O_7
REMARK    3  A    between atoms: C_3  and  O_9
REMARK    4  A    between atoms: C_6  and  O_11
REMARK    5  A    between atoms: C_14  and  C_15
REMARK    6  A    between atoms: C_16  and  C_17
REMARK                            x       y       z     vdW  Elec       q    Type
REMARK                         _______ _______ _______ _____ _____    ______ ____
ROOT
ATOM      1  C   UNL     1      60.724  39.702  68.216  0.00  0.00    +0.000 A 
ATOM      2  C   UNL     1      60.641  38.818  67.123  0.00  0.00    +0.000 A 
ATOM      3  C   UNL     1      59.820  39.546  69.287  0.00  0.00    +0.000 A 
ATOM      4  C   UNL     1      59.650  37.826  67.118  0.00  0.00    +0.000 A 
ATOM      5  C   UNL     1      58.834  38.561  69.260  0.00  0.00    +0.000 A 
ATOM      6  C   UNL     1      58.751  37.710  68.170  0.00  0.00    +0.000 A 
ENDROOT
BRANCH   2   7
ATOM      7  O   UNL     1      61.584  38.900  66.125  0.00  0.00    +0.000 OA
ATOM      8  C   UNL     1      62.460  37.813  66.016  0.00  0.00    +0.000 C 
ENDBRANCH   2   7
BRANCH   3   9
ATOM      9  O   UNL     1      59.834  40.331  70.412  0.00  0.00    +0.000 OA
ATOM     10  H   UNL     1      59.040  40.141  70.958  0.00  0.00    +0.000 HD
ENDBRANCH   3   9
BRANCH   6  11
ATOM     11  O   UNL     1      57.782  36.753  68.157  0.00  0.00    +0.000 OA
ATOM     12  H   UNL     1      57.060  37.029  68.749  0.00  0.00    +0.000 HD
ENDBRANCH   6  11
BRANCH   1  14
ATOM     13  O   UNL     1      61.605  41.802  67.612  0.00  0.00    +0.000 OA
ATOM     14  C   UNL     1      61.722  40.799  68.308  0.00  0.00    +0.000 C 
BRANCH  14  15
ATOM     15  C   UNL     1      62.879  40.669  69.159  0.00  0.00    +0.000 C 
ATOM     16  C   UNL     1      63.842  40.579  69.873  0.00  0.00    +0.000 C 
BRANCH  16  17
ATOM     17  C   UNL     1      64.987  40.466  70.716  0.00  0.00    +0.000 A 
ATOM     18  C   UNL     1      65.993  39.554  70.401  0.00  0.00    +0.000 A 
ATOM     19  C   UNL     1      65.096  41.263  71.852  0.00  0.00    +0.000 A 
ATOM     20  C   UNL     1      67.111  39.442  71.225  0.00  0.00    +0.000 A 
ATOM     21  C   UNL     1      66.214  41.150  72.676  0.00  0.00    +0.000 A 
ATOM     22  C   UNL     1      67.219  40.239  72.362  0.00  0.00    +0.000 A 
ENDBRANCH  16  17
ENDBRANCH  14  15
ENDBRANCH   1  14
TORSDOF 6
ENDMDL
