MODEL 1
REMARK VINA RESULT:      -5.1      0.000      0.000
REMARK  Name = 6440856_Goniothalamin.pdbqt.pdb
REMARK  2 active torsions:
REMARK  status: ('A' for Active; 'I' for Inactive)
REMARK    1  A    between atoms: C_1  and  C_5
REMARK    2  A    between atoms: C_2  and  C_10
REMARK                            x       y       z     vdW  Elec       q    Type
REMARK                         _______ _______ _______ _____ _____    ______ ____
ROOT
ATOM      1  C   UNL     1      62.559  54.129  60.104  0.00  0.00    +0.000 C 
ATOM      2  C   UNL     1      63.247  53.188  59.817  0.00  0.00    +0.000 C 
ENDROOT
BRANCH   1   5
ATOM      3  O   UNL     1      62.036  56.510  59.821  0.00  0.00    +0.000 OA
ATOM      4  O   UNL     1      61.369  58.728  59.708  0.00  0.00    +0.000 OA
ATOM      5  C   UNL     1      61.753  55.241  60.441  0.00  0.00    +0.000 A 
ATOM      6  C   UNL     1      60.662  55.238  61.351  0.00  0.00    +0.000 A 
ATOM      7  C   UNL     1      59.755  56.374  61.764  0.00  0.00    +0.000 A 
ATOM      8  C   UNL     1      60.192  57.288  61.125  0.00  0.00    +0.000 A 
ATOM      9  C   UNL     1      61.231  57.603  60.163  0.00  0.00    +0.000 A 
ENDBRANCH   1   5
BRANCH   2  10
ATOM     10  C   UNL     1      64.063  52.069  59.477  0.00  0.00    +0.000 A 
ATOM     11  C   UNL     1      65.441  52.227  59.346  0.00  0.00    +0.000 A 
ATOM     12  C   UNL     1      63.481  50.819  59.277  0.00  0.00    +0.000 A 
ATOM     13  C   UNL     1      66.238  51.134  59.013  0.00  0.00    +0.000 A 
ATOM     14  C   UNL     1      64.279  49.726  58.944  0.00  0.00    +0.000 A 
ATOM     15  C   UNL     1      65.656  49.884  58.813  0.00  0.00    +0.000 A 
ENDBRANCH   2  10
TORSDOF 2
ENDMDL
MODEL 2
REMARK VINA RESULT:      -5.1     13.804     16.963
REMARK  Name = 6440856_Goniothalamin.pdbqt.pdb
REMARK  2 active torsions:
REMARK  status: ('A' for Active; 'I' for Inactive)
REMARK    1  A    between atoms: C_1  and  C_5
REMARK    2  A    between atoms: C_2  and  C_10
REMARK                            x       y       z     vdW  Elec       q    Type
REMARK                         _______ _______ _______ _____ _____    ______ ____
ROOT
ATOM      1  C   UNL     1      70.057  39.801  62.217  0.00  0.00    +0.000 C 
ATOM      2  C   UNL     1      70.428  40.838  61.739  0.00  0.00    +0.000 C 
ENDROOT
BRANCH   1   5
ATOM      3  O   UNL     1      68.957  38.603  64.056  0.00  0.00    +0.000 OA
ATOM      4  O   UNL     1      67.959  37.275  65.673  0.00  0.00    +0.000 OA
ATOM      5  C   UNL     1      69.621  38.578  62.778  0.00  0.00    +0.000 A 
ATOM      6  C   UNL     1      69.773  37.290  62.196  0.00  0.00    +0.000 A 
ATOM      7  C   UNL     1      69.338  35.943  62.724  0.00  0.00    +0.000 A 
ATOM      8  C   UNL     1      68.829  36.236  63.768  0.00  0.00    +0.000 A 
ATOM      9  C   UNL     1      68.531  37.386  64.599  0.00  0.00    +0.000 A 
ENDBRANCH   1   5
BRANCH   2  10
ATOM     10  C   UNL     1      70.868  42.069  61.170  0.00  0.00    +0.000 A 
ATOM     11  C   UNL     1      70.232  43.260  61.511  0.00  0.00    +0.000 A 
ATOM     12  C   UNL     1      71.936  42.079  60.275  0.00  0.00    +0.000 A 
ATOM     13  C   UNL     1      70.662  44.463  60.954  0.00  0.00    +0.000 A 
ATOM     14  C   UNL     1      72.366  43.282  59.719  0.00  0.00    +0.000 A 
ATOM     15  C   UNL     1      71.729  44.473  60.060  0.00  0.00    +0.000 A 
ENDBRANCH   2  10
TORSDOF 2
ENDMDL
MODEL 3
REMARK VINA RESULT:      -5.0     20.084     20.974
REMARK  Name = 6440856_Goniothalamin.pdbqt.pdb
REMARK  2 active torsions:
REMARK  status: ('A' for Active; 'I' for Inactive)
REMARK    1  A    between atoms: C_1  and  C_5
REMARK    2  A    between atoms: C_2  and  C_10
REMARK                            x       y       z     vdW  Elec       q    Type
REMARK                         _______ _______ _______ _____ _____    ______ ____
ROOT
ATOM      1  C   UNL     1      49.693  42.473  71.703  0.00  0.00    +0.000 C 
ATOM      2  C   UNL     1      50.796  42.005  71.625  0.00  0.00    +0.000 C 
ENDROOT
BRANCH   1   5
ATOM      3  O   UNL     1      47.733  43.428  70.576  0.00  0.00    +0.000 OA
ATOM      4  O   UNL     1      45.785  44.352  69.723  0.00  0.00    +0.000 OA
ATOM      5  C   UNL     1      48.394  43.024  71.791  0.00  0.00    +0.000 A 
ATOM      6  C   UNL     1      47.651  43.228  72.985  0.00  0.00    +0.000 A 
ATOM      7  C   UNL     1      46.267  43.807  73.165  0.00  0.00    +0.000 A 
ATOM      8  C   UNL     1      45.950  44.055  72.036  0.00  0.00    +0.000 A 
ATOM      9  C   UNL     1      46.448  43.973  70.677  0.00  0.00    +0.000 A 
ENDBRANCH   1   5
BRANCH   2  10
ATOM     10  C   UNL     1      52.106  41.449  71.532  0.00  0.00    +0.000 A 
ATOM     11  C   UNL     1      52.970  41.517  72.623  0.00  0.00    +0.000 A 
ATOM     12  C   UNL     1      52.521  40.839  70.350  0.00  0.00    +0.000 A 
ATOM     13  C   UNL     1      54.250  40.975  72.531  0.00  0.00    +0.000 A 
ATOM     14  C   UNL     1      53.801  40.296  70.259  0.00  0.00    +0.000 A 
ATOM     15  C   UNL     1      54.664  40.364  71.350  0.00  0.00    +0.000 A 
ENDBRANCH   2  10
TORSDOF 2
ENDMDL
MODEL 4
REMARK VINA RESULT:      -5.0     11.718     15.275
REMARK  Name = 6440856_Goniothalamin.pdbqt.pdb
REMARK  2 active torsions:
REMARK  status: ('A' for Active; 'I' for Inactive)
REMARK    1  A    between atoms: C_1  and  C_5
REMARK    2  A    between atoms: C_2  and  C_10
REMARK                            x       y       z     vdW  Elec       q    Type
REMARK                         _______ _______ _______ _____ _____    ______ ____
ROOT
ATOM      1  C   UNL     1      62.670  40.869  54.761  0.00  0.00    +0.000 C 
ATOM      2  C   UNL     1      62.749  42.048  54.546  0.00  0.00    +0.000 C 
ENDROOT
BRANCH   1   5
ATOM      3  O   UNL     1      61.823  39.044  56.166  0.00  0.00    +0.000 OA
ATOM      4  O   UNL     1      61.131  37.173  57.348  0.00  0.00    +0.000 OA
ATOM      5  C   UNL     1      62.575  39.482  55.018  0.00  0.00    +0.000 A 
ATOM      6  C   UNL     1      63.158  38.445  54.241  0.00  0.00    +0.000 A 
ATOM      7  C   UNL     1      63.104  36.949  54.445  0.00  0.00    +0.000 A 
ATOM      8  C   UNL     1      62.440  36.855  55.437  0.00  0.00    +0.000 A 
ATOM      9  C   UNL     1      61.737  37.668  56.410  0.00  0.00    +0.000 A 
ENDBRANCH   1   5
BRANCH   2  10
ATOM     10  C   UNL     1      62.843  43.448  54.291  0.00  0.00    +0.000 A 
ATOM     11  C   UNL     1      64.092  44.049  54.158  0.00  0.00    +0.000 A 
ATOM     12  C   UNL     1      61.684  44.212  54.173  0.00  0.00    +0.000 A 
ATOM     13  C   UNL     1      64.183  45.416  53.909  0.00  0.00    +0.000 A 
ATOM     14  C   UNL     1      61.775  45.580  53.924  0.00  0.00    +0.000 A 
ATOM     15  C   UNL     1      63.025  46.181  53.791  0.00  0.00    +0.000 A 
ENDBRANCH   2  10
TORSDOF 2
ENDMDL
MODEL 5
REMARK VINA RESULT:      -5.0      1.318      2.105
REMARK  Name = 6440856_Goniothalamin.pdbqt.pdb
REMARK  2 active torsions:
REMARK  status: ('A' for Active; 'I' for Inactive)
REMARK    1  A    between atoms: C_1  and  C_5
REMARK    2  A    between atoms: C_2  and  C_10
REMARK                            x       y       z     vdW  Elec       q    Type
REMARK                         _______ _______ _______ _____ _____    ______ ____
ROOT
ATOM      1  C   UNL     1      62.556  53.997  59.605  0.00  0.00    +0.000 C 
ATOM      2  C   UNL     1      63.321  53.079  59.487  0.00  0.00    +0.000 C 
ENDROOT
BRANCH   1   5
ATOM      3  O   UNL     1      60.953  55.235  60.990  0.00  0.00    +0.000 OA
ATOM      4  O   UNL     1      59.412  56.550  62.118  0.00  0.00    +0.000 OA
ATOM      5  C   UNL     1      61.659  55.081  59.744  0.00  0.00    +0.000 A 
ATOM      6  C   UNL     1      61.372  56.063  58.757  0.00  0.00    +0.000 A 
ATOM      7  C   UNL     1      60.434  57.245  58.825  0.00  0.00    +0.000 A 
ATOM      8  C   UNL     1      59.986  57.146  59.932  0.00  0.00    +0.000 A 
ATOM      9  C   UNL     1      60.068  56.312  61.116  0.00  0.00    +0.000 A 
ENDBRANCH   1   5
BRANCH   2  10
ATOM     10  C   UNL     1      64.229  51.989  59.346  0.00  0.00    +0.000 A 
ATOM     11  C   UNL     1      63.745  50.684  59.286  0.00  0.00    +0.000 A 
ATOM     12  C   UNL     1      65.599  52.230  59.268  0.00  0.00    +0.000 A 
ATOM     13  C   UNL     1      64.633  49.619  59.150  0.00  0.00    +0.000 A 
ATOM     14  C   UNL     1      66.486  51.165  59.131  0.00  0.00    +0.000 A 
ATOM     15  C   UNL     1      66.003  49.860  59.071  0.00  0.00    +0.000 A 
ENDBRANCH   2  10
TORSDOF 2
ENDMDL
MODEL 6
REMARK VINA RESULT:      -4.7     36.412     38.898
REMARK  Name = 6440856_Goniothalamin.pdbqt.pdb
REMARK  2 active torsions:
REMARK  status: ('A' for Active; 'I' for Inactive)
REMARK    1  A    between atoms: C_1  and  C_5
REMARK    2  A    between atoms: C_2  and  C_10
REMARK                            x       y       z     vdW  Elec       q    Type
REMARK                         _______ _______ _______ _____ _____    ______ ____
ROOT
ATOM      1  C   UNL     1      75.363  80.918  84.075  0.00  0.00    +0.000 C 
ATOM      2  C   UNL     1      74.551  81.772  84.306  0.00  0.00    +0.000 C 
ENDROOT
BRANCH   1   5
ATOM      3  O   UNL     1      76.656  79.643  82.425  0.00  0.00    +0.000 OA
ATOM      4  O   UNL     1      77.973  78.324  81.045  0.00  0.00    +0.000 OA
ATOM      5  C   UNL     1      76.318  79.913  83.798  0.00  0.00    +0.000 A 
ATOM      6  C   UNL     1      77.000  79.119  84.760  0.00  0.00    +0.000 A 
ATOM      7  C   UNL     1      78.028  78.032  84.550  0.00  0.00    +0.000 A 
ATOM      8  C   UNL     1      78.125  78.007  83.357  0.00  0.00    +0.000 A 
ATOM      9  C   UNL     1      77.603  78.646  82.164  0.00  0.00    +0.000 A 
ENDBRANCH   1   5
BRANCH   2  10
ATOM     10  C   UNL     1      73.587  82.786  84.581  0.00  0.00    +0.000 A 
ATOM     11  C   UNL     1      73.889  84.122  84.323  0.00  0.00    +0.000 A 
ATOM     12  C   UNL     1      72.343  82.440  85.106  0.00  0.00    +0.000 A 
ATOM     13  C   UNL     1      72.947  85.112  84.593  0.00  0.00    +0.000 A 
ATOM     14  C   UNL     1      71.402  83.431  85.374  0.00  0.00    +0.000 A 
ATOM     15  C   UNL     1      71.704  84.766  85.117  0.00  0.00    +0.000 A 
ENDBRANCH   2  10
TORSDOF 2
ENDMDL
MODEL 7
REMARK VINA RESULT:      -4.7      9.196      9.834
REMARK  Name = 6440856_Goniothalamin.pdbqt.pdb
REMARK  2 active torsions:
REMARK  status: ('A' for Active; 'I' for Inactive)
REMARK    1  A    between atoms: C_1  and  C_5
REMARK    2  A    between atoms: C_2  and  C_10
REMARK                            x       y       z     vdW  Elec       q    Type
REMARK                         _______ _______ _______ _____ _____    ______ ____
ROOT
ATOM      1  C   UNL     1      69.215  59.216  64.911  0.00  0.00    +0.000 C 
ATOM      2  C   UNL     1      69.491  58.056  64.772  0.00  0.00    +0.000 C 
ENDROOT
BRANCH   1   5
ATOM      3  O   UNL     1      69.949  61.516  65.349  0.00  0.00    +0.000 OA
ATOM      4  O   UNL     1      70.419  63.752  65.744  0.00  0.00    +0.000 OA
ATOM      5  C   UNL     1      68.888  60.583  65.070  0.00  0.00    +0.000 A 
ATOM      6  C   UNL     1      67.587  61.148  64.981  0.00  0.00    +0.000 A 
ATOM      7  C   UNL     1      67.156  62.588  65.137  0.00  0.00    +0.000 A 
ATOM      8  C   UNL     1      68.196  63.139  65.358  0.00  0.00    +0.000 A 
ATOM      9  C   UNL     1      69.613  62.866  65.505  0.00  0.00    +0.000 A 
ENDBRANCH   1   5
BRANCH   2  10
ATOM     10  C   UNL     1      69.819  56.678  64.607  0.00  0.00    +0.000 A 
ATOM     11  C   UNL     1      69.766  56.097  63.342  0.00  0.00    +0.000 A 
ATOM     12  C   UNL     1      70.191  55.915  65.711  0.00  0.00    +0.000 A 
ATOM     13  C   UNL     1      70.086  54.750  63.182  0.00  0.00    +0.000 A 
ATOM     14  C   UNL     1      70.511  54.568  65.550  0.00  0.00    +0.000 A 
ATOM     15  C   UNL     1      70.459  53.987  64.285  0.00  0.00    +0.000 A 
ENDBRANCH   2  10
TORSDOF 2
ENDMDL
MODEL 8
REMARK VINA RESULT:      -4.7     10.832     14.218
REMARK  Name = 6440856_Goniothalamin.pdbqt.pdb
REMARK  2 active torsions:
REMARK  status: ('A' for Active; 'I' for Inactive)
REMARK    1  A    between atoms: C_1  and  C_5
REMARK    2  A    between atoms: C_2  and  C_10
REMARK                            x       y       z     vdW  Elec       q    Type
REMARK                         _______ _______ _______ _____ _____    ______ ____
ROOT
ATOM      1  C   UNL     1      63.162  42.156  54.203  0.00  0.00    +0.000 C 
ATOM      2  C   UNL     1      63.773  43.187  54.280  0.00  0.00    +0.000 C 
ENDROOT
BRANCH   1   5
ATOM      3  O   UNL     1      61.569  40.579  55.203  0.00  0.00    +0.000 OA
ATOM      4  O   UNL     1      60.093  38.958  55.957  0.00  0.00    +0.000 OA
ATOM      5  C   UNL     1      62.440  40.944  54.115  0.00  0.00    +0.000 A 
ATOM      6  C   UNL     1      62.483  40.021  53.035  0.00  0.00    +0.000 A 
ATOM      7  C   UNL     1      61.748  38.712  52.863  0.00  0.00    +0.000 A 
ATOM      8  C   UNL     1      61.113  38.646  53.876  0.00  0.00    +0.000 A 
ATOM      9  C   UNL     1      60.860  39.377  55.103  0.00  0.00    +0.000 A 
ENDBRANCH   1   5
BRANCH   2  10
ATOM     10  C   UNL     1      64.498  44.412  54.370  0.00  0.00    +0.000 A 
ATOM     11  C   UNL     1      63.813  45.618  54.497  0.00  0.00    +0.000 A 
ATOM     12  C   UNL     1      65.890  44.400  54.333  0.00  0.00    +0.000 A 
ATOM     13  C   UNL     1      64.522  46.814  54.584  0.00  0.00    +0.000 A 
ATOM     14  C   UNL     1      66.599  45.596  54.421  0.00  0.00    +0.000 A 
ATOM     15  C   UNL     1      65.914  46.803  54.548  0.00  0.00    +0.000 A 
ENDBRANCH   2  10
TORSDOF 2
ENDMDL
MODEL 9
REMARK VINA RESULT:      -4.7     22.777     26.124
REMARK  Name = 6440856_Goniothalamin.pdbqt.pdb
REMARK  2 active torsions:
REMARK  status: ('A' for Active; 'I' for Inactive)
REMARK    1  A    between atoms: C_1  and  C_5
REMARK    2  A    between atoms: C_2  and  C_10
REMARK                            x       y       z     vdW  Elec       q    Type
REMARK                         _______ _______ _______ _____ _____    ______ ____
ROOT
ATOM      1  C   UNL     1      55.399  62.225  82.591  0.00  0.00    +0.000 C 
ATOM      2  C   UNL     1      55.483  63.341  83.024  0.00  0.00    +0.000 C 
ENDROOT
BRANCH   1   5
ATOM      3  O   UNL     1      54.684  60.716  80.792  0.00  0.00    +0.000 OA
ATOM      4  O   UNL     1      54.092  59.115  79.223  0.00  0.00    +0.000 OA
ATOM      5  C   UNL     1      55.295  60.910  82.082  0.00  0.00    +0.000 A 
ATOM      6  C   UNL     1      55.745  59.725  82.727  0.00  0.00    +0.000 A 
ATOM      7  C   UNL     1      55.673  58.292  82.255  0.00  0.00    +0.000 A 
ATOM      8  C   UNL     1      55.137  58.405  81.190  0.00  0.00    +0.000 A 
ATOM      9  C   UNL     1      54.588  59.409  80.300  0.00  0.00    +0.000 A 
ENDBRANCH   1   5
BRANCH   2  10
ATOM     10  C   UNL     1      55.583  64.668  83.539  0.00  0.00    +0.000 A 
ATOM     11  C   UNL     1      56.255  64.901  84.737  0.00  0.00    +0.000 A 
ATOM     12  C   UNL     1      55.009  65.729  82.842  0.00  0.00    +0.000 A 
ATOM     13  C   UNL     1      56.351  66.196  85.239  0.00  0.00    +0.000 A 
ATOM     14  C   UNL     1      55.107  67.025  83.344  0.00  0.00    +0.000 A 
ATOM     15  C   UNL     1      55.778  67.257  84.542  0.00  0.00    +0.000 A 
ENDBRANCH   2  10
TORSDOF 2
ENDMDL
