MODEL 1
REMARK VINA RESULT:      -3.9      0.000      0.000
REMARK  Name = 649_Dihydrouracil.pdb
REMARK  0 active torsions:
REMARK  status: ('A' for Active; 'I' for Inactive)
REMARK                            x       y       z     vdW  Elec       q    Type
REMARK                         _______ _______ _______ _____ _____    ______ ____
ROOT
ATOM      1  O   UNL     1      63.595  39.333  53.275  0.00  0.00    +0.000 OA
ATOM      2  O   UNL     1      62.240  37.674  57.362  0.00  0.00    +0.000 OA
ATOM      3  N   UNL     1      61.726  39.856  56.877  0.00  0.00    +0.000 N 
ATOM      4  N   UNL     1      62.906  38.520  55.332  0.00  0.00    +0.000 N 
ATOM      5  C   UNL     1      61.771  40.893  56.031  0.00  0.00    +0.000 A 
ATOM      6  C   UNL     1      62.440  40.758  54.702  0.00  0.00    +0.000 A 
ATOM      7  C   UNL     1      63.034  39.500  54.347  0.00  0.00    +0.000 A 
ATOM      8  C   UNL     1      62.285  38.618  56.582  0.00  0.00    +0.000 A 
ATOM      9  H   UNL     1      61.269  39.957  57.774  0.00  0.00    +0.000 HD
ATOM     10  H   UNL     1      63.313  37.624  55.114  0.00  0.00    +0.000 HD
ENDROOT
TORSDOF 0
ENDMDL
MODEL 2
REMARK VINA RESULT:      -3.7     22.290     23.537
REMARK  Name = 649_Dihydrouracil.pdb
REMARK  0 active torsions:
REMARK  status: ('A' for Active; 'I' for Inactive)
REMARK                            x       y       z     vdW  Elec       q    Type
REMARK                         _______ _______ _______ _____ _____    ______ ____
ROOT
ATOM      1  O   UNL     1      43.100  45.856  70.828  0.00  0.00    +0.000 OA
ATOM      2  O   UNL     1      47.233  44.767  69.089  0.00  0.00    +0.000 OA
ATOM      3  N   UNL     1      45.991  43.077  70.017  0.00  0.00    +0.000 N 
ATOM      4  N   UNL     1      45.171  45.288  69.961  0.00  0.00    +0.000 N 
ATOM      5  C   UNL     1      44.873  42.667  70.629  0.00  0.00    +0.000 A 
ATOM      6  C   UNL     1      43.784  43.638  70.949  0.00  0.00    +0.000 A 
ATOM      7  C   UNL     1      43.956  45.018  70.590  0.00  0.00    +0.000 A 
ATOM      8  C   UNL     1      46.207  44.400  69.649  0.00  0.00    +0.000 A 
ATOM      9  H   UNL     1      46.723  42.411  69.804  0.00  0.00    +0.000 HD
ATOM     10  H   UNL     1      45.324  46.248  69.696  0.00  0.00    +0.000 HD
ENDROOT
TORSDOF 0
ENDMDL
MODEL 3
REMARK VINA RESULT:      -3.7     11.305     11.786
REMARK  Name = 649_Dihydrouracil.pdb
REMARK  0 active torsions:
REMARK  status: ('A' for Active; 'I' for Inactive)
REMARK                            x       y       z     vdW  Elec       q    Type
REMARK                         _______ _______ _______ _____ _____    ______ ____
ROOT
ATOM      1  O   UNL     1      52.785  34.477  59.647  0.00  0.00    +0.000 OA
ATOM      2  O   UNL     1      50.456  37.599  57.171  0.00  0.00    +0.000 OA
ATOM      3  N   UNL     1      51.724  36.067  56.029  0.00  0.00    +0.000 N 
ATOM      4  N   UNL     1      51.624  36.035  58.385  0.00  0.00    +0.000 N 
ATOM      5  C   UNL     1      52.553  35.015  56.039  0.00  0.00    +0.000 A 
ATOM      6  C   UNL     1      52.973  34.394  57.332  0.00  0.00    +0.000 A 
ATOM      7  C   UNL     1      52.474  34.944  58.561  0.00  0.00    +0.000 A 
ATOM      8  C   UNL     1      51.214  36.636  57.190  0.00  0.00    +0.000 A 
ATOM      9  H   UNL     1      51.446  36.480  55.148  0.00  0.00    +0.000 HD
ATOM     10  H   UNL     1      51.256  36.445  59.229  0.00  0.00    +0.000 HD
ENDROOT
TORSDOF 0
ENDMDL
MODEL 4
REMARK VINA RESULT:      -3.7      1.750      2.446
REMARK  Name = 649_Dihydrouracil.pdb
REMARK  0 active torsions:
REMARK  status: ('A' for Active; 'I' for Inactive)
REMARK                            x       y       z     vdW  Elec       q    Type
REMARK                         _______ _______ _______ _____ _____    ______ ____
ROOT
ATOM      1  O   UNL     1      63.833  37.973  53.415  0.00  0.00    +0.000 OA
ATOM      2  O   UNL     1      61.610  40.506  56.568  0.00  0.00    +0.000 OA
ATOM      3  N   UNL     1      62.320  38.417  57.191  0.00  0.00    +0.000 N 
ATOM      4  N   UNL     1      62.719  39.228  55.013  0.00  0.00    +0.000 N 
ATOM      5  C   UNL     1      62.936  37.266  56.887  0.00  0.00    +0.000 A 
ATOM      6  C   UNL     1      63.508  37.051  55.523  0.00  0.00    +0.000 A 
ATOM      7  C   UNL     1      63.385  38.095  54.545  0.00  0.00    +0.000 A 
ATOM      8  C   UNL     1      62.176  39.457  56.282  0.00  0.00    +0.000 A 
ATOM      9  H   UNL     1      61.937  38.552  58.118  0.00  0.00    +0.000 HD
ATOM     10  H   UNL     1      62.616  39.981  54.350  0.00  0.00    +0.000 HD
ENDROOT
TORSDOF 0
ENDMDL
MODEL 5
REMARK VINA RESULT:      -3.6      3.331      4.575
REMARK  Name = 649_Dihydrouracil.pdb
REMARK  0 active torsions:
REMARK  status: ('A' for Active; 'I' for Inactive)
REMARK                            x       y       z     vdW  Elec       q    Type
REMARK                         _______ _______ _______ _____ _____    ______ ____
ROOT
ATOM      1  O   UNL     1      62.584  38.190  57.267  0.00  0.00    +0.000 OA
ATOM      2  O   UNL     1      66.311  35.706  56.158  0.00  0.00    +0.000 OA
ATOM      3  N   UNL     1      64.258  34.843  55.613  0.00  0.00    +0.000 N 
ATOM      4  N   UNL     1      64.442  36.927  56.702  0.00  0.00    +0.000 N 
ATOM      5  C   UNL     1      62.923  34.953  55.606  0.00  0.00    +0.000 A 
ATOM      6  C   UNL     1      62.258  36.154  56.196  0.00  0.00    +0.000 A 
ATOM      7  C   UNL     1      63.073  37.187  56.770  0.00  0.00    +0.000 A 
ATOM      8  C   UNL     1      65.091  35.814  56.156  0.00  0.00    +0.000 A 
ATOM      9  H   UNL     1      64.698  34.026  55.210  0.00  0.00    +0.000 HD
ATOM     10  H   UNL     1      65.042  37.634  57.097  0.00  0.00    +0.000 HD
ENDROOT
TORSDOF 0
ENDMDL
MODEL 6
REMARK VINA RESULT:      -3.3     48.608     49.257
REMARK  Name = 649_Dihydrouracil.pdb
REMARK  0 active torsions:
REMARK  status: ('A' for Active; 'I' for Inactive)
REMARK                            x       y       z     vdW  Elec       q    Type
REMARK                         _______ _______ _______ _____ _____    ______ ____
ROOT
ATOM      1  O   UNL     1      77.052  77.962  79.005  0.00  0.00    +0.000 OA
ATOM      2  O   UNL     1      78.211  77.244  83.414  0.00  0.00    +0.000 OA
ATOM      3  N   UNL     1      77.445  79.328  82.842  0.00  0.00    +0.000 N 
ATOM      4  N   UNL     1      77.628  77.622  81.223  0.00  0.00    +0.000 N 
ATOM      5  C   UNL     1      76.986  80.176  81.912  0.00  0.00    +0.000 A 
ATOM      6  C   UNL     1      76.822  79.730  80.495  0.00  0.00    +0.000 A 
ATOM      7  C   UNL     1      77.165  78.380  80.147  0.00  0.00    +0.000 A 
ATOM      8  C   UNL     1      77.791  78.013  82.557  0.00  0.00    +0.000 A 
ATOM      9  H   UNL     1      77.552  79.640  83.799  0.00  0.00    +0.000 HD
ATOM     10  H   UNL     1      77.879  76.669  81.012  0.00  0.00    +0.000 HD
ENDROOT
TORSDOF 0
ENDMDL
MODEL 7
REMARK VINA RESULT:      -3.2     24.368     25.097
REMARK  Name = 649_Dihydrouracil.pdb
REMARK  0 active torsions:
REMARK  status: ('A' for Active; 'I' for Inactive)
REMARK                            x       y       z     vdW  Elec       q    Type
REMARK                         _______ _______ _______ _____ _____    ______ ____
ROOT
ATOM      1  O   UNL     1      45.271  41.468  72.195  0.00  0.00    +0.000 OA
ATOM      2  O   UNL     1      46.019  42.365  76.659  0.00  0.00    +0.000 OA
ATOM      3  N   UNL     1      46.748  43.908  75.128  0.00  0.00    +0.000 N 
ATOM      4  N   UNL     1      45.657  41.937  74.431  0.00  0.00    +0.000 N 
ATOM      5  C   UNL     1      46.879  44.300  73.854  0.00  0.00    +0.000 A 
ATOM      6  C   UNL     1      46.358  43.448  72.743  0.00  0.00    +0.000 A 
ATOM      7  C   UNL     1      45.715  42.204  73.063  0.00  0.00    +0.000 A 
ATOM      8  C   UNL     1      46.135  42.715  75.491  0.00  0.00    +0.000 A 
ATOM      9  H   UNL     1      47.104  44.493  75.874  0.00  0.00    +0.000 HD
ATOM     10  H   UNL     1      45.211  41.071  74.689  0.00  0.00    +0.000 HD
ENDROOT
TORSDOF 0
ENDMDL
MODEL 8
REMARK VINA RESULT:      -3.1     49.239     49.950
REMARK  Name = 649_Dihydrouracil.pdb
REMARK  0 active torsions:
REMARK  status: ('A' for Active; 'I' for Inactive)
REMARK                            x       y       z     vdW  Elec       q    Type
REMARK                         _______ _______ _______ _____ _____    ______ ____
ROOT
ATOM      1  O   UNL     1      76.741  81.133  83.117  0.00  0.00    +0.000 OA
ATOM      2  O   UNL     1      77.536  77.998  79.825  0.00  0.00    +0.000 OA
ATOM      3  N   UNL     1      77.767  77.330  82.007  0.00  0.00    +0.000 N 
ATOM      4  N   UNL     1      77.145  79.543  81.480  0.00  0.00    +0.000 N 
ATOM      5  C   UNL     1      77.716  77.616  83.315  0.00  0.00    +0.000 A 
ATOM      6  C   UNL     1      77.346  78.988  83.777  0.00  0.00    +0.000 A 
ATOM      7  C   UNL     1      77.048  79.994  82.797  0.00  0.00    +0.000 A 
ATOM      8  C   UNL     1      77.487  78.267  81.020  0.00  0.00    +0.000 A 
ATOM      9  H   UNL     1      78.017  76.397  81.705  0.00  0.00    +0.000 HD
ATOM     10  H   UNL     1      76.941  80.226  80.767  0.00  0.00    +0.000 HD
ENDROOT
TORSDOF 0
ENDMDL
MODEL 9
REMARK VINA RESULT:      -3.1     51.398     52.146
REMARK  Name = 649_Dihydrouracil.pdb
REMARK  0 active torsions:
REMARK  status: ('A' for Active; 'I' for Inactive)
REMARK                            x       y       z     vdW  Elec       q    Type
REMARK                         _______ _______ _______ _____ _____    ______ ____
ROOT
ATOM      1  O   UNL     1      73.954  83.240  83.815  0.00  0.00    +0.000 OA
ATOM      2  O   UNL     1      76.706  79.556  83.427  0.00  0.00    +0.000 OA
ATOM      3  N   UNL     1      75.150  79.548  85.111  0.00  0.00    +0.000 N 
ATOM      4  N   UNL     1      75.325  81.381  83.638  0.00  0.00    +0.000 N 
ATOM      5  C   UNL     1      74.151  80.155  85.765  0.00  0.00    +0.000 A 
ATOM      6  C   UNL     1      73.673  81.504  85.334  0.00  0.00    +0.000 A 
ATOM      7  C   UNL     1      74.302  82.138  84.210  0.00  0.00    +0.000 A 
ATOM      8  C   UNL     1      75.792  80.119  84.019  0.00  0.00    +0.000 A 
ATOM      9  H   UNL     1      75.466  78.635  85.411  0.00  0.00    +0.000 HD
ATOM     10  H   UNL     1      75.788  81.799  82.846  0.00  0.00    +0.000 HD
ENDROOT
TORSDOF 0
ENDMDL
