MODEL 1
REMARK VINA RESULT:      -8.1      0.000      0.000
REMARK  Name = 6509753_ManzamineA.pdbqt.pdb
REMARK  2 active torsions:
REMARK  status: ('A' for Active; 'I' for Inactive)
REMARK    1  A    between atoms: C_7  and  O_42
REMARK    2  A    between atoms: C_11  and  C_30
REMARK                            x       y       z     vdW  Elec       q    Type
REMARK                         _______ _______ _______ _____ _____    ______ ____
ROOT
ATOM      1  N   UNL     1      58.639  64.185  67.041  0.00  0.00    +0.000 N 
ATOM      2  N   UNL     1      57.974  68.628  64.881  0.00  0.00    +0.000 N 
ATOM      3  C   UNL     1      59.368  66.386  66.023  0.00  0.00    +0.000 C 
ATOM      4  C   UNL     1      59.058  65.581  67.327  0.00  0.00    +0.000 C 
ATOM      5  C   UNL     1      60.754  67.143  65.897  0.00  0.00    +0.000 C 
ATOM      6  C   UNL     1      59.313  65.247  65.111  0.00  0.00    +0.000 C 
ATOM      7  C   UNL     1      59.915  65.826  68.572  0.00  0.00    +0.000 C 
ATOM      8  C   UNL     1      58.304  67.382  65.648  0.00  0.00    +0.000 C 
ATOM      9  C   UNL     1      58.718  64.057  65.569  0.00  0.00    +0.000 C 
ATOM     10  C   UNL     1      60.676  68.337  65.094  0.00  0.00    +0.000 C 
ATOM     11  C   UNL     1      61.637  67.119  67.055  0.00  0.00    +0.000 C 
ATOM     12  C   UNL     1      61.071  66.540  68.067  0.00  0.00    +0.000 C 
ATOM     13  C   UNL     1      59.375  69.026  64.673  0.00  0.00    +0.000 C 
ATOM     14  C   UNL     1      57.305  63.891  67.572  0.00  0.00    +0.000 C 
ATOM     15  C   UNL     1      59.152  66.549  69.584  0.00  0.00    +0.000 C 
ATOM     16  C   UNL     1      57.789  63.258  64.838  0.00  0.00    +0.000 C 
ATOM     17  C   UNL     1      57.363  69.569  65.804  0.00  0.00    +0.000 C 
ATOM     18  C   UNL     1      55.877  63.317  67.615  0.00  0.00    +0.000 C 
ATOM     19  C   UNL     1      58.335  67.442  70.521  0.00  0.00    +0.000 C 
ATOM     20  C   UNL     1      56.766  62.667  64.619  0.00  0.00    +0.000 C 
ATOM     21  C   UNL     1      54.984  62.567  66.628  0.00  0.00    +0.000 C 
ATOM     22  C   UNL     1      56.730  70.424  66.905  0.00  0.00    +0.000 C 
ATOM     23  C   UNL     1      55.416  62.244  65.202  0.00  0.00    +0.000 C 
ATOM     24  C   UNL     1      57.455  68.586  71.017  0.00  0.00    +0.000 C 
ATOM     25  C   UNL     1      56.284  70.865  68.296  0.00  0.00    +0.000 C 
ATOM     26  C   UNL     1      56.276  70.583  69.789  0.00  0.00    +0.000 C 
ATOM     27  C   UNL     1      56.815  69.571  70.786  0.00  0.00    +0.000 C 
ENDROOT
BRANCH  11  30
ATOM     28  N   UNL     1      64.048  67.177  66.796  0.00  0.00    +0.000 NA
ATOM     29  N   UNL     1      62.008  69.950  68.153  0.00  0.00    +0.000 N 
ATOM     30  C   UNL     1      62.915  67.805  67.181  0.00  0.00    +0.000 A 
ATOM     31  C   UNL     1      62.988  69.094  67.705  0.00  0.00    +0.000 A 
ATOM     32  C   UNL     1      64.207  69.759  67.847  0.00  0.00    +0.000 A 
ATOM     33  C   UNL     1      65.224  67.827  66.936  0.00  0.00    +0.000 A 
ATOM     34  C   UNL     1      65.385  69.106  67.451  0.00  0.00    +0.000 A 
ATOM     35  C   UNL     1      63.932  71.045  68.405  0.00  0.00    +0.000 A 
ATOM     36  C   UNL     1      62.553  71.135  68.584  0.00  0.00    +0.000 A 
ATOM     37  C   UNL     1      64.735  72.142  68.771  0.00  0.00    +0.000 A 
ATOM     38  C   UNL     1      61.926  72.269  69.111  0.00  0.00    +0.000 A 
ATOM     39  C   UNL     1      64.127  73.284  69.300  0.00  0.00    +0.000 A 
ATOM     40  C   UNL     1      62.748  73.341  69.465  0.00  0.00    +0.000 A 
ATOM     41  H   UNL     1      61.018  69.743  68.156  0.00  0.00    +0.000 HD
ENDBRANCH  11  30
BRANCH   7  42
ATOM     42  O   UNL     1      60.371  64.599  69.122  0.00  0.00    +0.000 OA
ATOM     43  H   UNL     1      61.263  64.774  69.467  0.00  0.00    +0.000 HD
ENDBRANCH   7  42
TORSDOF 2
ENDMDL
MODEL 2
REMARK VINA RESULT:      -7.8      2.900      9.138
REMARK  Name = 6509753_ManzamineA.pdbqt.pdb
REMARK  2 active torsions:
REMARK  status: ('A' for Active; 'I' for Inactive)
REMARK    1  A    between atoms: C_7  and  O_42
REMARK    2  A    between atoms: C_11  and  C_30
REMARK                            x       y       z     vdW  Elec       q    Type
REMARK                         _______ _______ _______ _____ _____    ______ ____
ROOT
ATOM      1  N   UNL     1      66.775  69.482  67.619  0.00  0.00    +0.000 N 
ATOM      2  N   UNL     1      63.002  71.364  64.960  0.00  0.00    +0.000 N 
ATOM      3  C   UNL     1      64.350  69.981  67.092  0.00  0.00    +0.000 C 
ATOM      4  C   UNL     1      65.522  68.949  67.025  0.00  0.00    +0.000 C 
ATOM      5  C   UNL     1      62.965  69.533  67.718  0.00  0.00    +0.000 C 
ATOM      6  C   UNL     1      65.025  70.942  67.960  0.00  0.00    +0.000 C 
ATOM      7  C   UNL     1      65.215  67.463  67.225  0.00  0.00    +0.000 C 
ATOM      8  C   UNL     1      64.029  70.634  65.775  0.00  0.00    +0.000 C 
ATOM      9  C   UNL     1      66.420  70.830  68.115  0.00  0.00    +0.000 C 
ATOM     10  C   UNL     1      61.834  70.209  67.135  0.00  0.00    +0.000 C 
ATOM     11  C   UNL     1      62.833  68.140  68.121  0.00  0.00    +0.000 C 
ATOM     12  C   UNL     1      63.882  67.453  67.794  0.00  0.00    +0.000 C 
ATOM     13  C   UNL     1      61.871  71.015  65.833  0.00  0.00    +0.000 C 
ATOM     14  C   UNL     1      67.878  69.497  66.655  0.00  0.00    +0.000 C 
ATOM     15  C   UNL     1      65.339  66.741  65.962  0.00  0.00    +0.000 C 
ATOM     16  C   UNL     1      67.349  71.912  68.069  0.00  0.00    +0.000 C 
ATOM     17  C   UNL     1      62.845  70.651  63.703  0.00  0.00    +0.000 C 
ATOM     18  C   UNL     1      69.117  70.024  65.906  0.00  0.00    +0.000 C 
ATOM     19  C   UNL     1      65.336  66.095  64.575  0.00  0.00    +0.000 C 
ATOM     20  C   UNL     1      68.309  72.534  67.702  0.00  0.00    +0.000 C 
ATOM     21  C   UNL     1      69.916  71.326  65.921  0.00  0.00    +0.000 C 
ATOM     22  C   UNL     1      62.819  69.789  62.437  0.00  0.00    +0.000 C 
ATOM     23  C   UNL     1      69.538  72.518  66.791  0.00  0.00    +0.000 C 
ATOM     24  C   UNL     1      65.042  65.860  63.096  0.00  0.00    +0.000 C 
ATOM     25  C   UNL     1      63.102  68.624  61.495  0.00  0.00    +0.000 C 
ATOM     26  C   UNL     1      63.750  67.264  61.294  0.00  0.00    +0.000 C 
ATOM     27  C   UNL     1      64.541  66.226  62.072  0.00  0.00    +0.000 C 
ENDROOT
BRANCH  11  30
ATOM     28  N   UNL     1      61.286  67.701  69.938  0.00  0.00    +0.000 NA
ATOM     29  N   UNL     1      60.964  66.325  66.518  0.00  0.00    +0.000 N 
ATOM     30  C   UNL     1      61.634  67.502  68.647  0.00  0.00    +0.000 A 
ATOM     31  C   UNL     1      60.848  66.680  67.843  0.00  0.00    +0.000 A 
ATOM     32  C   UNL     1      59.704  66.049  68.336  0.00  0.00    +0.000 A 
ATOM     33  C   UNL     1      60.177  67.088  70.408  0.00  0.00    +0.000 A 
ATOM     34  C   UNL     1      59.344  66.253  69.677  0.00  0.00    +0.000 A 
ATOM     35  C   UNL     1      59.136  65.291  67.266  0.00  0.00    +0.000 A 
ATOM     36  C   UNL     1      59.943  65.483  66.146  0.00  0.00    +0.000 A 
ATOM     37  C   UNL     1      58.005  64.462  67.151  0.00  0.00    +0.000 A 
ATOM     38  C   UNL     1      59.680  64.889  64.908  0.00  0.00    +0.000 A 
ATOM     39  C   UNL     1      57.726  63.859  65.922  0.00  0.00    +0.000 A 
ATOM     40  C   UNL     1      58.551  64.072  64.823  0.00  0.00    +0.000 A 
ATOM     41  H   UNL     1      61.694  66.645  65.897  0.00  0.00    +0.000 HD
ENDBRANCH  11  30
BRANCH   7  42
ATOM     42  O   UNL     1      66.097  66.887  68.177  0.00  0.00    +0.000 OA
ATOM     43  H   UNL     1      66.936  66.737  67.709  0.00  0.00    +0.000 HD
ENDBRANCH   7  42
TORSDOF 2
ENDMDL
MODEL 3
REMARK VINA RESULT:      -7.8     31.900     35.833
REMARK  Name = 6509753_ManzamineA.pdbqt.pdb
REMARK  2 active torsions:
REMARK  status: ('A' for Active; 'I' for Inactive)
REMARK    1  A    between atoms: C_7  and  O_42
REMARK    2  A    between atoms: C_11  and  C_30
REMARK                            x       y       z     vdW  Elec       q    Type
REMARK                         _______ _______ _______ _____ _____    ______ ____
ROOT
ATOM      1  N   UNL     1      47.549  37.797  64.204  0.00  0.00    +0.000 N 
ATOM      2  N   UNL     1      49.647  33.324  64.866  0.00  0.00    +0.000 N 
ATOM      3  C   UNL     1      49.173  35.917  63.715  0.00  0.00    +0.000 C 
ATOM      4  C   UNL     1      47.821  36.612  63.351  0.00  0.00    +0.000 C 
ATOM      5  C   UNL     1      50.227  35.634  62.567  0.00  0.00    +0.000 C 
ATOM      6  C   UNL     1      49.655  36.958  64.618  0.00  0.00    +0.000 C 
ATOM      7  C   UNL     1      47.393  36.679  61.882  0.00  0.00    +0.000 C 
ATOM      8  C   UNL     1      49.016  34.627  64.475  0.00  0.00    +0.000 C 
ATOM      9  C   UNL     1      48.730  37.910  65.088  0.00  0.00    +0.000 C 
ATOM     10  C   UNL     1      51.026  34.459  62.807  0.00  0.00    +0.000 C 
ATOM     11  C   UNL     1      49.835  35.963  61.203  0.00  0.00    +0.000 C 
ATOM     12  C   UNL     1      48.601  36.356  61.150  0.00  0.00    +0.000 C 
ATOM     13  C   UNL     1      50.710  33.384  63.852  0.00  0.00    +0.000 C 
ATOM     14  C   UNL     1      46.290  37.666  64.943  0.00  0.00    +0.000 C 
ATOM     15  C   UNL     1      46.274  35.775  61.634  0.00  0.00    +0.000 C 
ATOM     16  C   UNL     1      48.613  38.356  66.439  0.00  0.00    +0.000 C 
ATOM     17  C   UNL     1      48.727  32.259  64.502  0.00  0.00    +0.000 C 
ATOM     18  C   UNL     1      45.309  37.759  66.126  0.00  0.00    +0.000 C 
ATOM     19  C   UNL     1      45.214  34.692  61.427  0.00  0.00    +0.000 C 
ATOM     20  C   UNL     1      48.074  38.588  67.487  0.00  0.00    +0.000 C 
ATOM     21  C   UNL     1      45.423  38.165  67.595  0.00  0.00    +0.000 C 
ATOM     22  C   UNL     1      47.639  31.273  64.068  0.00  0.00    +0.000 C 
ATOM     23  C   UNL     1      46.742  38.576  68.239  0.00  0.00    +0.000 C 
ATOM     24  C   UNL     1      44.508  33.339  61.473  0.00  0.00    +0.000 C 
ATOM     25  C   UNL     1      46.360  30.746  63.424  0.00  0.00    +0.000 C 
ATOM     26  C   UNL     1      45.131  31.044  62.582  0.00  0.00    +0.000 C 
ATOM     27  C   UNL     1      44.486  32.197  61.831  0.00  0.00    +0.000 C 
ENDROOT
BRANCH  11  30
ATOM     28  N   UNL     1      51.465  36.670  59.552  0.00  0.00    +0.000 NA
ATOM     29  N   UNL     1      49.718  33.409  59.524  0.00  0.00    +0.000 N 
ATOM     30  C   UNL     1      50.614  35.719  59.998  0.00  0.00    +0.000 A 
ATOM     31  C   UNL     1      50.486  34.527  59.289  0.00  0.00    +0.000 A 
ATOM     32  C   UNL     1      51.214  34.284  58.123  0.00  0.00    +0.000 A 
ATOM     33  C   UNL     1      52.167  36.429  58.423  0.00  0.00    +0.000 A 
ATOM     34  C   UNL     1      52.095  35.273  57.658  0.00  0.00    +0.000 A 
ATOM     35  C   UNL     1      50.854  32.984  57.654  0.00  0.00    +0.000 A 
ATOM     36  C   UNL     1      49.920  32.463  58.548  0.00  0.00    +0.000 A 
ATOM     37  C   UNL     1      51.242  32.202  56.550  0.00  0.00    +0.000 A 
ATOM     38  C   UNL     1      49.349  31.195  58.399  0.00  0.00    +0.000 A 
ATOM     39  C   UNL     1      50.682  30.933  56.384  0.00  0.00    +0.000 A 
ATOM     40  C   UNL     1      49.754  30.442  57.295  0.00  0.00    +0.000 A 
ATOM     41  H   UNL     1      49.096  33.291  60.312  0.00  0.00    +0.000 HD
ENDBRANCH  11  30
BRANCH   7  42
ATOM     42  O   UNL     1      47.011  38.000  61.526  0.00  0.00    +0.000 OA
ATOM     43  H   UNL     1      46.175  37.915  61.037  0.00  0.00    +0.000 HD
ENDBRANCH   7  42
TORSDOF 2
ENDMDL
MODEL 4
REMARK VINA RESULT:      -7.5     21.969     25.138
REMARK  Name = 6509753_ManzamineA.pdbqt.pdb
REMARK  2 active torsions:
REMARK  status: ('A' for Active; 'I' for Inactive)
REMARK    1  A    between atoms: C_7  and  O_42
REMARK    2  A    between atoms: C_11  and  C_30
REMARK                            x       y       z     vdW  Elec       q    Type
REMARK                         _______ _______ _______ _____ _____    ______ ____
ROOT
ATOM      1  N   UNL     1      75.317  48.560  72.357  0.00  0.00    +0.000 N 
ATOM      2  N   UNL     1      75.542  51.549  76.340  0.00  0.00    +0.000 N 
ATOM      3  C   UNL     1      74.644  49.404  74.647  0.00  0.00    +0.000 C 
ATOM      4  C   UNL     1      74.354  49.403  73.111  0.00  0.00    +0.000 C 
ATOM      5  C   UNL     1      73.467  49.062  75.652  0.00  0.00    +0.000 C 
ATOM      6  C   UNL     1      75.638  48.335  74.628  0.00  0.00    +0.000 C 
ATOM      7  C   UNL     1      72.901  49.428  72.630  0.00  0.00    +0.000 C 
ATOM      8  C   UNL     1      75.279  50.671  75.153  0.00  0.00    +0.000 C 
ATOM      9  C   UNL     1      76.201  47.973  73.390  0.00  0.00    +0.000 C 
ATOM     10  C   UNL     1      73.592  49.736  76.920  0.00  0.00    +0.000 C 
ATOM     11  C   UNL     1      72.143  48.849  75.085  0.00  0.00    +0.000 C 
ATOM     12  C   UNL     1      72.134  49.083  73.810  0.00  0.00    +0.000 C 
ATOM     13  C   UNL     1      74.532  50.913  77.198  0.00  0.00    +0.000 C 
ATOM     14  C   UNL     1      76.047  49.328  71.346  0.00  0.00    +0.000 C 
ATOM     15  C   UNL     1      72.575  50.729  72.056  0.00  0.00    +0.000 C 
ATOM     16  C   UNL     1      77.588  47.745  73.144  0.00  0.00    +0.000 C 
ATOM     17  C   UNL     1      75.085  52.889  76.011  0.00  0.00    +0.000 C 
ATOM     18  C   UNL     1      77.240  49.804  70.496  0.00  0.00    +0.000 C 
ATOM     19  C   UNL     1      72.274  52.165  71.620  0.00  0.00    +0.000 C 
ATOM     20  C   UNL     1      78.657  47.880  72.612  0.00  0.00    +0.000 C 
ATOM     21  C   UNL     1      78.740  49.512  70.479  0.00  0.00    +0.000 C 
ATOM     22  C   UNL     1      74.566  54.233  75.494  0.00  0.00    +0.000 C 
ATOM     23  C   UNL     1      79.412  48.581  71.481  0.00  0.00    +0.000 C 
ATOM     24  C   UNL     1      72.196  53.689  71.634  0.00  0.00    +0.000 C 
ATOM     25  C   UNL     1      73.883  55.248  74.582  0.00  0.00    +0.000 C 
ATOM     26  C   UNL     1      73.080  55.498  73.316  0.00  0.00    +0.000 C 
ATOM     27  C   UNL     1      72.445  54.730  72.170  0.00  0.00    +0.000 C 
ENDROOT
BRANCH  11  30
ATOM     28  N   UNL     1      69.982  49.572  75.915  0.00  0.00    +0.000 NA
ATOM     29  N   UNL     1      71.458  46.232  76.513  0.00  0.00    +0.000 N 
ATOM     30  C   UNL     1      70.916  48.598  75.826  0.00  0.00    +0.000 A 
ATOM     31  C   UNL     1      70.694  47.376  76.456  0.00  0.00    +0.000 A 
ATOM     32  C   UNL     1      69.530  47.126  77.184  0.00  0.00    +0.000 A 
ATOM     33  C   UNL     1      68.857  49.323  76.620  0.00  0.00    +0.000 A 
ATOM     34  C   UNL     1      68.561  48.138  77.279  0.00  0.00    +0.000 A 
ATOM     35  C   UNL     1      69.618  45.793  77.692  0.00  0.00    +0.000 A 
ATOM     36  C   UNL     1      70.830  45.262  77.257  0.00  0.00    +0.000 A 
ATOM     37  C   UNL     1      68.771  44.992  78.480  0.00  0.00    +0.000 A 
ATOM     38  C   UNL     1      71.247  43.964  77.568  0.00  0.00    +0.000 A 
ATOM     39  C   UNL     1      69.171  43.692  78.802  0.00  0.00    +0.000 A 
ATOM     40  C   UNL     1      70.387  43.191  78.351  0.00  0.00    +0.000 A 
ATOM     41  H   UNL     1      72.355  46.114  76.062  0.00  0.00    +0.000 HD
ENDBRANCH  11  30
BRANCH   7  42
ATOM     42  O   UNL     1      72.674  48.420  71.655  0.00  0.00    +0.000 OA
ATOM     43  H   UNL     1      71.950  48.748  71.095  0.00  0.00    +0.000 HD
ENDBRANCH   7  42
TORSDOF 2
ENDMDL
MODEL 5
REMARK VINA RESULT:      -7.5     31.801     35.720
REMARK  Name = 6509753_ManzamineA.pdbqt.pdb
REMARK  2 active torsions:
REMARK  status: ('A' for Active; 'I' for Inactive)
REMARK    1  A    between atoms: C_7  and  O_42
REMARK    2  A    between atoms: C_11  and  C_30
REMARK                            x       y       z     vdW  Elec       q    Type
REMARK                         _______ _______ _______ _____ _____    ______ ____
ROOT
ATOM      1  N   UNL     1      51.800  33.754  57.842  0.00  0.00    +0.000 N 
ATOM      2  N   UNL     1      50.156  30.741  61.457  0.00  0.00    +0.000 N 
ATOM      3  C   UNL     1      50.293  33.054  59.753  0.00  0.00    +0.000 C 
ATOM      4  C   UNL     1      51.538  33.883  59.299  0.00  0.00    +0.000 C 
ATOM      5  C   UNL     1      49.152  33.773  60.584  0.00  0.00    +0.000 C 
ATOM      6  C   UNL     1      49.824  32.714  58.413  0.00  0.00    +0.000 C 
ATOM      7  C   UNL     1      51.803  35.242  59.952  0.00  0.00    +0.000 C 
ATOM      8  C   UNL     1      50.634  31.793  60.500  0.00  0.00    +0.000 C 
ATOM      9  C   UNL     1      50.711  32.889  57.334  0.00  0.00    +0.000 C 
ATOM     10  C   UNL     1      48.482  32.891  61.507  0.00  0.00    +0.000 C 
ATOM     11  C   UNL     1      49.371  35.163  60.959  0.00  0.00    +0.000 C 
ATOM     12  C   UNL     1      50.557  35.561  60.618  0.00  0.00    +0.000 C 
ATOM     13  C   UNL     1      48.992  31.508  61.924  0.00  0.00    +0.000 C 
ATOM     14  C   UNL     1      53.135  33.217  57.567  0.00  0.00    +0.000 C 
ATOM     15  C   UNL     1      52.961  35.166  60.838  0.00  0.00    +0.000 C 
ATOM     16  C   UNL     1      50.931  31.953  56.280  0.00  0.00    +0.000 C 
ATOM     17  C   UNL     1      51.117  30.660  62.544  0.00  0.00    +0.000 C 
ATOM     18  C   UNL     1      54.223  32.367  56.885  0.00  0.00    +0.000 C 
ATOM     19  C   UNL     1      54.079  34.959  61.861  0.00  0.00    +0.000 C 
ATOM     20  C   UNL     1      51.556  31.229  55.553  0.00  0.00    +0.000 C 
ATOM     21  C   UNL     1      54.229  31.278  55.814  0.00  0.00    +0.000 C 
ATOM     22  C   UNL     1      52.231  30.701  63.594  0.00  0.00    +0.000 C 
ATOM     23  C   UNL     1      52.956  30.746  55.167  0.00  0.00    +0.000 C 
ATOM     24  C   UNL     1      54.895  34.357  63.002  0.00  0.00    +0.000 C 
ATOM     25  C   UNL     1      53.475  31.171  64.342  0.00  0.00    +0.000 C 
ATOM     26  C   UNL     1      54.581  32.205  64.470  0.00  0.00    +0.000 C 
ATOM     27  C   UNL     1      55.047  33.497  63.821  0.00  0.00    +0.000 C 
ENDROOT
BRANCH  11  30
ATOM     28  N   UNL     1      47.275  36.332  61.308  0.00  0.00    +0.000 NA
ATOM     29  N   UNL     1      50.055  36.219  63.747  0.00  0.00    +0.000 N 
ATOM     30  C   UNL     1      48.494  35.986  61.779  0.00  0.00    +0.000 A 
ATOM     31  C   UNL     1      48.896  36.432  63.036  0.00  0.00    +0.000 A 
ATOM     32  C   UNL     1      48.072  37.234  63.828  0.00  0.00    +0.000 A 
ATOM     33  C   UNL     1      46.483  37.109  62.079  0.00  0.00    +0.000 A 
ATOM     34  C   UNL     1      46.808  37.597  63.337  0.00  0.00    +0.000 A 
ATOM     35  C   UNL     1      48.777  37.508  65.040  0.00  0.00    +0.000 A 
ATOM     36  C   UNL     1      50.009  36.863  64.961  0.00  0.00    +0.000 A 
ATOM     37  C   UNL     1      48.473  38.246  66.199  0.00  0.00    +0.000 A 
ATOM     38  C   UNL     1      50.961  36.912  65.983  0.00  0.00    +0.000 A 
ATOM     39  C   UNL     1      49.412  38.309  67.231  0.00  0.00    +0.000 A 
ATOM     40  C   UNL     1      50.632  37.652  67.121  0.00  0.00    +0.000 A 
ATOM     41  H   UNL     1      50.833  35.658  63.428  0.00  0.00    +0.000 HD
ENDBRANCH  11  30
BRANCH   7  42
ATOM     42  O   UNL     1      52.037  36.239  58.968  0.00  0.00    +0.000 OA
ATOM     43  H   UNL     1      52.951  36.108  58.665  0.00  0.00    +0.000 HD
ENDBRANCH   7  42
TORSDOF 2
ENDMDL
MODEL 6
REMARK VINA RESULT:      -7.4     15.674     20.177
REMARK  Name = 6509753_ManzamineA.pdbqt.pdb
REMARK  2 active torsions:
REMARK  status: ('A' for Active; 'I' for Inactive)
REMARK    1  A    between atoms: C_7  and  O_42
REMARK    2  A    between atoms: C_11  and  C_30
REMARK                            x       y       z     vdW  Elec       q    Type
REMARK                         _______ _______ _______ _____ _____    ______ ____
ROOT
ATOM      1  N   UNL     1      75.277  64.609  72.060  0.00  0.00    +0.000 N 
ATOM      2  N   UNL     1      79.912  62.781  72.218  0.00  0.00    +0.000 N 
ATOM      3  C   UNL     1      77.366  63.715  73.177  0.00  0.00    +0.000 C 
ATOM      4  C   UNL     1      76.542  64.973  72.749  0.00  0.00    +0.000 C 
ATOM      5  C   UNL     1      77.851  63.587  74.680  0.00  0.00    +0.000 C 
ATOM      6  C   UNL     1      76.330  62.730  72.880  0.00  0.00    +0.000 C 
ATOM      7  C   UNL     1      76.526  66.197  73.669  0.00  0.00    +0.000 C 
ATOM      8  C   UNL     1      78.573  63.449  72.318  0.00  0.00    +0.000 C 
ATOM      9  C   UNL     1      75.245  63.129  72.077  0.00  0.00    +0.000 C 
ATOM     10  C   UNL     1      79.093  62.870  74.816  0.00  0.00    +0.000 C 
ATOM     11  C   UNL     1      77.572  64.706  75.570  0.00  0.00    +0.000 C 
ATOM     12  C   UNL     1      77.040  65.698  74.928  0.00  0.00    +0.000 C 
ATOM     13  C   UNL     1      80.049  62.547  73.663  0.00  0.00    +0.000 C 
ATOM     14  C   UNL     1      75.206  65.169  70.709  0.00  0.00    +0.000 C 
ATOM     15  C   UNL     1      77.304  67.284  73.085  0.00  0.00    +0.000 C 
ATOM     16  C   UNL     1      74.696  62.382  70.993  0.00  0.00    +0.000 C 
ATOM     17  C   UNL     1      80.882  63.789  71.824  0.00  0.00    +0.000 C 
ATOM     18  C   UNL     1      74.915  65.228  69.197  0.00  0.00    +0.000 C 
ATOM     19  C   UNL     1      78.266  68.310  72.480  0.00  0.00    +0.000 C 
ATOM     20  C   UNL     1      74.330  62.164  69.869  0.00  0.00    +0.000 C 
ATOM     21  C   UNL     1      74.426  64.227  68.152  0.00  0.00    +0.000 C 
ATOM     22  C   UNL     1      81.759  64.968  71.396  0.00  0.00    +0.000 C 
ATOM     23  C   UNL     1      74.132  62.768  68.478  0.00  0.00    +0.000 C 
ATOM     24  C   UNL     1      79.518  68.916  71.852  0.00  0.00    +0.000 C 
ATOM     25  C   UNL     1      82.173  66.402  71.079  0.00  0.00    +0.000 C 
ATOM     26  C   UNL     1      81.789  67.872  71.052  0.00  0.00    +0.000 C 
ATOM     27  C   UNL     1      80.622  68.777  71.410  0.00  0.00    +0.000 C 
ENDROOT
BRANCH  11  30
ATOM     28  N   UNL     1      78.924  65.747  77.294  0.00  0.00    +0.000 NA
ATOM     29  N   UNL     1      76.495  63.019  77.883  0.00  0.00    +0.000 N 
ATOM     30  C   UNL     1      77.990  64.829  76.960  0.00  0.00    +0.000 A 
ATOM     31  C   UNL     1      77.451  64.007  77.947  0.00  0.00    +0.000 A 
ATOM     32  C   UNL     1      77.852  64.103  79.280  0.00  0.00    +0.000 A 
ATOM     33  C   UNL     1      79.307  65.834  78.587  0.00  0.00    +0.000 A 
ATOM     34  C   UNL     1      78.824  65.053  79.628  0.00  0.00    +0.000 A 
ATOM     35  C   UNL     1      77.112  63.131  80.022  0.00  0.00    +0.000 A 
ATOM     36  C   UNL     1      76.275  62.471  79.125  0.00  0.00    +0.000 A 
ATOM     37  C   UNL     1      77.079  62.757  81.378  0.00  0.00    +0.000 A 
ATOM     38  C   UNL     1      75.399  61.452  79.510  0.00  0.00    +0.000 A 
ATOM     39  C   UNL     1      76.211  61.740  81.783  0.00  0.00    +0.000 A 
ATOM     40  C   UNL     1      75.387  61.102  80.862  0.00  0.00    +0.000 A 
ATOM     41  H   UNL     1      76.010  62.737  77.042  0.00  0.00    +0.000 HD
ENDBRANCH  11  30
BRANCH   7  42
ATOM     42  O   UNL     1      75.197  66.645  73.890  0.00  0.00    +0.000 OA
ATOM     43  H   UNL     1      75.009  67.289  73.187  0.00  0.00    +0.000 HD
ENDBRANCH   7  42
TORSDOF 2
ENDMDL
MODEL 7
REMARK VINA RESULT:      -7.4     18.016     22.163
REMARK  Name = 6509753_ManzamineA.pdbqt.pdb
REMARK  2 active torsions:
REMARK  status: ('A' for Active; 'I' for Inactive)
REMARK    1  A    between atoms: C_7  and  O_42
REMARK    2  A    between atoms: C_11  and  C_30
REMARK                            x       y       z     vdW  Elec       q    Type
REMARK                         _______ _______ _______ _____ _____    ______ ____
ROOT
ATOM      1  N   UNL     1      54.722  56.265  86.834  0.00  0.00    +0.000 N 
ATOM      2  N   UNL     1      51.413  59.771  85.568  0.00  0.00    +0.000 N 
ATOM      3  C   UNL     1      52.577  57.154  85.824  0.00  0.00    +0.000 C 
ATOM      4  C   UNL     1      54.050  56.692  85.580  0.00  0.00    +0.000 C 
ATOM      5  C   UNL     1      51.416  56.518  84.952  0.00  0.00    +0.000 C 
ATOM      6  C   UNL     1      52.491  56.704  87.210  0.00  0.00    +0.000 C 
ATOM      7  C   UNL     1      54.384  55.925  84.298  0.00  0.00    +0.000 C 
ATOM      8  C   UNL     1      52.383  58.645  85.767  0.00  0.00    +0.000 C 
ATOM      9  C   UNL     1      53.688  56.399  87.885  0.00  0.00    +0.000 C 
ATOM     10  C   UNL     1      50.316  57.421  84.729  0.00  0.00    +0.000 C 
ATOM     11  C   UNL     1      51.803  55.591  83.898  0.00  0.00    +0.000 C 
ATOM     12  C   UNL     1      53.092  55.517  83.785  0.00  0.00    +0.000 C 
ATOM     13  C   UNL     1      50.356  58.931  84.984  0.00  0.00    +0.000 C 
ATOM     14  C   UNL     1      55.926  57.054  87.110  0.00  0.00    +0.000 C 
ATOM     15  C   UNL     1      55.159  56.764  83.388  0.00  0.00    +0.000 C 
ATOM     16  C   UNL     1      54.020  56.807  89.212  0.00  0.00    +0.000 C 
ATOM     17  C   UNL     1      51.941  60.633  84.523  0.00  0.00    +0.000 C 
ATOM     18  C   UNL     1      56.961  57.845  87.930  0.00  0.00    +0.000 C 
ATOM     19  C   UNL     1      55.826  57.757  82.434  0.00  0.00    +0.000 C 
ATOM     20  C   UNL     1      54.669  57.315  90.086  0.00  0.00    +0.000 C 
ATOM     21  C   UNL     1      57.068  58.299  89.385  0.00  0.00    +0.000 C 
ATOM     22  C   UNL     1      52.649  61.429  83.424  0.00  0.00    +0.000 C 
ATOM     23  C   UNL     1      55.979  58.032  90.417  0.00  0.00    +0.000 C 
ATOM     24  C   UNL     1      56.090  59.028  81.631  0.00  0.00    +0.000 C 
ATOM     25  C   UNL     1      53.665  61.782  82.341  0.00  0.00    +0.000 C 
ATOM     26  C   UNL     1      54.872  61.350  81.524  0.00  0.00    +0.000 C 
ATOM     27  C   UNL     1      55.787  60.150  81.345  0.00  0.00    +0.000 C 
ENDROOT
BRANCH  11  30
ATOM     28  N   UNL     1      50.429  53.718  83.199  0.00  0.00    +0.000 NA
ATOM     29  N   UNL     1      50.895  56.830  81.253  0.00  0.00    +0.000 N 
ATOM     30  C   UNL     1      50.912  54.953  82.939  0.00  0.00    +0.000 A 
ATOM     31  C   UNL     1      50.562  55.591  81.751  0.00  0.00    +0.000 A 
ATOM     32  C   UNL     1      49.722  54.987  80.815  0.00  0.00    +0.000 A 
ATOM     33  C   UNL     1      49.616  53.140  82.288  0.00  0.00    +0.000 A 
ATOM     34  C   UNL     1      49.222  53.703  81.083  0.00  0.00    +0.000 A 
ATOM     35  C   UNL     1      49.565  55.899  79.726  0.00  0.00    +0.000 A 
ATOM     36  C   UNL     1      50.307  57.039  80.028  0.00  0.00    +0.000 A 
ATOM     37  C   UNL     1      48.853  55.857  78.513  0.00  0.00    +0.000 A 
ATOM     38  C   UNL     1      50.379  58.148  79.180  0.00  0.00    +0.000 A 
ATOM     39  C   UNL     1      48.913  56.955  77.651  0.00  0.00    +0.000 A 
ATOM     40  C   UNL     1      49.663  58.078  77.983  0.00  0.00    +0.000 A 
ATOM     41  H   UNL     1      51.484  57.503  81.725  0.00  0.00    +0.000 HD
ENDBRANCH  11  30
BRANCH   7  42
ATOM     42  O   UNL     1      55.126  54.749  84.589  0.00  0.00    +0.000 OA
ATOM     43  H   UNL     1      54.587  54.006  84.270  0.00  0.00    +0.000 HD
ENDBRANCH   7  42
TORSDOF 2
ENDMDL
MODEL 8
REMARK VINA RESULT:      -7.3     25.583     30.760
REMARK  Name = 6509753_ManzamineA.pdbqt.pdb
REMARK  2 active torsions:
REMARK  status: ('A' for Active; 'I' for Inactive)
REMARK    1  A    between atoms: C_7  and  O_42
REMARK    2  A    between atoms: C_11  and  C_30
REMARK                            x       y       z     vdW  Elec       q    Type
REMARK                         _______ _______ _______ _____ _____    ______ ____
ROOT
ATOM      1  N   UNL     1      62.552  43.175  49.759  0.00  0.00    +0.000 N 
ATOM      2  N   UNL     1      66.387  43.834  52.875  0.00  0.00    +0.000 N 
ATOM      3  C   UNL     1      64.094  42.577  51.677  0.00  0.00    +0.000 C 
ATOM      4  C   UNL     1      62.733  43.206  51.233  0.00  0.00    +0.000 C 
ATOM      5  C   UNL     1      64.094  41.447  52.787  0.00  0.00    +0.000 C 
ATOM      6  C   UNL     1      64.452  42.025  50.373  0.00  0.00    +0.000 C 
ATOM      7  C   UNL     1      61.495  42.986  52.107  0.00  0.00    +0.000 C 
ATOM      8  C   UNL     1      65.129  43.586  52.097  0.00  0.00    +0.000 C 
ATOM      9  C   UNL     1      63.758  42.491  49.241  0.00  0.00    +0.000 C 
ATOM     10  C   UNL     1      65.289  41.445  53.593  0.00  0.00    +0.000 C 
ATOM     11  C   UNL     1      62.817  41.114  53.403  0.00  0.00    +0.000 C 
ATOM     12  C   UNL     1      61.875  41.902  52.990  0.00  0.00    +0.000 C 
ATOM     13  C   UNL     1      66.312  42.583  53.645  0.00  0.00    +0.000 C 
ATOM     14  C   UNL     1      62.368  44.516  49.199  0.00  0.00    +0.000 C 
ATOM     15  C   UNL     1      61.127  44.223  52.790  0.00  0.00    +0.000 C 
ATOM     16  C   UNL     1      64.352  42.863  47.998  0.00  0.00    +0.000 C 
ATOM     17  C   UNL     1      66.138  44.944  53.779  0.00  0.00    +0.000 C 
ATOM     18  C   UNL     1      62.525  45.689  48.214  0.00  0.00    +0.000 C 
ATOM     19  C   UNL     1      60.907  45.511  53.585  0.00  0.00    +0.000 C 
ATOM     20  C   UNL     1      64.609  43.567  47.059  0.00  0.00    +0.000 C 
ATOM     21  C   UNL     1      63.350  45.937  46.952  0.00  0.00    +0.000 C 
ATOM     22  C   UNL     1      65.706  46.127  54.651  0.00  0.00    +0.000 C 
ATOM     23  C   UNL     1      64.334  44.916  46.393  0.00  0.00    +0.000 C 
ATOM     24  C   UNL     1      61.189  46.733  54.455  0.00  0.00    +0.000 C 
ATOM     25  C   UNL     1      64.803  47.171  55.300  0.00  0.00    +0.000 C 
ATOM     26  C   UNL     1      63.395  47.714  55.482  0.00  0.00    +0.000 C 
ATOM     27  C   UNL     1      61.969  47.418  55.052  0.00  0.00    +0.000 C 
ENDROOT
BRANCH  11  30
ATOM     28  N   UNL     1      62.128  40.609  55.673  0.00  0.00    +0.000 NA
ATOM     29  N   UNL     1      63.361  38.108  53.241  0.00  0.00    +0.000 N 
ATOM     30  C   UNL     1      62.602  40.166  54.487  0.00  0.00    +0.000 A 
ATOM     31  C   UNL     1      62.890  38.813  54.325  0.00  0.00    +0.000 A 
ATOM     32  C   UNL     1      62.704  37.895  55.360  0.00  0.00    +0.000 A 
ATOM     33  C   UNL     1      61.950  39.714  56.670  0.00  0.00    +0.000 A 
ATOM     34  C   UNL     1      62.215  38.354  56.593  0.00  0.00    +0.000 A 
ATOM     35  C   UNL     1      63.087  36.609  54.867  0.00  0.00    +0.000 A 
ATOM     36  C   UNL     1      63.492  36.774  53.544  0.00  0.00    +0.000 A 
ATOM     37  C   UNL     1      63.122  35.320  55.430  0.00  0.00    +0.000 A 
ATOM     38  C   UNL     1      63.932  35.714  52.745  0.00  0.00    +0.000 A 
ATOM     39  C   UNL     1      63.560  34.248  54.648  0.00  0.00    +0.000 A 
ATOM     40  C   UNL     1      63.956  34.446  53.330  0.00  0.00    +0.000 A 
ATOM     41  H   UNL     1      63.573  38.511  52.338  0.00  0.00    +0.000 HD
ENDBRANCH  11  30
BRANCH   7  42
ATOM     42  O   UNL     1      60.395  42.543  51.325  0.00  0.00    +0.000 OA
ATOM     43  H   UNL     1      60.308  43.182  50.598  0.00  0.00    +0.000 HD
ENDBRANCH   7  42
TORSDOF 2
ENDMDL
MODEL 9
REMARK VINA RESULT:      -7.3     17.149     21.576
REMARK  Name = 6509753_ManzamineA.pdbqt.pdb
REMARK  2 active torsions:
REMARK  status: ('A' for Active; 'I' for Inactive)
REMARK    1  A    between atoms: C_7  and  O_42
REMARK    2  A    between atoms: C_11  and  C_30
REMARK                            x       y       z     vdW  Elec       q    Type
REMARK                         _______ _______ _______ _____ _____    ______ ____
ROOT
ATOM      1  N   UNL     1      55.318  60.294  83.733  0.00  0.00    +0.000 N 
ATOM      2  N   UNL     1      50.583  60.232  85.290  0.00  0.00    +0.000 N 
ATOM      3  C   UNL     1      53.215  59.247  84.678  0.00  0.00    +0.000 C 
ATOM      4  C   UNL     1      54.103  59.499  83.416  0.00  0.00    +0.000 C 
ATOM      5  C   UNL     1      52.775  57.765  85.026  0.00  0.00    +0.000 C 
ATOM      6  C   UNL     1      54.175  59.748  85.657  0.00  0.00    +0.000 C 
ATOM      7  C   UNL     1      54.230  58.393  82.365  0.00  0.00    +0.000 C 
ATOM      8  C   UNL     1      51.965  60.084  84.727  0.00  0.00    +0.000 C 
ATOM      9  C   UNL     1      55.255  60.521  85.194  0.00  0.00    +0.000 C 
ATOM     10  C   UNL     1      51.494  57.694  85.682  0.00  0.00    +0.000 C 
ATOM     11  C   UNL     1      53.155  56.717  84.089  0.00  0.00    +0.000 C 
ATOM     12  C   UNL     1      53.728  57.211  83.037  0.00  0.00    +0.000 C 
ATOM     13  C   UNL     1      50.481  58.840  85.753  0.00  0.00    +0.000 C 
ATOM     14  C   UNL     1      55.379  61.537  82.960  0.00  0.00    +0.000 C 
ATOM     15  C   UNL     1      53.503  58.755  81.153  0.00  0.00    +0.000 C 
ATOM     16  C   UNL     1      55.717  61.737  85.781  0.00  0.00    +0.000 C 
ATOM     17  C   UNL     1      49.666  60.412  84.176  0.00  0.00    +0.000 C 
ATOM     18  C   UNL     1      55.620  63.029  82.668  0.00  0.00    +0.000 C 
ATOM     19  C   UNL     1      52.590  59.140  79.987  0.00  0.00    +0.000 C 
ATOM     20  C   UNL     1      56.030  62.896  85.829  0.00  0.00    +0.000 C 
ATOM     21  C   UNL     1      56.008  64.246  83.506  0.00  0.00    +0.000 C 
ATOM     22  C   UNL     1      48.853  60.601  82.893  0.00  0.00    +0.000 C 
ATOM     23  C   UNL     1      56.219  64.177  85.015  0.00  0.00    +0.000 C 
ATOM     24  C   UNL     1      51.358  59.604  79.213  0.00  0.00    +0.000 C 
ATOM     25  C   UNL     1      48.522  60.660  81.405  0.00  0.00    +0.000 C 
ATOM     26  C   UNL     1      48.999  60.462  79.976  0.00  0.00    +0.000 C 
ATOM     27  C   UNL     1      50.233  60.013  79.212  0.00  0.00    +0.000 C 
ENDROOT
BRANCH  11  30
ATOM     28  N   UNL     1      53.484  54.495  85.005  0.00  0.00    +0.000 NA
ATOM     29  N   UNL     1      50.903  55.382  82.507  0.00  0.00    +0.000 N 
ATOM     30  C   UNL     1      52.794  55.309  84.175  0.00  0.00    +0.000 A 
ATOM     31  C   UNL     1      51.758  54.785  83.405  0.00  0.00    +0.000 A 
ATOM     32  C   UNL     1      51.411  53.435  83.464  0.00  0.00    +0.000 A 
ATOM     33  C   UNL     1      53.142  53.189  85.058  0.00  0.00    +0.000 A 
ATOM     34  C   UNL     1      52.129  52.588  84.324  0.00  0.00    +0.000 A 
ATOM     35  C   UNL     1      50.321  53.231  82.563  0.00  0.00    +0.000 A 
ATOM     36  C   UNL     1      50.026  54.463  81.982  0.00  0.00    +0.000 A 
ATOM     37  C   UNL     1      49.556  52.109  82.194  0.00  0.00    +0.000 A 
ATOM     38  C   UNL     1      49.003  54.637  81.045  0.00  0.00    +0.000 A 
ATOM     39  C   UNL     1      48.530  52.263  81.259  0.00  0.00    +0.000 A 
ATOM     40  C   UNL     1      48.261  53.506  80.698  0.00  0.00    +0.000 A 
ATOM     41  H   UNL     1      50.909  56.365  82.270  0.00  0.00    +0.000 HD
ENDBRANCH  11  30
BRANCH   7  42
ATOM     42  O   UNL     1      55.592  58.159  82.038  0.00  0.00    +0.000 OA
ATOM     43  H   UNL     1      55.630  57.260  81.671  0.00  0.00    +0.000 HD
ENDBRANCH   7  42
TORSDOF 2
ENDMDL
