MODEL 1
REMARK VINA RESULT:      -4.3      0.000      0.000
REMARK  Name = 67499_Pyrazolo.pdbqt.pdb
REMARK  0 active torsions:
REMARK  status: ('A' for Active; 'I' for Inactive)
REMARK                            x       y       z     vdW  Elec       q    Type
REMARK                         _______ _______ _______ _____ _____    ______ ____
ROOT
ATOM      1  N   UNL     1      60.578  37.913  57.233  0.00  0.00    +0.000 N 
ATOM      2  N   UNL     1      59.835  38.807  56.546  0.00  0.00    +0.000 NA
ATOM      3  N   UNL     1      62.599  36.602  56.977  0.00  0.00    +0.000 NA
ATOM      4  N   UNL     1      63.650  36.980  54.829  0.00  0.00    +0.000 NA
ATOM      5  C   UNL     1      61.657  38.137  55.340  0.00  0.00    +0.000 A 
ATOM      6  C   UNL     1      61.680  37.482  56.554  0.00  0.00    +0.000 A 
ATOM      7  C   UNL     1      60.502  38.937  55.391  0.00  0.00    +0.000 A 
ATOM      8  C   UNL     1      62.690  37.863  54.456  0.00  0.00    +0.000 A 
ATOM      9  C   UNL     1      63.554  36.408  56.047  0.00  0.00    +0.000 A 
ATOM     10  H   UNL     1      60.284  37.635  58.162  0.00  0.00    +0.000 HD
ENDROOT
TORSDOF 0
ENDMDL
MODEL 2
REMARK VINA RESULT:      -3.9      1.563      2.980
REMARK  Name = 67499_Pyrazolo.pdbqt.pdb
REMARK  0 active torsions:
REMARK  status: ('A' for Active; 'I' for Inactive)
REMARK                            x       y       z     vdW  Elec       q    Type
REMARK                         _______ _______ _______ _____ _____    ______ ____
ROOT
ATOM      1  N   UNL     1      63.275  37.321  56.175  0.00  0.00    +0.000 N 
ATOM      2  N   UNL     1      62.470  36.760  57.103  0.00  0.00    +0.000 NA
ATOM      3  N   UNL     1      63.138  38.783  54.249  0.00  0.00    +0.000 NA
ATOM      4  N   UNL     1      60.861  39.484  53.812  0.00  0.00    +0.000 NA
ATOM      5  C   UNL     1      61.280  38.049  55.640  0.00  0.00    +0.000 A 
ATOM      6  C   UNL     1      62.609  38.103  55.276  0.00  0.00    +0.000 A 
ATOM      7  C   UNL     1      61.253  37.210  56.768  0.00  0.00    +0.000 A 
ATOM      8  C   UNL     1      60.385  38.775  54.865  0.00  0.00    +0.000 A 
ATOM      9  C   UNL     1      62.187  39.450  53.565  0.00  0.00    +0.000 A 
ATOM     10  H   UNL     1      64.270  37.135  56.206  0.00  0.00    +0.000 HD
ENDROOT
TORSDOF 0
ENDMDL
MODEL 3
REMARK VINA RESULT:      -3.9     12.936     13.822
REMARK  Name = 67499_Pyrazolo.pdbqt.pdb
REMARK  0 active torsions:
REMARK  status: ('A' for Active; 'I' for Inactive)
REMARK                            x       y       z     vdW  Elec       q    Type
REMARK                         _______ _______ _______ _____ _____    ______ ____
ROOT
ATOM      1  N   UNL     1      60.128  40.072  71.175  0.00  0.00    +0.000 N 
ATOM      2  N   UNL     1      58.874  39.650  70.903  0.00  0.00    +0.000 NA
ATOM      3  N   UNL     1      62.216  40.520  70.034  0.00  0.00    +0.000 NA
ATOM      4  N   UNL     1      62.052  40.090  67.656  0.00  0.00    +0.000 NA
ATOM      5  C   UNL     1      60.152  39.733  69.011  0.00  0.00    +0.000 A 
ATOM      6  C   UNL     1      60.932  40.139  70.074  0.00  0.00    +0.000 A 
ATOM      7  C   UNL     1      58.899  39.445  69.579  0.00  0.00    +0.000 A 
ATOM      8  C   UNL     1      60.754  39.714  67.761  0.00  0.00    +0.000 A 
ATOM      9  C   UNL     1      62.701  40.466  68.778  0.00  0.00    +0.000 A 
ATOM     10  H   UNL     1      60.376  40.301  72.130  0.00  0.00    +0.000 HD
ENDROOT
TORSDOF 0
ENDMDL
MODEL 4
REMARK VINA RESULT:      -3.7      1.669      2.244
REMARK  Name = 67499_Pyrazolo.pdbqt.pdb
REMARK  0 active torsions:
REMARK  status: ('A' for Active; 'I' for Inactive)
REMARK                            x       y       z     vdW  Elec       q    Type
REMARK                         _______ _______ _______ _____ _____    ______ ____
ROOT
ATOM      1  N   UNL     1      62.479  36.253  57.230  0.00  0.00    +0.000 N 
ATOM      2  N   UNL     1      62.250  37.581  57.321  0.00  0.00    +0.000 NA
ATOM      3  N   UNL     1      63.209  34.609  55.608  0.00  0.00    +0.000 NA
ATOM      4  N   UNL     1      63.694  35.618  53.461  0.00  0.00    +0.000 NA
ATOM      5  C   UNL     1      62.960  37.000  55.229  0.00  0.00    +0.000 A 
ATOM      6  C   UNL     1      62.905  35.856  55.996  0.00  0.00    +0.000 A 
ATOM      7  C   UNL     1      62.547  38.029  56.094  0.00  0.00    +0.000 A 
ATOM      8  C   UNL     1      63.373  36.856  53.912  0.00  0.00    +0.000 A 
ATOM      9  C   UNL     1      63.597  34.581  54.318  0.00  0.00    +0.000 A 
ATOM     10  H   UNL     1      62.326  35.667  58.043  0.00  0.00    +0.000 HD
ENDROOT
TORSDOF 0
ENDMDL
MODEL 5
REMARK VINA RESULT:      -3.7      9.703     10.160
REMARK  Name = 67499_Pyrazolo.pdbqt.pdb
REMARK  0 active torsions:
REMARK  status: ('A' for Active; 'I' for Inactive)
REMARK                            x       y       z     vdW  Elec       q    Type
REMARK                         _______ _______ _______ _____ _____    ______ ____
ROOT
ATOM      1  N   UNL     1      51.410  36.570  59.066  0.00  0.00    +0.000 N 
ATOM      2  N   UNL     1      50.824  37.468  58.245  0.00  0.00    +0.000 NA
ATOM      3  N   UNL     1      52.752  34.557  58.947  0.00  0.00    +0.000 NA
ATOM      4  N   UNL     1      53.210  33.916  56.657  0.00  0.00    +0.000 NA
ATOM      5  C   UNL     1      51.917  35.850  57.061  0.00  0.00    +0.000 A 
ATOM      6  C   UNL     1      52.078  35.581  58.404  0.00  0.00    +0.000 A 
ATOM      7  C   UNL     1      51.139  37.020  57.023  0.00  0.00    +0.000 A 
ATOM      8  C   UNL     1      52.514  34.971  56.167  0.00  0.00    +0.000 A 
ATOM      9  C   UNL     1      53.290  33.768  57.996  0.00  0.00    +0.000 A 
ATOM     10  H   UNL     1      51.321  36.684  60.069  0.00  0.00    +0.000 HD
ENDROOT
TORSDOF 0
ENDMDL
MODEL 6
REMARK VINA RESULT:      -3.6     10.868     11.921
REMARK  Name = 67499_Pyrazolo.pdbqt.pdb
REMARK  0 active torsions:
REMARK  status: ('A' for Active; 'I' for Inactive)
REMARK                            x       y       z     vdW  Elec       q    Type
REMARK                         _______ _______ _______ _____ _____    ______ ____
ROOT
ATOM      1  N   UNL     1      63.134  37.785  66.716  0.00  0.00    +0.000 N 
ATOM      2  N   UNL     1      62.214  37.254  65.881  0.00  0.00    +0.000 NA
ATOM      3  N   UNL     1      63.347  39.572  68.337  0.00  0.00    +0.000 NA
ATOM      4  N   UNL     1      61.290  40.829  68.565  0.00  0.00    +0.000 NA
ATOM      5  C   UNL     1      61.358  39.024  67.045  0.00  0.00    +0.000 A 
ATOM      6  C   UNL     1      62.669  38.847  67.435  0.00  0.00    +0.000 A 
ATOM      7  C   UNL     1      61.133  38.018  66.089  0.00  0.00    +0.000 A 
ATOM      8  C   UNL     1      60.657  40.061  67.644  0.00  0.00    +0.000 A 
ATOM      9  C   UNL     1      62.577  40.548  68.856  0.00  0.00    +0.000 A 
ATOM     10  H   UNL     1      64.062  37.380  66.752  0.00  0.00    +0.000 HD
ENDROOT
TORSDOF 0
ENDMDL
MODEL 7
REMARK VINA RESULT:      -3.5     30.384     31.394
REMARK  Name = 67499_Pyrazolo.pdbqt.pdb
REMARK  0 active torsions:
REMARK  status: ('A' for Active; 'I' for Inactive)
REMARK                            x       y       z     vdW  Elec       q    Type
REMARK                         _______ _______ _______ _____ _____    ______ ____
ROOT
ATOM      1  N   UNL     1      50.083  50.738  83.822  0.00  0.00    +0.000 N 
ATOM      2  N   UNL     1      49.316  51.571  83.084  0.00  0.00    +0.000 NA
ATOM      3  N   UNL     1      51.092  48.541  83.680  0.00  0.00    +0.000 NA
ATOM      4  N   UNL     1      50.598  47.459  81.570  0.00  0.00    +0.000 NA
ATOM      5  C   UNL     1      49.733  49.619  81.972  0.00  0.00    +0.000 A 
ATOM      6  C   UNL     1      50.360  49.556  83.199  0.00  0.00    +0.000 A 
ATOM      7  C   UNL     1      49.108  50.879  81.956  0.00  0.00    +0.000 A 
ATOM      8  C   UNL     1      49.869  48.518  81.138  0.00  0.00    +0.000 A 
ATOM      9  C   UNL     1      51.159  47.527  82.795  0.00  0.00    +0.000 A 
ATOM     10  H   UNL     1      50.386  51.031  84.743  0.00  0.00    +0.000 HD
ENDROOT
TORSDOF 0
ENDMDL
MODEL 8
REMARK VINA RESULT:      -3.5     13.588     14.623
REMARK  Name = 67499_Pyrazolo.pdbqt.pdb
REMARK  0 active torsions:
REMARK  status: ('A' for Active; 'I' for Inactive)
REMARK                            x       y       z     vdW  Elec       q    Type
REMARK                         _______ _______ _______ _____ _____    ______ ____
ROOT
ATOM      1  N   UNL     1      60.673  39.793  71.939  0.00  0.00    +0.000 N 
ATOM      2  N   UNL     1      61.841  39.416  72.502  0.00  0.00    +0.000 NA
ATOM      3  N   UNL     1      59.690  40.097  69.746  0.00  0.00    +0.000 NA
ATOM      4  N   UNL     1      61.258  39.571  67.977  0.00  0.00    +0.000 NA
ATOM      5  C   UNL     1      61.961  39.359  70.221  0.00  0.00    +0.000 A 
ATOM      6  C   UNL     1      60.694  39.775  70.574  0.00  0.00    +0.000 A 
ATOM      7  C   UNL     1      62.622  39.153  71.445  0.00  0.00    +0.000 A 
ATOM      8  C   UNL     1      62.235  39.259  68.865  0.00  0.00    +0.000 A 
ATOM      9  C   UNL     1      60.061  39.965  68.457  0.00  0.00    +0.000 A 
ATOM     10  H   UNL     1      59.896  40.051  72.536  0.00  0.00    +0.000 HD
ENDROOT
TORSDOF 0
ENDMDL
MODEL 9
REMARK VINA RESULT:      -3.4     52.750     53.186
REMARK  Name = 67499_Pyrazolo.pdbqt.pdb
REMARK  0 active torsions:
REMARK  status: ('A' for Active; 'I' for Inactive)
REMARK                            x       y       z     vdW  Elec       q    Type
REMARK                         _______ _______ _______ _____ _____    ______ ____
ROOT
ATOM      1  N   UNL     1      74.385  80.164  85.057  0.00  0.00    +0.000 N 
ATOM      2  N   UNL     1      74.321  81.513  85.081  0.00  0.00    +0.000 NA
ATOM      3  N   UNL     1      76.002  78.396  84.705  0.00  0.00    +0.000 NA
ATOM      4  N   UNL     1      78.212  79.276  84.250  0.00  0.00    +0.000 NA
ATOM      5  C   UNL     1      76.441  80.789  84.632  0.00  0.00    +0.000 A 
ATOM      6  C   UNL     1      75.634  79.682  84.792  0.00  0.00    +0.000 A 
ATOM      7  C   UNL     1      75.581  81.886  84.821  0.00  0.00    +0.000 A 
ATOM      8  C   UNL     1      77.780  80.557  84.350  0.00  0.00    +0.000 A 
ATOM      9  C   UNL     1      77.316  78.283  84.429  0.00  0.00    +0.000 A 
ATOM     10  H   UNL     1      73.544  79.625  85.229  0.00  0.00    +0.000 HD
ENDROOT
TORSDOF 0
ENDMDL
