MODEL 1
REMARK VINA RESULT:      -5.0      0.000      0.000
REMARK  Name = 71369791_5FluoroDione.pdbqt.pdb
REMARK  1 active torsions:
REMARK  status: ('A' for Active; 'I' for Inactive)
REMARK    1  A    between atoms: N_4  and  C_12
REMARK                            x       y       z     vdW  Elec       q    Type
REMARK                         _______ _______ _______ _____ _____    ______ ____
ROOT
ATOM      1  F   UNL     1      53.743  33.082  56.793  0.00  0.00    +0.000 F 
ATOM      2  O   UNL     1      50.641  37.485  57.598  0.00  0.00    +0.000 OA
ATOM      3  O   UNL     1      52.920  34.779  54.679  0.00  0.00    +0.000 OA
ATOM      4  N   UNL     1      51.524  35.479  58.482  0.00  0.00    +0.000 N 
ATOM      5  N   UNL     1      51.718  36.032  56.194  0.00  0.00    +0.000 N 
ATOM      6  C   UNL     1      52.201  34.367  58.133  0.00  0.00    +0.000 C 
ATOM      7  C   UNL     1      52.701  33.922  56.904  0.00  0.00    +0.000 C 
ATOM      8  C   UNL     1      51.234  36.419  57.467  0.00  0.00    +0.000 C 
ATOM      9  C   UNL     1      52.473  34.913  55.811  0.00  0.00    +0.000 C 
ATOM     10  H   UNL     1      51.557  36.711  55.463  0.00  0.00    +0.000 HD
ENDROOT
BRANCH   4  12
ATOM     11  O   UNL     1      52.083  35.906  60.806  0.00  0.00    +0.000 OA
ATOM     12  C   UNL     1      51.158  35.641  59.788  0.00  0.00    +0.000 C 
ATOM     13  C   UNL     1      49.864  35.582  60.370  0.00  0.00    +0.000 C 
ATOM     14  C   UNL     1      49.632  35.787  61.868  0.00  0.00    +0.000 C 
ATOM     15  C   UNL     1      51.147  35.946  61.762  0.00  0.00    +0.000 C 
ENDBRANCH   4  12
TORSDOF 1
ENDMDL
MODEL 2
REMARK VINA RESULT:      -4.6     16.374     18.150
REMARK  Name = 71369791_5FluoroDione.pdbqt.pdb
REMARK  1 active torsions:
REMARK  status: ('A' for Active; 'I' for Inactive)
REMARK    1  A    between atoms: N_4  and  C_12
REMARK                            x       y       z     vdW  Elec       q    Type
REMARK                         _______ _______ _______ _____ _____    ______ ____
ROOT
ATOM      1  F   UNL     1      44.027  40.312  74.377  0.00  0.00    +0.000 F 
ATOM      2  O   UNL     1      47.199  44.723  73.990  0.00  0.00    +0.000 OA
ATOM      3  O   UNL     1      45.610  41.251  76.531  0.00  0.00    +0.000 OA
ATOM      4  N   UNL     1      45.889  43.104  72.872  0.00  0.00    +0.000 N 
ATOM      5  N   UNL     1      46.437  42.909  75.161  0.00  0.00    +0.000 N 
ATOM      6  C   UNL     1      45.232  41.944  73.068  0.00  0.00    +0.000 C 
ATOM      7  C   UNL     1      45.072  41.137  74.200  0.00  0.00    +0.000 C 
ATOM      8  C   UNL     1      46.562  43.674  73.977  0.00  0.00    +0.000 C 
ATOM      9  C   UNL     1      45.715  41.732  75.409  0.00  0.00    +0.000 C 
ATOM     10  H   UNL     1      46.876  43.321  75.972  0.00  0.00    +0.000 HD
ENDROOT
BRANCH   4  12
ATOM     11  O   UNL     1      44.783  44.415  71.152  0.00  0.00    +0.000 OA
ATOM     12  C   UNL     1      45.868  43.668  71.627  0.00  0.00    +0.000 C 
ATOM     13  C   UNL     1      46.859  43.628  70.611  0.00  0.00    +0.000 C 
ATOM     14  C   UNL     1      46.670  44.320  69.259  0.00  0.00    +0.000 C 
ATOM     15  C   UNL     1      45.358  44.655  69.968  0.00  0.00    +0.000 C 
ENDBRANCH   4  12
TORSDOF 1
ENDMDL
MODEL 3
REMARK VINA RESULT:      -4.6     27.539     28.915
REMARK  Name = 71369791_5FluoroDione.pdbqt.pdb
REMARK  1 active torsions:
REMARK  status: ('A' for Active; 'I' for Inactive)
REMARK    1  A    between atoms: N_4  and  C_12
REMARK                            x       y       z     vdW  Elec       q    Type
REMARK                         _______ _______ _______ _____ _____    ______ ____
ROOT
ATOM      1  F   UNL     1      51.915  49.798  85.711  0.00  0.00    +0.000 F 
ATOM      2  O   UNL     1      49.566  48.469  80.981  0.00  0.00    +0.000 OA
ATOM      3  O   UNL     1      52.441  47.355  84.375  0.00  0.00    +0.000 OA
ATOM      4  N   UNL     1      49.601  49.909  82.854  0.00  0.00    +0.000 N 
ATOM      5  N   UNL     1      50.907  47.942  82.760  0.00  0.00    +0.000 N 
ATOM      6  C   UNL     1      50.168  50.067  84.066  0.00  0.00    +0.000 C 
ATOM      7  C   UNL     1      51.092  49.292  84.777  0.00  0.00    +0.000 C 
ATOM      8  C   UNL     1      49.967  48.771  82.099  0.00  0.00    +0.000 C 
ATOM      9  C   UNL     1      51.556  48.110  83.992  0.00  0.00    +0.000 C 
ATOM     10  H   UNL     1      51.213  47.146  82.219  0.00  0.00    +0.000 HD
ENDROOT
BRANCH   4  12
ATOM     11  O   UNL     1      47.330  50.732  82.608  0.00  0.00    +0.000 OA
ATOM     12  C   UNL     1      48.712  50.850  82.418  0.00  0.00    +0.000 C 
ATOM     13  C   UNL     1      48.963  52.065  81.727  0.00  0.00    +0.000 C 
ATOM     14  C   UNL     1      47.837  53.012  81.306  0.00  0.00    +0.000 C 
ATOM     15  C   UNL     1      47.061  51.891  81.994  0.00  0.00    +0.000 C 
ENDBRANCH   4  12
TORSDOF 1
ENDMDL
MODEL 4
REMARK VINA RESULT:      -4.6     11.055     12.403
REMARK  Name = 71369791_5FluoroDione.pdbqt.pdb
REMARK  1 active torsions:
REMARK  status: ('A' for Active; 'I' for Inactive)
REMARK    1  A    between atoms: N_4  and  C_12
REMARK                            x       y       z     vdW  Elec       q    Type
REMARK                         _______ _______ _______ _____ _____    ______ ____
ROOT
ATOM      1  F   UNL     1      63.795  40.411  53.689  0.00  0.00    +0.000 F 
ATOM      2  O   UNL     1      61.232  37.262  57.319  0.00  0.00    +0.000 OA
ATOM      3  O   UNL     1      61.494  41.268  55.103  0.00  0.00    +0.000 OA
ATOM      4  N   UNL     1      62.830  37.410  55.583  0.00  0.00    +0.000 N 
ATOM      5  N   UNL     1      61.372  39.195  56.101  0.00  0.00    +0.000 N 
ATOM      6  C   UNL     1      63.303  38.246  54.639  0.00  0.00    +0.000 C 
ATOM      7  C   UNL     1      62.948  39.552  54.280  0.00  0.00    +0.000 C 
ATOM      8  C   UNL     1      61.779  37.874  56.407  0.00  0.00    +0.000 C 
ATOM      9  C   UNL     1      61.883  40.108  55.166  0.00  0.00    +0.000 C 
ATOM     10  H   UNL     1      60.650  39.560  56.706  0.00  0.00    +0.000 HD
ENDROOT
BRANCH   4  12
ATOM     11  O   UNL     1      64.756  35.967  55.906  0.00  0.00    +0.000 OA
ATOM     12  C   UNL     1      63.386  36.167  55.697  0.00  0.00    +0.000 C 
ATOM     13  C   UNL     1      62.757  34.896  55.634  0.00  0.00    +0.000 C 
ATOM     14  C   UNL     1      63.540  33.589  55.781  0.00  0.00    +0.000 C 
ATOM     15  C   UNL     1      64.646  34.634  55.922  0.00  0.00    +0.000 C 
ENDBRANCH   4  12
TORSDOF 1
ENDMDL
MODEL 5
REMARK VINA RESULT:      -4.4     15.120     16.571
REMARK  Name = 71369791_5FluoroDione.pdbqt.pdb
REMARK  1 active torsions:
REMARK  status: ('A' for Active; 'I' for Inactive)
REMARK    1  A    between atoms: N_4  and  C_12
REMARK                            x       y       z     vdW  Elec       q    Type
REMARK                         _______ _______ _______ _____ _____    ______ ____
ROOT
ATOM      1  F   UNL     1      65.519  37.480  68.418  0.00  0.00    +0.000 F 
ATOM      2  O   UNL     1      63.184  42.154  69.956  0.00  0.00    +0.000 OA
ATOM      3  O   UNL     1      66.984  39.881  68.761  0.00  0.00    +0.000 OA
ATOM      4  N   UNL     1      62.894  39.943  69.173  0.00  0.00    +0.000 N 
ATOM      5  N   UNL     1      65.018  40.975  69.255  0.00  0.00    +0.000 N 
ATOM      6  C   UNL     1      63.575  38.885  68.689  0.00  0.00    +0.000 C 
ATOM      7  C   UNL     1      64.935  38.690  68.421  0.00  0.00    +0.000 C 
ATOM      8  C   UNL     1      63.629  41.106  69.498  0.00  0.00    +0.000 C 
ATOM      9  C   UNL     1      65.760  39.872  68.808  0.00  0.00    +0.000 C 
ATOM     10  H   UNL     1      65.565  41.781  69.520  0.00  0.00    +0.000 HD
ENDROOT
BRANCH   4  12
ATOM     11  O   UNL     1      60.895  40.087  70.544  0.00  0.00    +0.000 OA
ATOM     12  C   UNL     1      61.541  39.837  69.327  0.00  0.00    +0.000 C 
ATOM     13  C   UNL     1      60.557  39.476  68.369  0.00  0.00    +0.000 C 
ATOM     14  C   UNL     1      59.068  39.404  68.715  0.00  0.00    +0.000 C 
ATOM     15  C   UNL     1      59.679  39.824  70.051  0.00  0.00    +0.000 C 
ENDBRANCH   4  12
TORSDOF 1
ENDMDL
MODEL 6
REMARK VINA RESULT:      -4.4     14.108     15.913
REMARK  Name = 71369791_5FluoroDione.pdbqt.pdb
REMARK  1 active torsions:
REMARK  status: ('A' for Active; 'I' for Inactive)
REMARK    1  A    between atoms: N_4  and  C_12
REMARK                            x       y       z     vdW  Elec       q    Type
REMARK                         _______ _______ _______ _____ _____    ______ ____
ROOT
ATOM      1  F   UNL     1      59.155  36.633  72.133  0.00  0.00    +0.000 F 
ATOM      2  O   UNL     1      61.718  40.883  69.891  0.00  0.00    +0.000 OA
ATOM      3  O   UNL     1      59.727  39.006  73.572  0.00  0.00    +0.000 OA
ATOM      4  N   UNL     1      61.100  38.609  69.717  0.00  0.00    +0.000 N 
ATOM      5  N   UNL     1      60.797  39.840  71.710  0.00  0.00    +0.000 N 
ATOM      6  C   UNL     1      60.556  37.595  70.418  0.00  0.00    +0.000 C 
ATOM      7  C   UNL     1      60.090  37.511  71.736  0.00  0.00    +0.000 C 
ATOM      8  C   UNL     1      61.255  39.853  70.370  0.00  0.00    +0.000 C 
ATOM      9  C   UNL     1      60.176  38.821  72.447  0.00  0.00    +0.000 C 
ATOM     10  H   UNL     1      60.861  40.732  72.181  0.00  0.00    +0.000 HD
ENDROOT
BRANCH   4  12
ATOM     11  O   UNL     1      62.724  37.875  68.067  0.00  0.00    +0.000 OA
ATOM     12  C   UNL     1      61.468  38.385  68.420  0.00  0.00    +0.000 C 
ATOM     13  C   UNL     1      60.727  38.603  67.229  0.00  0.00    +0.000 C 
ATOM     14  C   UNL     1      61.299  38.297  65.844  0.00  0.00    +0.000 C 
ATOM     15  C   UNL     1      62.458  37.899  66.755  0.00  0.00    +0.000 C 
ENDBRANCH   4  12
TORSDOF 1
ENDMDL
MODEL 7
REMARK VINA RESULT:      -4.4     13.978     15.157
REMARK  Name = 71369791_5FluoroDione.pdbqt.pdb
REMARK  1 active torsions:
REMARK  status: ('A' for Active; 'I' for Inactive)
REMARK    1  A    between atoms: N_4  and  C_12
REMARK                            x       y       z     vdW  Elec       q    Type
REMARK                         _______ _______ _______ _____ _____    ______ ____
ROOT
ATOM      1  F   UNL     1      52.796  43.335  72.087  0.00  0.00    +0.000 F 
ATOM      2  O   UNL     1      48.785  40.204  70.144  0.00  0.00    +0.000 OA
ATOM      3  O   UNL     1      53.227  40.686  71.178  0.00  0.00    +0.000 OA
ATOM      4  N   UNL     1      49.396  42.173  71.299  0.00  0.00    +0.000 N 
ATOM      5  N   UNL     1      50.967  40.487  70.778  0.00  0.00    +0.000 N 
ATOM      6  C   UNL     1      50.453  42.800  71.852  0.00  0.00    +0.000 C 
ATOM      7  C   UNL     1      51.801  42.440  71.968  0.00  0.00    +0.000 C 
ATOM      8  C   UNL     1      49.618  40.912  70.700  0.00  0.00    +0.000 C 
ATOM      9  C   UNL     1      52.096  41.141  71.293  0.00  0.00    +0.000 C 
ATOM     10  H   UNL     1      51.154  39.607  70.318  0.00  0.00    +0.000 HD
ENDROOT
BRANCH   4  12
ATOM     11  O   UNL     1      47.622  43.450  70.241  0.00  0.00    +0.000 OA
ATOM     12  C   UNL     1      48.175  42.785  71.342  0.00  0.00    +0.000 C 
ATOM     13  C   UNL     1      47.260  42.881  72.424  0.00  0.00    +0.000 C 
ATOM     14  C   UNL     1      45.923  43.613  72.299  0.00  0.00    +0.000 C 
ATOM     15  C   UNL     1      46.510  43.794  70.900  0.00  0.00    +0.000 C 
ENDBRANCH   4  12
TORSDOF 1
ENDMDL
MODEL 8
REMARK VINA RESULT:      -4.4     56.262     57.060
REMARK  Name = 71369791_5FluoroDione.pdbqt.pdb
REMARK  1 active torsions:
REMARK  status: ('A' for Active; 'I' for Inactive)
REMARK    1  A    between atoms: N_4  and  C_12
REMARK                            x       y       z     vdW  Elec       q    Type
REMARK                         _______ _______ _______ _____ _____    ______ ____
ROOT
ATOM      1  F   UNL     1      76.839  78.422  85.054  0.00  0.00    +0.000 F 
ATOM      2  O   UNL     1      74.709  82.345  81.934  0.00  0.00    +0.000 OA
ATOM      3  O   UNL     1      74.844  80.205  85.988  0.00  0.00    +0.000 OA
ATOM      4  N   UNL     1      76.410  80.730  82.223  0.00  0.00    +0.000 N 
ATOM      5  N   UNL     1      74.906  81.290  83.956  0.00  0.00    +0.000 N 
ATOM      6  C   UNL     1      76.925  79.875  83.127  0.00  0.00    +0.000 C 
ATOM      7  C   UNL     1      76.582  79.597  84.456  0.00  0.00    +0.000 C 
ATOM      8  C   UNL     1      75.310  81.525  82.619  0.00  0.00    +0.000 C 
ATOM      9  C   UNL     1      75.384  80.369  84.900  0.00  0.00    +0.000 C 
ATOM     10  H   UNL     1      74.095  81.818  84.245  0.00  0.00    +0.000 HD
ENDROOT
BRANCH   4  12
ATOM     11  O   UNL     1      78.065  81.601  80.674  0.00  0.00    +0.000 OA
ATOM     12  C   UNL     1      76.970  80.783  80.978  0.00  0.00    +0.000 C 
ATOM     13  C   UNL     1      76.601  80.081  79.800  0.00  0.00    +0.000 C 
ATOM     14  C   UNL     1      77.343  80.263  78.474  0.00  0.00    +0.000 C 
ATOM     15  C   UNL     1      78.110  81.212  79.394  0.00  0.00    +0.000 C 
ENDBRANCH   4  12
TORSDOF 1
ENDMDL
MODEL 9
REMARK VINA RESULT:      -4.2     55.767     56.903
REMARK  Name = 71369791_5FluoroDione.pdbqt.pdb
REMARK  1 active torsions:
REMARK  status: ('A' for Active; 'I' for Inactive)
REMARK    1  A    between atoms: N_4  and  C_12
REMARK                            x       y       z     vdW  Elec       q    Type
REMARK                         _______ _______ _______ _____ _____    ______ ____
ROOT
ATOM      1  F   UNL     1      79.907  82.183  80.873  0.00  0.00    +0.000 F 
ATOM      2  O   UNL     1      76.752  77.784  81.472  0.00  0.00    +0.000 OA
ATOM      3  O   UNL     1      80.202  79.861  79.276  0.00  0.00    +0.000 OA
ATOM      4  N   UNL     1      77.475  79.855  82.353  0.00  0.00    +0.000 N 
ATOM      5  N   UNL     1      78.526  78.849  80.492  0.00  0.00    +0.000 N 
ATOM      6  C   UNL     1      78.387  80.830  82.172  0.00  0.00    +0.000 C 
ATOM      7  C   UNL     1      79.420  80.986  81.240  0.00  0.00    +0.000 C 
ATOM      8  C   UNL     1      77.504  78.753  81.467  0.00  0.00    +0.000 C 
ATOM      9  C   UNL     1      79.450  79.875  80.243  0.00  0.00    +0.000 C 
ATOM     10  H   UNL     1      78.537  78.092  79.823  0.00  0.00    +0.000 HD
ENDROOT
BRANCH   4  12
ATOM     11  O   UNL     1      76.350  78.970  84.315  0.00  0.00    +0.000 OA
ATOM     12  C   UNL     1      76.573  79.981  83.372  0.00  0.00    +0.000 C 
ATOM     13  C   UNL     1      75.723  81.074  83.684  0.00  0.00    +0.000 C 
ATOM     14  C   UNL     1      74.761  81.046  84.874  0.00  0.00    +0.000 C 
ATOM     15  C   UNL     1      75.424  79.674  84.977  0.00  0.00    +0.000 C 
ENDBRANCH   4  12
TORSDOF 1
ENDMDL
