MODEL 1
REMARK VINA RESULT:      -2.9      0.000      0.000
REMARK  Name = 7288_3Pentanone.pdbqt.pdb
REMARK  2 active torsions:
REMARK  status: ('A' for Active; 'I' for Inactive)
REMARK    1  A    between atoms: C_2  and  C_3
REMARK    2  A    between atoms: C_2  and  C_5
REMARK                            x       y       z     vdW  Elec       q    Type
REMARK                         _______ _______ _______ _____ _____    ______ ____
ROOT
ATOM      1  O   UNL     1      59.621  39.031  55.026  0.00  0.00    +0.000 OA
ATOM      2  C   UNL     1      60.808  38.994  55.330  0.00  0.00    +0.000 C 
ENDROOT
BRANCH   2   3
ATOM      3  C   UNL     1      61.644  40.163  55.195  0.00  0.00    +0.000 C 
ATOM      4  C   UNL     1      62.546  41.407  55.073  0.00  0.00    +0.000 C 
ENDBRANCH   2   3
BRANCH   2   5
ATOM      5  C   UNL     1      61.406  37.780  55.832  0.00  0.00    +0.000 C 
ATOM      6  C   UNL     1      62.067  36.490  56.359  0.00  0.00    +0.000 C 
ENDBRANCH   2   5
TORSDOF 2
ENDMDL
MODEL 2
REMARK VINA RESULT:      -2.9     18.071     18.658
REMARK  Name = 7288_3Pentanone.pdbqt.pdb
REMARK  2 active torsions:
REMARK  status: ('A' for Active; 'I' for Inactive)
REMARK    1  A    between atoms: C_2  and  C_3
REMARK    2  A    between atoms: C_2  and  C_5
REMARK                            x       y       z     vdW  Elec       q    Type
REMARK                         _______ _______ _______ _____ _____    ______ ____
ROOT
ATOM      1  O   UNL     1      59.084  55.522  61.687  0.00  0.00    +0.000 OA
ATOM      2  C   UNL     1      60.105  56.200  61.689  0.00  0.00    +0.000 C 
ENDROOT
BRANCH   2   3
ATOM      3  C   UNL     1      60.161  57.456  60.979  0.00  0.00    +0.000 C 
ATOM      4  C   UNL     1      60.244  58.792  60.215  0.00  0.00    +0.000 C 
ENDBRANCH   2   3
BRANCH   2   5
ATOM      5  C   UNL     1      61.283  55.765  62.401  0.00  0.00    +0.000 C 
ATOM      6  C   UNL     1      62.527  55.285  63.174  0.00  0.00    +0.000 C 
ENDBRANCH   2   5
TORSDOF 2
ENDMDL
MODEL 3
REMARK VINA RESULT:      -2.8     10.092     10.865
REMARK  Name = 7288_3Pentanone.pdbqt.pdb
REMARK  2 active torsions:
REMARK  status: ('A' for Active; 'I' for Inactive)
REMARK    1  A    between atoms: C_2  and  C_3
REMARK    2  A    between atoms: C_2  and  C_5
REMARK                            x       y       z     vdW  Elec       q    Type
REMARK                         _______ _______ _______ _____ _____    ______ ____
ROOT
ATOM      1  O   UNL     1      51.070  37.780  57.112  0.00  0.00    +0.000 OA
ATOM      2  C   UNL     1      51.323  36.662  57.542  0.00  0.00    +0.000 C 
ENDROOT
BRANCH   2   3
ATOM      3  C   UNL     1      50.989  36.296  58.898  0.00  0.00    +0.000 C 
ATOM      4  C   UNL     1      50.632  35.929  60.352  0.00  0.00    +0.000 C 
ENDBRANCH   2   3
BRANCH   2   5
ATOM      5  C   UNL     1      51.965  35.675  56.707  0.00  0.00    +0.000 C 
ATOM      6  C   UNL     1      52.648  34.604  55.832  0.00  0.00    +0.000 C 
ENDBRANCH   2   5
TORSDOF 2
ENDMDL
MODEL 4
REMARK VINA RESULT:      -2.7     22.477     22.761
REMARK  Name = 7288_3Pentanone.pdbqt.pdb
REMARK  2 active torsions:
REMARK  status: ('A' for Active; 'I' for Inactive)
REMARK    1  A    between atoms: C_2  and  C_3
REMARK    2  A    between atoms: C_2  and  C_5
REMARK                            x       y       z     vdW  Elec       q    Type
REMARK                         _______ _______ _______ _____ _____    ______ ____
ROOT
ATOM      1  O   UNL     1      46.412  54.549  64.409  0.00  0.00    +0.000 OA
ATOM      2  C   UNL     1      46.728  53.581  65.091  0.00  0.00    +0.000 C 
ENDROOT
BRANCH   2   3
ATOM      3  C   UNL     1      45.994  52.341  65.001  0.00  0.00    +0.000 C 
ATOM      4  C   UNL     1      45.208  51.017  64.929  0.00  0.00    +0.000 C 
ENDBRANCH   2   3
BRANCH   2   5
ATOM      5  C   UNL     1      47.843  53.650  66.005  0.00  0.00    +0.000 C 
ATOM      6  C   UNL     1      49.021  53.713  66.998  0.00  0.00    +0.000 C 
ENDBRANCH   2   5
TORSDOF 2
ENDMDL
MODEL 5
REMARK VINA RESULT:      -2.7     51.768     52.054
REMARK  Name = 7288_3Pentanone.pdbqt.pdb
REMARK  2 active torsions:
REMARK  status: ('A' for Active; 'I' for Inactive)
REMARK    1  A    between atoms: C_2  and  C_3
REMARK    2  A    between atoms: C_2  and  C_5
REMARK                            x       y       z     vdW  Elec       q    Type
REMARK                         _______ _______ _______ _____ _____    ______ ____
ROOT
ATOM      1  O   UNL     1      76.372  80.072  82.902  0.00  0.00    +0.000 OA
ATOM      2  C   UNL     1      76.366  79.610  84.036  0.00  0.00    +0.000 C 
ENDROOT
BRANCH   2   3
ATOM      3  C   UNL     1      75.282  79.893  84.946  0.00  0.00    +0.000 C 
ATOM      4  C   UNL     1      74.112  80.173  85.910  0.00  0.00    +0.000 C 
ENDBRANCH   2   3
BRANCH   2   5
ATOM      5  C   UNL     1      77.445  78.770  84.499  0.00  0.00    +0.000 C 
ATOM      6  C   UNL     1      78.600  77.864  84.971  0.00  0.00    +0.000 C 
ENDBRANCH   2   5
TORSDOF 2
ENDMDL
MODEL 6
REMARK VINA RESULT:      -2.7      2.166      3.586
REMARK  Name = 7288_3Pentanone.pdbqt.pdb
REMARK  2 active torsions:
REMARK  status: ('A' for Active; 'I' for Inactive)
REMARK    1  A    between atoms: C_2  and  C_3
REMARK    2  A    between atoms: C_2  and  C_5
REMARK                            x       y       z     vdW  Elec       q    Type
REMARK                         _______ _______ _______ _____ _____    ______ ____
ROOT
ATOM      1  O   UNL     1      62.068  37.488  57.400  0.00  0.00    +0.000 OA
ATOM      2  C   UNL     1      62.323  38.049  56.341  0.00  0.00    +0.000 C 
ENDROOT
BRANCH   2   3
ATOM      3  C   UNL     1      62.881  37.315  55.230  0.00  0.00    +0.000 C 
ATOM      4  C   UNL     1      63.498  36.539  54.050  0.00  0.00    +0.000 C 
ENDBRANCH   2   3
BRANCH   2   5
ATOM      5  C   UNL     1      62.074  39.461  56.172  0.00  0.00    +0.000 C 
ATOM      6  C   UNL     1      61.796  40.969  56.012  0.00  0.00    +0.000 C 
ENDBRANCH   2   5
TORSDOF 2
ENDMDL
MODEL 7
REMARK VINA RESULT:      -2.6     22.324     22.775
REMARK  Name = 7288_3Pentanone.pdbqt.pdb
REMARK  2 active torsions:
REMARK  status: ('A' for Active; 'I' for Inactive)
REMARK    1  A    between atoms: C_2  and  C_3
REMARK    2  A    between atoms: C_2  and  C_5
REMARK                            x       y       z     vdW  Elec       q    Type
REMARK                         _______ _______ _______ _____ _____    ______ ____
ROOT
ATOM      1  O   UNL     1      45.525  54.597  65.630  0.00  0.00    +0.000 OA
ATOM      2  C   UNL     1      46.355  53.728  65.390  0.00  0.00    +0.000 C 
ENDROOT
BRANCH   2   3
ATOM      3  C   UNL     1      47.766  54.034  65.383  0.00  0.00    +0.000 C 
ATOM      4  C   UNL     1      49.272  54.362  65.399  0.00  0.00    +0.000 C 
ENDBRANCH   2   3
BRANCH   2   5
ATOM      5  C   UNL     1      45.949  52.372  65.109  0.00  0.00    +0.000 C 
ATOM      6  C   UNL     1      45.496  50.932  64.795  0.00  0.00    +0.000 C 
ENDBRANCH   2   5
TORSDOF 2
ENDMDL
MODEL 8
REMARK VINA RESULT:      -2.6     41.689     42.199
REMARK  Name = 7288_3Pentanone.pdbqt.pdb
REMARK  2 active torsions:
REMARK  status: ('A' for Active; 'I' for Inactive)
REMARK    1  A    between atoms: C_2  and  C_3
REMARK    2  A    between atoms: C_2  and  C_5
REMARK                            x       y       z     vdW  Elec       q    Type
REMARK                         _______ _______ _______ _____ _____    ______ ____
ROOT
ATOM      1  O   UNL     1      56.897  69.403  82.717  0.00  0.00    +0.000 OA
ATOM      2  C   UNL     1      57.843  70.028  83.182  0.00  0.00    +0.000 C 
ENDROOT
BRANCH   2   3
ATOM      3  C   UNL     1      58.607  69.502  84.288  0.00  0.00    +0.000 C 
ATOM      4  C   UNL     1      59.409  68.920  85.468  0.00  0.00    +0.000 C 
ENDBRANCH   2   3
BRANCH   2   5
ATOM      5  C   UNL     1      58.222  71.310  82.638  0.00  0.00    +0.000 C 
ATOM      6  C   UNL     1      58.619  72.673  82.035  0.00  0.00    +0.000 C 
ENDBRANCH   2   5
TORSDOF 2
ENDMDL
MODEL 9
REMARK VINA RESULT:      -2.5     43.118     44.602
REMARK  Name = 7288_3Pentanone.pdbqt.pdb
REMARK  2 active torsions:
REMARK  status: ('A' for Active; 'I' for Inactive)
REMARK    1  A    between atoms: C_2  and  C_3
REMARK    2  A    between atoms: C_2  and  C_5
REMARK                            x       y       z     vdW  Elec       q    Type
REMARK                         _______ _______ _______ _____ _____    ______ ____
ROOT
ATOM      1  O   UNL     1      63.255  77.201  78.918  0.00  0.00    +0.000 OA
ATOM      2  C   UNL     1      62.078  76.874  79.010  0.00  0.00    +0.000 C 
ENDROOT
BRANCH   2   3
ATOM      3  C   UNL     1      61.306  77.204  80.184  0.00  0.00    +0.000 C 
ATOM      4  C   UNL     1      60.481  77.580  81.430  0.00  0.00    +0.000 C 
ENDBRANCH   2   3
BRANCH   2   5
ATOM      5  C   UNL     1      61.426  76.149  77.946  0.00  0.00    +0.000 C 
ATOM      6  C   UNL     1      60.709  75.372  76.823  0.00  0.00    +0.000 C 
ENDBRANCH   2   5
TORSDOF 2
ENDMDL
