MODEL 1
REMARK VINA RESULT:      -6.8      0.000      0.000
REMARK  Name = 73299_Hederagenin.pdbqt.pdb
REMARK  5 active torsions:
REMARK  status: ('A' for Active; 'I' for Inactive)
REMARK    1  A    between atoms: C_9  and  C_35
REMARK    2  A    between atoms: C_14  and  C_32
REMARK    3  A    between atoms: C_17  and  O_29
REMARK    4  A    between atoms: C_32  and  O_33
REMARK    5  A    between atoms: C_35  and  O_36
REMARK                            x       y       z     vdW  Elec       q    Type
REMARK                         _______ _______ _______ _____ _____    ______ ____
ROOT
ATOM      1  C   UNL     1      59.762  35.670  67.043  0.00  0.00    +0.000 C 
ATOM      2  C   UNL     1      60.283  37.008  66.371  0.00  0.00    +0.000 C 
ATOM      3  C   UNL     1      61.297  37.947  67.034  0.00  0.00    +0.000 C 
ATOM      4  C   UNL     1      58.141  35.436  66.799  0.00  0.00    +0.000 C 
ATOM      5  C   UNL     1      61.246  38.063  68.585  0.00  0.00    +0.000 C 
ATOM      6  C   UNL     1      60.069  35.808  68.472  0.00  0.00    +0.000 C 
ATOM      7  C   UNL     1      60.750  36.896  69.232  0.00  0.00    +0.000 C 
ATOM      8  C   UNL     1      57.720  35.636  65.243  0.00  0.00    +0.000 C 
ATOM      9  C   UNL     1      61.444  39.390  69.336  0.00  0.00    +0.000 C 
ATOM     10  C   UNL     1      56.768  34.774  64.508  0.00  0.00    +0.000 C 
ATOM     11  C   UNL     1      59.635  37.275  65.124  0.00  0.00    +0.000 C 
ATOM     12  C   UNL     1      61.103  39.308  66.545  0.00  0.00    +0.000 C 
ATOM     13  C   UNL     1      57.691  34.066  67.105  0.00  0.00    +0.000 C 
ATOM     14  C   UNL     1      56.554  33.174  64.849  0.00  0.00    +0.000 C 
ATOM     15  C   UNL     1      60.612  34.488  66.421  0.00  0.00    +0.000 C 
ATOM     16  C   UNL     1      56.955  33.060  66.251  0.00  0.00    +0.000 C 
ATOM     17  C   UNL     1      61.630  40.685  68.500  0.00  0.00    +0.000 C 
ATOM     18  C   UNL     1      58.411  36.555  64.632  0.00  0.00    +0.000 C 
ATOM     19  C   UNL     1      62.715  37.447  66.656  0.00  0.00    +0.000 C 
ATOM     20  C   UNL     1      61.248  40.666  67.147  0.00  0.00    +0.000 C 
ATOM     21  C   UNL     1      57.255  36.481  67.606  0.00  0.00    +0.000 C 
ATOM     22  C   UNL     1      55.627  35.414  63.853  0.00  0.00    +0.000 C 
ATOM     23  C   UNL     1      55.114  32.934  64.566  0.00  0.00    +0.000 C 
ATOM     24  C   UNL     1      54.182  35.242  63.446  0.00  0.00    +0.000 C 
ATOM     25  C   UNL     1      62.680  39.251  70.284  0.00  0.00    +0.000 C 
ATOM     26  C   UNL     1      54.025  33.829  63.920  0.00  0.00    +0.000 C 
ATOM     27  C   UNL     1      53.267  36.210  64.218  0.00  0.00    +0.000 C 
ATOM     28  C   UNL     1      54.008  35.360  61.922  0.00  0.00    +0.000 C 
ENDROOT
BRANCH  17  29
ATOM     29  O   UNL     1      62.422  41.725  68.957  0.00  0.00    +0.000 OA
ATOM     30  H   UNL     1      62.265  42.538  68.433  0.00  0.00    +0.000 HD
ENDBRANCH  17  29
BRANCH  14  32
ATOM     31  O   UNL     1      57.061  31.569  63.051  0.00  0.00    +0.000 OA
ATOM     32  C   UNL     1      57.444  32.374  63.890  0.00  0.00    +0.000 C 
BRANCH  32  33
ATOM     33  O   UNL     1      58.770  32.560  64.073  0.00  0.00    +0.000 OA
ATOM     34  H   UNL     1      59.151  31.657  64.115  0.00  0.00    +0.000 HD
ENDBRANCH  32  33
ENDBRANCH  14  32
BRANCH   9  35
ATOM     35  C   UNL     1      60.216  39.632  70.158  0.00  0.00    +0.000 C 
BRANCH  35  36
ATOM     36  O   UNL     1      59.127  39.860  70.898  0.00  0.00    +0.000 OA
ATOM     37  H   UNL     1      58.514  40.466  70.443  0.00  0.00    +0.000 HD
ENDBRANCH  35  36
ENDBRANCH   9  35
TORSDOF 5
ENDMDL
MODEL 2
REMARK VINA RESULT:      -6.6      9.197     11.846
REMARK  Name = 73299_Hederagenin.pdbqt.pdb
REMARK  5 active torsions:
REMARK  status: ('A' for Active; 'I' for Inactive)
REMARK    1  A    between atoms: C_9  and  C_35
REMARK    2  A    between atoms: C_14  and  C_32
REMARK    3  A    between atoms: C_17  and  O_29
REMARK    4  A    between atoms: C_32  and  O_33
REMARK    5  A    between atoms: C_35  and  O_36
REMARK                            x       y       z     vdW  Elec       q    Type
REMARK                         _______ _______ _______ _____ _____    ______ ____
ROOT
ATOM      1  C   UNL     1      51.110  39.791  72.322  0.00  0.00    +0.000 C 
ATOM      2  C   UNL     1      51.136  38.782  71.098  0.00  0.00    +0.000 C 
ATOM      3  C   UNL     1      52.358  37.936  70.728  0.00  0.00    +0.000 C 
ATOM      4  C   UNL     1      50.316  41.198  71.955  0.00  0.00    +0.000 C 
ATOM      5  C   UNL     1      53.759  38.564  70.987  0.00  0.00    +0.000 C 
ATOM      6  C   UNL     1      52.518  40.046  72.645  0.00  0.00    +0.000 C 
ATOM      7  C   UNL     1      53.777  39.505  72.054  0.00  0.00    +0.000 C 
ATOM      8  C   UNL     1      48.876  40.926  71.255  0.00  0.00    +0.000 C 
ATOM      9  C   UNL     1      54.944  38.403  70.021  0.00  0.00    +0.000 C 
ATOM     10  C   UNL     1      47.635  41.672  71.557  0.00  0.00    +0.000 C 
ATOM     11  C   UNL     1      49.923  38.820  70.340  0.00  0.00    +0.000 C 
ATOM     12  C   UNL     1      52.336  37.634  69.300  0.00  0.00    +0.000 C 
ATOM     13  C   UNL     1      49.976  42.007  73.140  0.00  0.00    +0.000 C 
ATOM     14  C   UNL     1      47.319  42.331  73.037  0.00  0.00    +0.000 C 
ATOM     15  C   UNL     1      50.409  39.033  73.522  0.00  0.00    +0.000 C 
ATOM     16  C   UNL     1      48.646  42.544  73.615  0.00  0.00    +0.000 C 
ATOM     17  C   UNL     1      54.708  37.638  68.691  0.00  0.00    +0.000 C 
ATOM     18  C   UNL     1      48.863  39.875  70.486  0.00  0.00    +0.000 C 
ATOM     19  C   UNL     1      52.284  36.622  71.546  0.00  0.00    +0.000 C 
ATOM     20  C   UNL     1      53.384  37.456  68.253  0.00  0.00    +0.000 C 
ATOM     21  C   UNL     1      51.122  42.090  70.914  0.00  0.00    +0.000 C 
ATOM     22  C   UNL     1      46.926  42.306  70.445  0.00  0.00    +0.000 C 
ATOM     23  C   UNL     1      46.544  43.562  72.725  0.00  0.00    +0.000 C 
ATOM     24  C   UNL     1      46.063  43.478  70.040  0.00  0.00    +0.000 C 
ATOM     25  C   UNL     1      56.116  37.694  70.778  0.00  0.00    +0.000 C 
ATOM     26  C   UNL     1      45.947  44.099  71.398  0.00  0.00    +0.000 C 
ATOM     27  C   UNL     1      46.803  44.398  69.051  0.00  0.00    +0.000 C 
ATOM     28  C   UNL     1      44.699  43.014  69.501  0.00  0.00    +0.000 C 
ENDROOT
BRANCH  17  29
ATOM     29  O   UNL     1      55.715  36.890  68.105  0.00  0.00    +0.000 OA
ATOM     30  H   UNL     1      55.848  37.155  67.171  0.00  0.00    +0.000 HD
ENDBRANCH  17  29
BRANCH  14  32
ATOM     31  O   UNL     1      45.279  41.450  74.098  0.00  0.00    +0.000 OA
ATOM     32  C   UNL     1      46.463  41.326  73.818  0.00  0.00    +0.000 C 
BRANCH  32  33
ATOM     33  O   UNL     1      47.144  40.252  74.274  0.00  0.00    +0.000 OA
ATOM     34  H   UNL     1      48.088  40.453  74.098  0.00  0.00    +0.000 HD
ENDBRANCH  32  33
ENDBRANCH  14  32
BRANCH   9  35
ATOM     35  C   UNL     1      55.382  39.774  69.609  0.00  0.00    +0.000 C 
BRANCH  35  36
ATOM     36  O   UNL     1      55.785  40.992  69.236  0.00  0.00    +0.000 OA
ATOM     37  H   UNL     1      56.389  40.943  68.472  0.00  0.00    +0.000 HD
ENDBRANCH  35  36
ENDBRANCH   9  35
TORSDOF 5
ENDMDL
MODEL 3
REMARK VINA RESULT:      -6.5     28.591     33.778
REMARK  Name = 73299_Hederagenin.pdbqt.pdb
REMARK  5 active torsions:
REMARK  status: ('A' for Active; 'I' for Inactive)
REMARK    1  A    between atoms: C_9  and  C_35
REMARK    2  A    between atoms: C_14  and  C_32
REMARK    3  A    between atoms: C_17  and  O_29
REMARK    4  A    between atoms: C_32  and  O_33
REMARK    5  A    between atoms: C_35  and  O_36
REMARK                            x       y       z     vdW  Elec       q    Type
REMARK                         _______ _______ _______ _____ _____    ______ ____
ROOT
ATOM      1  C   UNL     1      61.562  67.921  67.503  0.00  0.00    +0.000 C 
ATOM      2  C   UNL     1      60.684  67.461  68.741  0.00  0.00    +0.000 C 
ATOM      3  C   UNL     1      59.843  66.180  68.750  0.00  0.00    +0.000 C 
ATOM      4  C   UNL     1      61.478  69.555  67.249  0.00  0.00    +0.000 C 
ATOM      5  C   UNL     1      59.210  65.739  67.398  0.00  0.00    +0.000 C 
ATOM      6  C   UNL     1      61.033  67.178  66.353  0.00  0.00    +0.000 C 
ATOM      7  C   UNL     1      59.944  66.162  66.255  0.00  0.00    +0.000 C 
ATOM      8  C   UNL     1      61.714  70.401  68.615  0.00  0.00    +0.000 C 
ATOM      9  C   UNL     1      57.793  65.151  67.286  0.00  0.00    +0.000 C 
ATOM     10  C   UNL     1      62.523  71.636  68.715  0.00  0.00    +0.000 C 
ATOM     11  C   UNL     1      60.704  68.418  69.804  0.00  0.00    +0.000 C 
ATOM     12  C   UNL     1      58.717  66.335  69.665  0.00  0.00    +0.000 C 
ATOM     13  C   UNL     1      62.523  70.065  66.342  0.00  0.00    +0.000 C 
ATOM     14  C   UNL     1      63.822  71.942  67.744  0.00  0.00    +0.000 C 
ATOM     15  C   UNL     1      63.047  67.463  67.804  0.00  0.00    +0.000 C 
ATOM     16  C   UNL     1      63.554  71.150  66.543  0.00  0.00    +0.000 C 
ATOM     17  C   UNL     1      56.932  65.061  68.574  0.00  0.00    +0.000 C 
ATOM     18  C   UNL     1      61.240  69.816  69.677  0.00  0.00    +0.000 C 
ATOM     19  C   UNL     1      60.757  65.023  69.229  0.00  0.00    +0.000 C 
ATOM     20  C   UNL     1      57.310  65.837  69.684  0.00  0.00    +0.000 C 
ATOM     21  C   UNL     1      60.047  70.009  66.722  0.00  0.00    +0.000 C 
ATOM     22  C   UNL     1      61.890  72.829  69.276  0.00  0.00    +0.000 C 
ATOM     23  C   UNL     1      63.799  73.418  67.564  0.00  0.00    +0.000 C 
ATOM     24  C   UNL     1      61.845  74.339  69.232  0.00  0.00    +0.000 C 
ATOM     25  C   UNL     1      57.894  63.713  66.677  0.00  0.00    +0.000 C 
ATOM     26  C   UNL     1      62.942  74.526  68.229  0.00  0.00    +0.000 C 
ATOM     27  C   UNL     1      60.490  74.840  68.701  0.00  0.00    +0.000 C 
ATOM     28  C   UNL     1      62.204  74.953  70.597  0.00  0.00    +0.000 C 
ENDROOT
BRANCH  17  29
ATOM     29  O   UNL     1      56.015  64.040  68.753  0.00  0.00    +0.000 OA
ATOM     30  H   UNL     1      56.466  63.204  68.993  0.00  0.00    +0.000 HD
ENDBRANCH  17  29
BRANCH  14  32
ATOM     31  O   UNL     1      65.716  72.173  69.302  0.00  0.00    +0.000 OA
ATOM     32  C   UNL     1      65.080  71.500  68.502  0.00  0.00    +0.000 C 
BRANCH  32  33
ATOM     33  O   UNL     1      65.527  70.268  68.170  0.00  0.00    +0.000 OA
ATOM     34  H   UNL     1      66.505  70.344  68.163  0.00  0.00    +0.000 HD
ENDBRANCH  32  33
ENDBRANCH  14  32
BRANCH   9  35
ATOM     35  C   UNL     1      57.012  66.026  66.356  0.00  0.00    +0.000 C 
BRANCH  35  36
ATOM     36  O   UNL     1      56.322  66.819  65.532  0.00  0.00    +0.000 OA
ATOM     37  H   UNL     1      56.918  67.308  64.934  0.00  0.00    +0.000 HD
ENDBRANCH  35  36
ENDBRANCH   9  35
TORSDOF 5
ENDMDL
MODEL 4
REMARK VINA RESULT:      -6.4     25.997     30.153
REMARK  Name = 73299_Hederagenin.pdbqt.pdb
REMARK  5 active torsions:
REMARK  status: ('A' for Active; 'I' for Inactive)
REMARK    1  A    between atoms: C_9  and  C_35
REMARK    2  A    between atoms: C_14  and  C_32
REMARK    3  A    between atoms: C_17  and  O_29
REMARK    4  A    between atoms: C_32  and  O_33
REMARK    5  A    between atoms: C_35  and  O_36
REMARK                            x       y       z     vdW  Elec       q    Type
REMARK                         _______ _______ _______ _____ _____    ______ ____
ROOT
ATOM      1  C   UNL     1      58.349  67.104  68.181  0.00  0.00    +0.000 C 
ATOM      2  C   UNL     1      59.902  66.818  68.324  0.00  0.00    +0.000 C 
ATOM      3  C   UNL     1      60.912  67.863  68.807  0.00  0.00    +0.000 C 
ATOM      4  C   UNL     1      57.708  66.418  66.817  0.00  0.00    +0.000 C 
ATOM      5  C   UNL     1      60.632  69.347  68.430  0.00  0.00    +0.000 C 
ATOM      6  C   UNL     1      58.224  68.566  68.148  0.00  0.00    +0.000 C 
ATOM      7  C   UNL     1      59.251  69.644  68.256  0.00  0.00    +0.000 C 
ATOM      8  C   UNL     1      58.141  64.861  66.652  0.00  0.00    +0.000 C 
ATOM      9  C   UNL     1      61.737  70.332  68.013  0.00  0.00    +0.000 C 
ATOM     10  C   UNL     1      57.238  63.775  66.212  0.00  0.00    +0.000 C 
ATOM     11  C   UNL     1      60.255  65.508  67.869  0.00  0.00    +0.000 C 
ATOM     12  C   UNL     1      62.230  67.573  68.250  0.00  0.00    +0.000 C 
ATOM     13  C   UNL     1      56.234  66.368  66.819  0.00  0.00    +0.000 C 
ATOM     14  C   UNL     1      55.613  63.781  66.505  0.00  0.00    +0.000 C 
ATOM     15  C   UNL     1      57.660  66.534  69.488  0.00  0.00    +0.000 C 
ATOM     16  C   UNL     1      55.290  65.201  66.650  0.00  0.00    +0.000 C 
ATOM     17  C   UNL     1      63.189  69.797  67.894  0.00  0.00    +0.000 C 
ATOM     18  C   UNL     1      59.343  64.607  67.085  0.00  0.00    +0.000 C 
ATOM     19  C   UNL     1      60.964  67.784  70.355  0.00  0.00    +0.000 C 
ATOM     20  C   UNL     1      63.382  68.407  67.802  0.00  0.00    +0.000 C 
ATOM     21  C   UNL     1      58.215  67.132  65.490  0.00  0.00    +0.000 C 
ATOM     22  C   UNL     1      57.645  62.965  65.064  0.00  0.00    +0.000 C 
ATOM     23  C   UNL     1      55.030  63.103  65.316  0.00  0.00    +0.000 C 
ATOM     24  C   UNL     1      57.153  62.179  63.871  0.00  0.00    +0.000 C 
ATOM     25  C   UNL     1      61.749  71.529  69.020  0.00  0.00    +0.000 C 
ATOM     26  C   UNL     1      55.687  62.357  64.126  0.00  0.00    +0.000 C 
ATOM     27  C   UNL     1      57.589  62.840  62.551  0.00  0.00    +0.000 C 
ATOM     28  C   UNL     1      57.576  60.702  63.956  0.00  0.00    +0.000 C 
ENDROOT
BRANCH  17  29
ATOM     29  O   UNL     1      64.276  70.607  68.176  0.00  0.00    +0.000 OA
ATOM     30  H   UNL     1      63.988  71.444  68.595  0.00  0.00    +0.000 HD
ENDBRANCH  17  29
BRANCH  14  32
ATOM     31  O   UNL     1      54.964  61.810  67.830  0.00  0.00    +0.000 OA
ATOM     32  C   UNL     1      55.370  62.963  67.779  0.00  0.00    +0.000 C 
BRANCH  32  33
ATOM     33  O   UNL     1      55.573  63.646  68.927  0.00  0.00    +0.000 OA
ATOM     34  H   UNL     1      55.004  64.442  68.856  0.00  0.00    +0.000 HD
ENDBRANCH  32  33
ENDBRANCH  14  32
BRANCH   9  35
ATOM     35  C   UNL     1      61.396  70.841  66.646  0.00  0.00    +0.000 C 
BRANCH  35  36
ATOM     36  O   UNL     1      61.083  71.283  65.425  0.00  0.00    +0.000 OA
ATOM     37  H   UNL     1      61.626  72.056  65.182  0.00  0.00    +0.000 HD
ENDBRANCH  35  36
ENDBRANCH   9  35
TORSDOF 5
ENDMDL
MODEL 5
REMARK VINA RESULT:      -6.4     17.136     19.409
REMARK  Name = 73299_Hederagenin.pdbqt.pdb
REMARK  5 active torsions:
REMARK  status: ('A' for Active; 'I' for Inactive)
REMARK    1  A    between atoms: C_9  and  C_35
REMARK    2  A    between atoms: C_14  and  C_32
REMARK    3  A    between atoms: C_17  and  O_29
REMARK    4  A    between atoms: C_32  and  O_33
REMARK    5  A    between atoms: C_35  and  O_36
REMARK                            x       y       z     vdW  Elec       q    Type
REMARK                         _______ _______ _______ _____ _____    ______ ____
ROOT
ATOM      1  C   UNL     1      64.526  53.038  58.527  0.00  0.00    +0.000 C 
ATOM      2  C   UNL     1      64.841  51.511  58.815  0.00  0.00    +0.000 C 
ATOM      3  C   UNL     1      66.192  50.856  58.510  0.00  0.00    +0.000 C 
ATOM      4  C   UNL     1      62.999  53.259  57.925  0.00  0.00    +0.000 C 
ATOM      5  C   UNL     1      66.969  51.380  57.268  0.00  0.00    +0.000 C 
ATOM      6  C   UNL     1      65.543  53.469  57.562  0.00  0.00    +0.000 C 
ATOM      7  C   UNL     1      66.690  52.738  56.948  0.00  0.00    +0.000 C 
ATOM      8  C   UNL     1      61.875  52.475  58.799  0.00  0.00    +0.000 C 
ATOM      9  C   UNL     1      67.745  50.460  56.311  0.00  0.00    +0.000 C 
ATOM     10  C   UNL     1      60.552  53.028  59.163  0.00  0.00    +0.000 C 
ATOM     11  C   UNL     1      63.698  50.806  59.308  0.00  0.00    +0.000 C 
ATOM     12  C   UNL     1      66.005  49.429  58.266  0.00  0.00    +0.000 C 
ATOM     13  C   UNL     1      62.548  54.663  57.964  0.00  0.00    +0.000 C 
ATOM     14  C   UNL     1      60.280  54.640  59.389  0.00  0.00    +0.000 C 
ATOM     15  C   UNL     1      64.720  53.808  59.896  0.00  0.00    +0.000 C 
ATOM     16  C   UNL     1      61.321  55.284  58.588  0.00  0.00    +0.000 C 
ATOM     17  C   UNL     1      67.688  48.929  56.560  0.00  0.00    +0.000 C 
ATOM     18  C   UNL     1      62.295  51.345  59.290  0.00  0.00    +0.000 C 
ATOM     19  C   UNL     1      67.104  51.065  59.746  0.00  0.00    +0.000 C 
ATOM     20  C   UNL     1      66.666  48.424  57.383  0.00  0.00    +0.000 C 
ATOM     21  C   UNL     1      62.846  52.691  56.448  0.00  0.00    +0.000 C 
ATOM     22  C   UNL     1      59.363  52.254  58.804  0.00  0.00    +0.000 C 
ATOM     23  C   UNL     1      58.883  54.839  58.916  0.00  0.00    +0.000 C 
ATOM     24  C   UNL     1      57.910  52.343  58.398  0.00  0.00    +0.000 C 
ATOM     25  C   UNL     1      69.250  50.889  56.313  0.00  0.00    +0.000 C 
ATOM     26  C   UNL     1      57.785  53.833  58.483  0.00  0.00    +0.000 C 
ATOM     27  C   UNL     1      57.702  51.832  56.960  0.00  0.00    +0.000 C 
ATOM     28  C   UNL     1      56.997  51.630  59.411  0.00  0.00    +0.000 C 
ENDROOT
BRANCH  17  29
ATOM     29  O   UNL     1      68.764  48.112  56.252  0.00  0.00    +0.000 OA
ATOM     30  H   UNL     1      68.592  47.189  56.532  0.00  0.00    +0.000 HD
ENDBRANCH  17  29
BRANCH  14  32
ATOM     31  O   UNL     1      61.430  54.919  61.549  0.00  0.00    +0.000 OA
ATOM     32  C   UNL     1      60.397  54.923  60.891  0.00  0.00    +0.000 C 
BRANCH  32  33
ATOM     33  O   UNL     1      59.215  55.124  61.515  0.00  0.00    +0.000 OA
ATOM     34  H   UNL     1      58.554  55.191  60.793  0.00  0.00    +0.000 HD
ENDBRANCH  32  33
ENDBRANCH  14  32
BRANCH   9  35
ATOM     35  C   UNL     1      67.179  50.653  54.939  0.00  0.00    +0.000 C 
BRANCH  35  36
ATOM     36  O   UNL     1      66.660  50.824  53.720  0.00  0.00    +0.000 OA
ATOM     37  H   UNL     1      67.222  51.407  53.178  0.00  0.00    +0.000 HD
ENDBRANCH  35  36
ENDBRANCH   9  35
TORSDOF 5
ENDMDL
MODEL 6
REMARK VINA RESULT:      -6.1     21.478     25.763
REMARK  Name = 73299_Hederagenin.pdbqt.pdb
REMARK  5 active torsions:
REMARK  status: ('A' for Active; 'I' for Inactive)
REMARK    1  A    between atoms: C_9  and  C_35
REMARK    2  A    between atoms: C_14  and  C_32
REMARK    3  A    between atoms: C_17  and  O_29
REMARK    4  A    between atoms: C_32  and  O_33
REMARK    5  A    between atoms: C_35  and  O_36
REMARK                            x       y       z     vdW  Elec       q    Type
REMARK                         _______ _______ _______ _____ _____    ______ ____
ROOT
ATOM      1  C   UNL     1      70.701  57.921  64.240  0.00  0.00    +0.000 C 
ATOM      2  C   UNL     1      69.694  58.883  65.000  0.00  0.00    +0.000 C 
ATOM      3  C   UNL     1      69.101  60.149  64.373  0.00  0.00    +0.000 C 
ATOM      4  C   UNL     1      71.915  57.380  65.228  0.00  0.00    +0.000 C 
ATOM      5  C   UNL     1      70.000  60.931  63.371  0.00  0.00    +0.000 C 
ATOM      6  C   UNL     1      71.237  58.718  63.130  0.00  0.00    +0.000 C 
ATOM      7  C   UNL     1      70.946  60.114  62.690  0.00  0.00    +0.000 C 
ATOM      8  C   UNL     1      71.348  56.810  66.640  0.00  0.00    +0.000 C 
ATOM      9  C   UNL     1      70.059  62.467  63.316  0.00  0.00    +0.000 C 
ATOM     10  C   UNL     1      71.838  55.589  67.315  0.00  0.00    +0.000 C 
ATOM     11  C   UNL     1      69.476  58.477  66.354  0.00  0.00    +0.000 C 
ATOM     12  C   UNL     1      68.774  61.112  65.420  0.00  0.00    +0.000 C 
ATOM     13  C   UNL     1      72.662  56.238  64.670  0.00  0.00    +0.000 C 
ATOM     14  C   UNL     1      72.449  54.291  66.498  0.00  0.00    +0.000 C 
ATOM     15  C   UNL     1      69.841  56.718  63.675  0.00  0.00    +0.000 C 
ATOM     16  C   UNL     1      72.932  54.866  65.243  0.00  0.00    +0.000 C 
ATOM     17  C   UNL     1      69.238  63.270  64.359  0.00  0.00    +0.000 C 
ATOM     18  C   UNL     1      70.302  57.451  67.076  0.00  0.00    +0.000 C 
ATOM     19  C   UNL     1      67.814  59.738  63.613  0.00  0.00    +0.000 C 
ATOM     20  C   UNL     1      68.788  62.602  65.512  0.00  0.00    +0.000 C 
ATOM     21  C   UNL     1      72.929  58.539  65.625  0.00  0.00    +0.000 C 
ATOM     22  C   UNL     1      72.297  55.706  68.700  0.00  0.00    +0.000 C 
ATOM     23  C   UNL     1      73.496  53.752  67.408  0.00  0.00    +0.000 C 
ATOM     24  C   UNL     1      73.267  55.171  69.728  0.00  0.00    +0.000 C 
ATOM     25  C   UNL     1      69.612  62.935  61.891  0.00  0.00    +0.000 C 
ATOM     26  C   UNL     1      73.878  54.107  68.868  0.00  0.00    +0.000 C 
ATOM     27  C   UNL     1      74.296  56.242  70.132  0.00  0.00    +0.000 C 
ATOM     28  C   UNL     1      72.530  54.577  70.942  0.00  0.00    +0.000 C 
ENDROOT
BRANCH  17  29
ATOM     29  O   UNL     1      68.694  64.505  64.047  0.00  0.00    +0.000 OA
ATOM     30  H   UNL     1      69.122  64.883  63.250  0.00  0.00    +0.000 HD
ENDBRANCH  17  29
BRANCH  14  32
ATOM     31  O   UNL     1      70.227  53.504  65.785  0.00  0.00    +0.000 OA
ATOM     32  C   UNL     1      71.309  53.283  66.313  0.00  0.00    +0.000 C 
BRANCH  32  33
ATOM     33  O   UNL     1      71.544  52.070  66.860  0.00  0.00    +0.000 OA
ATOM     34  H   UNL     1      70.919  51.461  66.409  0.00  0.00    +0.000 HD
ENDBRANCH  32  33
ENDBRANCH  14  32
BRANCH   9  35
ATOM     35  C   UNL     1      71.482  62.873  63.544  0.00  0.00    +0.000 C 
BRANCH  35  36
ATOM     36  O   UNL     1      72.754  63.221  63.754  0.00  0.00    +0.000 OA
ATOM     37  H   UNL     1      73.320  62.953  63.007  0.00  0.00    +0.000 HD
ENDBRANCH  35  36
ENDBRANCH   9  35
TORSDOF 5
ENDMDL
MODEL 7
REMARK VINA RESULT:      -6.1     25.875     30.282
REMARK  Name = 73299_Hederagenin.pdbqt.pdb
REMARK  5 active torsions:
REMARK  status: ('A' for Active; 'I' for Inactive)
REMARK    1  A    between atoms: C_9  and  C_35
REMARK    2  A    between atoms: C_14  and  C_32
REMARK    3  A    between atoms: C_17  and  O_29
REMARK    4  A    between atoms: C_32  and  O_33
REMARK    5  A    between atoms: C_35  and  O_36
REMARK                            x       y       z     vdW  Elec       q    Type
REMARK                         _______ _______ _______ _____ _____    ______ ____
ROOT
ATOM      1  C   UNL     1      56.954  65.082  68.477  0.00  0.00    +0.000 C 
ATOM      2  C   UNL     1      55.967  65.661  67.379  0.00  0.00    +0.000 C 
ATOM      3  C   UNL     1      54.591  65.058  67.079  0.00  0.00    +0.000 C 
ATOM      4  C   UNL     1      58.530  65.095  67.969  0.00  0.00    +0.000 C 
ATOM      5  C   UNL     1      54.446  63.515  67.228  0.00  0.00    +0.000 C 
ATOM      6  C   UNL     1      56.491  63.713  68.732  0.00  0.00    +0.000 C 
ATOM      7  C   UNL     1      55.339  62.944  68.177  0.00  0.00    +0.000 C 
ATOM      8  C   UNL     1      58.961  66.530  67.341  0.00  0.00    +0.000 C 
ATOM      9  C   UNL     1      53.624  62.651  66.257  0.00  0.00    +0.000 C 
ATOM     10  C   UNL     1      60.255  67.204  67.586  0.00  0.00    +0.000 C 
ATOM     11  C   UNL     1      56.544  66.750  66.652  0.00  0.00    +0.000 C 
ATOM     12  C   UNL     1      54.217  65.343  65.697  0.00  0.00    +0.000 C 
ATOM     13  C   UNL     1      59.502  64.889  69.059  0.00  0.00    +0.000 C 
ATOM     14  C   UNL     1      61.112  67.029  68.986  0.00  0.00    +0.000 C 
ATOM     15  C   UNL     1      56.762  65.968  69.774  0.00  0.00    +0.000 C 
ATOM     16  C   UNL     1      60.676  65.732  69.501  0.00  0.00    +0.000 C 
ATOM     17  C   UNL     1      52.970  63.343  65.032  0.00  0.00    +0.000 C 
ATOM     18  C   UNL     1      57.998  67.127  66.701  0.00  0.00    +0.000 C 
ATOM     19  C   UNL     1      53.571  65.712  68.047  0.00  0.00    +0.000 C 
ATOM     20  C   UNL     1      53.442  64.612  64.652  0.00  0.00    +0.000 C 
ATOM     21  C   UNL     1      58.798  64.038  66.810  0.00  0.00    +0.000 C 
ATOM     22  C   UNL     1      61.059  67.590  66.426  0.00  0.00    +0.000 C 
ATOM     23  C   UNL     1      62.532  67.109  68.552  0.00  0.00    +0.000 C 
ATOM     24  C   UNL     1      62.466  67.782  65.908  0.00  0.00    +0.000 C 
ATOM     25  C   UNL     1      52.491  61.932  67.062  0.00  0.00    +0.000 C 
ATOM     26  C   UNL     1      63.178  67.464  67.187  0.00  0.00    +0.000 C 
ATOM     27  C   UNL     1      62.795  66.765  64.800  0.00  0.00    +0.000 C 
ATOM     28  C   UNL     1      62.708  69.235  65.462  0.00  0.00    +0.000 C 
ENDROOT
BRANCH  17  29
ATOM     29  O   UNL     1      51.767  62.894  64.513  0.00  0.00    +0.000 OA
ATOM     30  H   UNL     1      51.095  62.799  65.220  0.00  0.00    +0.000 HD
ENDBRANCH  17  29
BRANCH  14  32
ATOM     31  O   UNL     1      60.816  69.393  69.611  0.00  0.00    +0.000 OA
ATOM     32  C   UNL     1      60.749  68.206  69.900  0.00  0.00    +0.000 C 
BRANCH  32  33
ATOM     33  O   UNL     1      60.391  67.848  71.153  0.00  0.00    +0.000 OA
ATOM     34  H   UNL     1      61.021  68.316  71.742  0.00  0.00    +0.000 HD
ENDBRANCH  32  33
ENDBRANCH  14  32
BRANCH   9  35
ATOM     35  C   UNL     1      54.545  61.623  65.677  0.00  0.00    +0.000 C 
BRANCH  35  36
ATOM     36  O   UNL     1      55.375  60.716  65.153  0.00  0.00    +0.000 OA
ATOM     37  H   UNL     1      56.196  61.135  64.835  0.00  0.00    +0.000 HD
ENDBRANCH  35  36
ENDBRANCH   9  35
TORSDOF 5
ENDMDL
MODEL 8
REMARK VINA RESULT:      -6.0     38.276     40.953
REMARK  Name = 73299_Hederagenin.pdbqt.pdb
REMARK  5 active torsions:
REMARK  status: ('A' for Active; 'I' for Inactive)
REMARK    1  A    between atoms: C_9  and  C_35
REMARK    2  A    between atoms: C_14  and  C_32
REMARK    3  A    between atoms: C_17  and  O_29
REMARK    4  A    between atoms: C_32  and  O_33
REMARK    5  A    between atoms: C_35  and  O_36
REMARK                            x       y       z     vdW  Elec       q    Type
REMARK                         _______ _______ _______ _____ _____    ______ ____
ROOT
ATOM      1  C   UNL     1      56.850  73.635  82.893  0.00  0.00    +0.000 C 
ATOM      2  C   UNL     1      57.418  72.156  82.824  0.00  0.00    +0.000 C 
ATOM      3  C   UNL     1      57.358  71.173  83.997  0.00  0.00    +0.000 C 
ATOM      4  C   UNL     1      57.839  74.721  82.129  0.00  0.00    +0.000 C 
ATOM      5  C   UNL     1      57.480  71.771  85.429  0.00  0.00    +0.000 C 
ATOM      6  C   UNL     1      56.733  73.939  84.324  0.00  0.00    +0.000 C 
ATOM      7  C   UNL     1      57.016  73.111  85.533  0.00  0.00    +0.000 C 
ATOM      8  C   UNL     1      58.274  74.218  80.647  0.00  0.00    +0.000 C 
ATOM      9  C   UNL     1      58.274  71.093  86.558  0.00  0.00    +0.000 C 
ATOM     10  C   UNL     1      58.344  75.082  79.448  0.00  0.00    +0.000 C 
ATOM     11  C   UNL     1      58.063  71.882  81.576  0.00  0.00    +0.000 C 
ATOM     12  C   UNL     1      58.451  70.211  83.893  0.00  0.00    +0.000 C 
ATOM     13  C   UNL     1      57.197  76.025  81.876  0.00  0.00    +0.000 C 
ATOM     14  C   UNL     1      57.372  76.398  79.229  0.00  0.00    +0.000 C 
ATOM     15  C   UNL     1      55.413  73.601  82.229  0.00  0.00    +0.000 C 
ATOM     16  C   UNL     1      57.011  76.795  80.590  0.00  0.00    +0.000 C 
ATOM     17  C   UNL     1      59.048  69.788  86.229  0.00  0.00    +0.000 C 
ATOM     18  C   UNL     1      58.426  72.928  80.561  0.00  0.00    +0.000 C 
ATOM     19  C   UNL     1      55.996  70.435  83.921  0.00  0.00    +0.000 C 
ATOM     20  C   UNL     1      59.303  69.486  84.880  0.00  0.00    +0.000 C 
ATOM     21  C   UNL     1      59.206  74.943  82.910  0.00  0.00    +0.000 C 
ATOM     22  C   UNL     1      59.603  75.126  78.705  0.00  0.00    +0.000 C 
ATOM     23  C   UNL     1      58.228  77.358  78.480  0.00  0.00    +0.000 C 
ATOM     24  C   UNL     1      60.509  75.993  77.862  0.00  0.00    +0.000 C 
ATOM     25  C   UNL     1      57.300  70.785  87.743  0.00  0.00    +0.000 C 
ATOM     26  C   UNL     1      59.630  77.206  77.835  0.00  0.00    +0.000 C 
ATOM     27  C   UNL     1      61.843  76.268  78.580  0.00  0.00    +0.000 C 
ATOM     28  C   UNL     1      60.711  75.398  76.457  0.00  0.00    +0.000 C 
ENDROOT
BRANCH  17  29
ATOM     29  O   UNL     1      59.218  68.796  87.181  0.00  0.00    +0.000 OA
ATOM     30  H   UNL     1      58.406  68.687  87.719  0.00  0.00    +0.000 HD
ENDBRANCH  17  29
BRANCH  14  32
ATOM     31  O   UNL     1      55.780  74.803  78.236  0.00  0.00    +0.000 OA
ATOM     32  C   UNL     1      56.174  75.953  78.382  0.00  0.00    +0.000 C 
BRANCH  32  33
ATOM     33  O   UNL     1      55.573  76.951  77.698  0.00  0.00    +0.000 OA
ATOM     34  H   UNL     1      55.871  76.841  76.769  0.00  0.00    +0.000 HD
ENDBRANCH  32  33
ENDBRANCH  14  32
BRANCH   9  35
ATOM     35  C   UNL     1      59.320  72.060  87.019  0.00  0.00    +0.000 C 
BRANCH  35  36
ATOM     36  O   UNL     1      60.259  72.912  87.439  0.00  0.00    +0.000 OA
ATOM     37  H   UNL     1      60.755  73.286  86.687  0.00  0.00    +0.000 HD
ENDBRANCH  35  36
ENDBRANCH   9  35
TORSDOF 5
ENDMDL
MODEL 9
REMARK VINA RESULT:      -5.9      2.544      8.232
REMARK  Name = 73299_Hederagenin.pdbqt.pdb
REMARK  5 active torsions:
REMARK  status: ('A' for Active; 'I' for Inactive)
REMARK    1  A    between atoms: C_9  and  C_35
REMARK    2  A    between atoms: C_14  and  C_32
REMARK    3  A    between atoms: C_17  and  O_29
REMARK    4  A    between atoms: C_32  and  O_33
REMARK    5  A    between atoms: C_35  and  O_36
REMARK                            x       y       z     vdW  Elec       q    Type
REMARK                         _______ _______ _______ _____ _____    ______ ____
ROOT
ATOM      1  C   UNL     1      56.560  34.002  65.003  0.00  0.00    +0.000 C 
ATOM      2  C   UNL     1      55.397  34.949  65.517  0.00  0.00    +0.000 C 
ATOM      3  C   UNL     1      53.928  34.776  65.116  0.00  0.00    +0.000 C 
ATOM      4  C   UNL     1      57.939  34.846  64.640  0.00  0.00    +0.000 C 
ATOM      5  C   UNL     1      53.644  34.241  63.682  0.00  0.00    +0.000 C 
ATOM      6  C   UNL     1      56.020  33.333  63.814  0.00  0.00    +0.000 C 
ATOM      7  C   UNL     1      54.679  33.414  63.163  0.00  0.00    +0.000 C 
ATOM      8  C   UNL     1      58.359  35.874  65.825  0.00  0.00    +0.000 C 
ATOM      9  C   UNL     1      52.500  34.766  62.800  0.00  0.00    +0.000 C 
ATOM     10  C   UNL     1      59.742  36.097  66.299  0.00  0.00    +0.000 C 
ATOM     11  C   UNL     1      55.890  36.024  66.323  0.00  0.00    +0.000 C 
ATOM     12  C   UNL     1      53.243  36.063  65.183  0.00  0.00    +0.000 C 
ATOM     13  C   UNL     1      59.130  33.989  64.488  0.00  0.00    +0.000 C 
ATOM     14  C   UNL     1      60.908  34.929  66.257  0.00  0.00    +0.000 C 
ATOM     15  C   UNL     1      56.822  32.941  66.147  0.00  0.00    +0.000 C 
ATOM     16  C   UNL     1      60.470  34.038  65.183  0.00  0.00    +0.000 C 
ATOM     17  C   UNL     1      51.635  35.937  63.340  0.00  0.00    +0.000 C 
ATOM     18  C   UNL     1      57.340  36.399  66.443  0.00  0.00    +0.000 C 
ATOM     19  C   UNL     1      53.283  33.782  66.115  0.00  0.00    +0.000 C 
ATOM     20  C   UNL     1      52.140  36.702  64.406  0.00  0.00    +0.000 C 
ATOM     21  C   UNL     1      57.765  35.753  63.346  0.00  0.00    +0.000 C 
ATOM     22  C   UNL     1      60.255  37.468  66.301  0.00  0.00    +0.000 C 
ATOM     23  C   UNL     1      62.165  35.683  66.001  0.00  0.00    +0.000 C 
ATOM     24  C   UNL     1      61.490  38.324  66.140  0.00  0.00    +0.000 C 
ATOM     25  C   UNL     1      51.539  33.578  62.463  0.00  0.00    +0.000 C 
ATOM     26  C   UNL     1      62.468  37.203  65.961  0.00  0.00    +0.000 C 
ATOM     27  C   UNL     1      61.394  39.207  64.882  0.00  0.00    +0.000 C 
ATOM     28  C   UNL     1      61.779  39.142  67.411  0.00  0.00    +0.000 C 
ENDROOT
BRANCH  17  29
ATOM     29  O   UNL     1      50.294  36.047  63.014  0.00  0.00    +0.000 OA
ATOM     30  H   UNL     1      50.000  36.981  63.059  0.00  0.00    +0.000 HD
ENDBRANCH  17  29
BRANCH  14  32
ATOM     31  O   UNL     1      60.092  33.503  68.092  0.00  0.00    +0.000 OA
ATOM     32  C   UNL     1      60.940  34.259  67.636  0.00  0.00    +0.000 C 
BRANCH  32  33
ATOM     33  O   UNL     1      61.989  34.621  68.407  0.00  0.00    +0.000 OA
ATOM     34  H   UNL     1      62.095  35.585  68.259  0.00  0.00    +0.000 HD
ENDBRANCH  32  33
ENDBRANCH  14  32
BRANCH   9  35
ATOM     35  C   UNL     1      53.107  35.284  61.533  0.00  0.00    +0.000 C 
BRANCH  35  36
ATOM     36  O   UNL     1      53.636  35.752  60.399  0.00  0.00    +0.000 OA
ATOM     37  H   UNL     1      53.709  36.724  60.421  0.00  0.00    +0.000 HD
ENDBRANCH  35  36
ENDBRANCH   9  35
TORSDOF 5
ENDMDL
