MODEL 1
REMARK VINA RESULT:      -7.2      0.000      0.000
REMARK  Name = 73659_MaslinicAcid.pdbqt.pdb
REMARK  4 active torsions:
REMARK  status: ('A' for Active; 'I' for Inactive)
REMARK    1  A    between atoms: C_14  and  C_35
REMARK    2  A    between atoms: C_17  and  O_30
REMARK    3  A    between atoms: C_19  and  O_32
REMARK    4  A    between atoms: C_35  and  O_36
REMARK                            x       y       z     vdW  Elec       q    Type
REMARK                         _______ _______ _______ _____ _____    ______ ____
ROOT
ATOM      1  C   UNL     1      57.290  73.675  80.196  0.00  0.00    +0.000 C 
ATOM      2  C   UNL     1      58.049  74.856  80.938  0.00  0.00    +0.000 C 
ATOM      3  C   UNL     1      58.640  76.068  80.211  0.00  0.00    +0.000 C 
ATOM      4  C   UNL     1      57.667  72.193  80.828  0.00  0.00    +0.000 C 
ATOM      5  C   UNL     1      59.174  75.845  78.791  0.00  0.00    +0.000 C 
ATOM      6  C   UNL     1      57.701  73.778  78.791  0.00  0.00    +0.000 C 
ATOM      7  C   UNL     1      58.573  74.766  78.090  0.00  0.00    +0.000 C 
ATOM      8  C   UNL     1      57.555  72.173  82.449  0.00  0.00    +0.000 C 
ATOM      9  C   UNL     1      60.365  76.650  78.291  0.00  0.00    +0.000 C 
ATOM     10  C   UNL     1      56.955  71.077  83.241  0.00  0.00    +0.000 C 
ATOM     11  C   UNL     1      58.182  74.616  82.342  0.00  0.00    +0.000 C 
ATOM     12  C   UNL     1      59.790  76.572  80.943  0.00  0.00    +0.000 C 
ATOM     13  C   UNL     1      56.747  71.122  80.403  0.00  0.00    +0.000 C 
ATOM     14  C   UNL     1      55.743  70.112  82.672  0.00  0.00    +0.000 C 
ATOM     15  C   UNL     1      55.742  73.981  80.326  0.00  0.00    +0.000 C 
ATOM     16  C   UNL     1      55.906  70.167  81.219  0.00  0.00    +0.000 C 
ATOM     17  C   UNL     1      61.269  77.362  79.329  0.00  0.00    +0.000 C 
ATOM     18  C   UNL     1      57.537  77.150  80.134  0.00  0.00    +0.000 C 
ATOM     19  C   UNL     1      61.024  77.175  80.719  0.00  0.00    +0.000 C 
ATOM     20  C   UNL     1      57.902  73.298  83.006  0.00  0.00    +0.000 C 
ATOM     21  C   UNL     1      59.166  71.771  80.510  0.00  0.00    +0.000 C 
ATOM     22  C   UNL     1      57.758  70.478  84.307  0.00  0.00    +0.000 C 
ATOM     23  C   UNL     1      56.006  68.792  83.305  0.00  0.00    +0.000 C 
ATOM     24  C   UNL     1      58.043  69.206  85.072  0.00  0.00    +0.000 C 
ATOM     25  C   UNL     1      61.339  75.680  77.536  0.00  0.00    +0.000 C 
ATOM     26  C   UNL     1      59.870  77.730  77.287  0.00  0.00    +0.000 C 
ATOM     27  C   UNL     1      57.013  68.351  84.398  0.00  0.00    +0.000 C 
ATOM     28  C   UNL     1      57.754  69.376  86.575  0.00  0.00    +0.000 C 
ATOM     29  C   UNL     1      59.472  68.702  84.801  0.00  0.00    +0.000 C 
ENDROOT
BRANCH  17  30
ATOM     30  O   UNL     1      62.317  78.213  78.984  0.00  0.00    +0.000 OA
ATOM     31  H   UNL     1      63.160  77.721  78.906  0.00  0.00    +0.000 HD
ENDBRANCH  17  30
BRANCH  19  32
ATOM     32  O   UNL     1      61.676  77.925  81.650  0.00  0.00    +0.000 OA
ATOM     33  H   UNL     1      62.643  77.802  81.586  0.00  0.00    +0.000 HD
ENDBRANCH  19  32
BRANCH  14  35
ATOM     34  O   UNL     1      53.857  71.697  82.715  0.00  0.00    +0.000 OA
ATOM     35  C   UNL     1      54.413  70.701  83.158  0.00  0.00    +0.000 C 
BRANCH  35  36
ATOM     36  O   UNL     1      53.879  70.061  84.223  0.00  0.00    +0.000 OA
ATOM     37  H   UNL     1      53.803  70.748  84.921  0.00  0.00    +0.000 HD
ENDBRANCH  35  36
ENDBRANCH  14  35
TORSDOF 4
ENDMDL
MODEL 2
REMARK VINA RESULT:      -7.0     35.776     38.912
REMARK  Name = 73659_MaslinicAcid.pdbqt.pdb
REMARK  4 active torsions:
REMARK  status: ('A' for Active; 'I' for Inactive)
REMARK    1  A    between atoms: C_14  and  C_35
REMARK    2  A    between atoms: C_17  and  O_30
REMARK    3  A    between atoms: C_19  and  O_32
REMARK    4  A    between atoms: C_35  and  O_36
REMARK                            x       y       z     vdW  Elec       q    Type
REMARK                         _______ _______ _______ _____ _____    ______ ____
ROOT
ATOM      1  C   UNL     1      60.955  37.584  67.030  0.00  0.00    +0.000 C 
ATOM      2  C   UNL     1      60.637  38.503  68.286  0.00  0.00    +0.000 C 
ATOM      3  C   UNL     1      61.716  39.058  69.221  0.00  0.00    +0.000 C 
ATOM      4  C   UNL     1      59.854  36.361  66.853  0.00  0.00    +0.000 C 
ATOM      5  C   UNL     1      62.966  38.199  69.441  0.00  0.00    +0.000 C 
ATOM      6  C   UNL     1      62.304  37.058  67.272  0.00  0.00    +0.000 C 
ATOM      7  C   UNL     1      63.277  37.313  68.375  0.00  0.00    +0.000 C 
ATOM      8  C   UNL     1      58.323  36.900  66.941  0.00  0.00    +0.000 C 
ATOM      9  C   UNL     1      63.681  38.226  70.784  0.00  0.00    +0.000 C 
ATOM     10  C   UNL     1      57.222  36.467  66.053  0.00  0.00    +0.000 C 
ATOM     11  C   UNL     1      59.231  38.683  68.481  0.00  0.00    +0.000 C 
ATOM     12  C   UNL     1      61.170  39.233  70.557  0.00  0.00    +0.000 C 
ATOM     13  C   UNL     1      59.914  35.704  65.534  0.00  0.00    +0.000 C 
ATOM     14  C   UNL     1      57.460  35.977  64.495  0.00  0.00    +0.000 C 
ATOM     15  C   UNL     1      60.970  38.536  65.766  0.00  0.00    +0.000 C 
ATOM     16  C   UNL     1      58.843  35.500  64.487  0.00  0.00    +0.000 C 
ATOM     17  C   UNL     1      62.923  38.778  72.018  0.00  0.00    +0.000 C 
ATOM     18  C   UNL     1      62.176  40.419  68.647  0.00  0.00    +0.000 C 
ATOM     19  C   UNL     1      61.556  39.157  71.891  0.00  0.00    +0.000 C 
ATOM     20  C   UNL     1      58.169  37.887  67.778  0.00  0.00    +0.000 C 
ATOM     21  C   UNL     1      59.979  35.272  68.003  0.00  0.00    +0.000 C 
ATOM     22  C   UNL     1      56.000  35.954  66.671  0.00  0.00    +0.000 C 
ATOM     23  C   UNL     1      56.415  34.941  64.279  0.00  0.00    +0.000 C 
ATOM     24  C   UNL     1      54.846  34.991  66.511  0.00  0.00    +0.000 C 
ATOM     25  C   UNL     1      64.045  36.754  71.184  0.00  0.00    +0.000 C 
ATOM     26  C   UNL     1      65.000  39.039  70.646  0.00  0.00    +0.000 C 
ATOM     27  C   UNL     1      55.216  34.485  65.150  0.00  0.00    +0.000 C 
ATOM     28  C   UNL     1      53.494  35.728  66.502  0.00  0.00    +0.000 C 
ATOM     29  C   UNL     1      54.901  33.875  67.570  0.00  0.00    +0.000 C 
ENDROOT
BRANCH  17  30
ATOM     30  O   UNL     1      63.511  38.953  73.269  0.00  0.00    +0.000 OA
ATOM     31  H   UNL     1      64.236  38.311  73.412  0.00  0.00    +0.000 HD
ENDBRANCH  17  30
BRANCH  19  32
ATOM     32  O   UNL     1      60.918  39.814  72.899  0.00  0.00    +0.000 OA
ATOM     33  H   UNL     1      60.611  39.190  73.585  0.00  0.00    +0.000 HD
ENDBRANCH  19  32
BRANCH  14  35
ATOM     34  O   UNL     1      56.165  37.765  63.401  0.00  0.00    +0.000 OA
ATOM     35  C   UNL     1      57.230  37.190  63.586  0.00  0.00    +0.000 C 
BRANCH  35  36
ATOM     36  O   UNL     1      58.323  37.582  62.895  0.00  0.00    +0.000 OA
ATOM     37  H   UNL     1      57.976  38.128  62.156  0.00  0.00    +0.000 HD
ENDBRANCH  35  36
ENDBRANCH  14  35
TORSDOF 4
ENDMDL
MODEL 3
REMARK VINA RESULT:      -6.8      6.529     12.613
REMARK  Name = 73659_MaslinicAcid.pdbqt.pdb
REMARK  4 active torsions:
REMARK  status: ('A' for Active; 'I' for Inactive)
REMARK    1  A    between atoms: C_14  and  C_35
REMARK    2  A    between atoms: C_17  and  O_30
REMARK    3  A    between atoms: C_19  and  O_32
REMARK    4  A    between atoms: C_35  and  O_36
REMARK                            x       y       z     vdW  Elec       q    Type
REMARK                         _______ _______ _______ _____ _____    ______ ____
ROOT
ATOM      1  C   UNL     1      54.575  63.025  85.225  0.00  0.00    +0.000 C 
ATOM      2  C   UNL     1      54.628  62.702  83.670  0.00  0.00    +0.000 C 
ATOM      3  C   UNL     1      54.453  61.294  83.094  0.00  0.00    +0.000 C 
ATOM      4  C   UNL     1      55.709  64.144  85.671  0.00  0.00    +0.000 C 
ATOM      5  C   UNL     1      54.957  60.119  83.940  0.00  0.00    +0.000 C 
ATOM      6  C   UNL     1      54.803  61.737  85.891  0.00  0.00    +0.000 C 
ATOM      7  C   UNL     1      54.986  60.362  85.340  0.00  0.00    +0.000 C 
ATOM      8  C   UNL     1      55.700  65.445  84.698  0.00  0.00    +0.000 C 
ATOM      9  C   UNL     1      55.516  58.878  83.262  0.00  0.00    +0.000 C 
ATOM     10  C   UNL     1      55.809  66.847  85.159  0.00  0.00    +0.000 C 
ATOM     11  C   UNL     1      54.933  63.861  82.888  0.00  0.00    +0.000 C 
ATOM     12  C   UNL     1      55.195  61.173  81.850  0.00  0.00    +0.000 C 
ATOM     13  C   UNL     1      55.476  64.713  87.012  0.00  0.00    +0.000 C 
ATOM     14  C   UNL     1      55.266  67.356  86.632  0.00  0.00    +0.000 C 
ATOM     15  C   UNL     1      53.108  63.534  85.530  0.00  0.00    +0.000 C 
ATOM     16  C   UNL     1      55.307  66.148  87.456  0.00  0.00    +0.000 C 
ATOM     17  C   UNL     1      55.954  58.974  81.779  0.00  0.00    +0.000 C 
ATOM     18  C   UNL     1      52.942  61.077  82.840  0.00  0.00    +0.000 C 
ATOM     19  C   UNL     1      55.911  60.234  81.115  0.00  0.00    +0.000 C 
ATOM     20  C   UNL     1      55.425  65.161  83.456  0.00  0.00    +0.000 C 
ATOM     21  C   UNL     1      57.186  63.567  85.582  0.00  0.00    +0.000 C 
ATOM     22  C   UNL     1      56.856  67.684  84.575  0.00  0.00    +0.000 C 
ATOM     23  C   UNL     1      56.218  68.434  87.014  0.00  0.00    +0.000 C 
ATOM     24  C   UNL     1      57.807  68.831  84.832  0.00  0.00    +0.000 C 
ATOM     25  C   UNL     1      56.819  58.442  84.019  0.00  0.00    +0.000 C 
ATOM     26  C   UNL     1      54.478  57.724  83.367  0.00  0.00    +0.000 C 
ATOM     27  C   UNL     1      57.355  69.135  86.228  0.00  0.00    +0.000 C 
ATOM     28  C   UNL     1      57.543  70.007  83.874  0.00  0.00    +0.000 C 
ATOM     29  C   UNL     1      59.272  68.359  84.795  0.00  0.00    +0.000 C 
ENDROOT
BRANCH  17  30
ATOM     30  O   UNL     1      56.375  57.880  81.026  0.00  0.00    +0.000 OA
ATOM     31  H   UNL     1      57.142  58.114  80.462  0.00  0.00    +0.000 HD
ENDBRANCH  17  30
BRANCH  19  32
ATOM     32  O   UNL     1      56.110  60.321  79.770  0.00  0.00    +0.000 OA
ATOM     33  H   UNL     1      56.656  61.099  79.546  0.00  0.00    +0.000 HD
ENDBRANCH  19  32
BRANCH  14  35
ATOM     34  O   UNL     1      52.895  67.314  85.964  0.00  0.00    +0.000 OA
ATOM     35  C   UNL     1      53.851  67.913  86.438  0.00  0.00    +0.000 C 
BRANCH  35  36
ATOM     36  O   UNL     1      53.716  69.215  86.777  0.00  0.00    +0.000 OA
ATOM     37  H   UNL     1      54.050  69.275  87.698  0.00  0.00    +0.000 HD
ENDBRANCH  35  36
ENDBRANCH  14  35
TORSDOF 4
ENDMDL
MODEL 4
REMARK VINA RESULT:      -6.7     12.229     16.230
REMARK  Name = 73659_MaslinicAcid.pdbqt.pdb
REMARK  4 active torsions:
REMARK  status: ('A' for Active; 'I' for Inactive)
REMARK    1  A    between atoms: C_14  and  C_35
REMARK    2  A    between atoms: C_17  and  O_30
REMARK    3  A    between atoms: C_19  and  O_32
REMARK    4  A    between atoms: C_35  and  O_36
REMARK                            x       y       z     vdW  Elec       q    Type
REMARK                         _______ _______ _______ _____ _____    ______ ____
ROOT
ATOM      1  C   UNL     1      61.448  67.942  67.408  0.00  0.00    +0.000 C 
ATOM      2  C   UNL     1      60.606  67.472  68.670  0.00  0.00    +0.000 C 
ATOM      3  C   UNL     1      59.703  66.234  68.668  0.00  0.00    +0.000 C 
ATOM      4  C   UNL     1      61.444  69.588  67.231  0.00  0.00    +0.000 C 
ATOM      5  C   UNL     1      59.013  65.868  67.350  0.00  0.00    +0.000 C 
ATOM      6  C   UNL     1      60.821  67.278  66.260  0.00  0.00    +0.000 C 
ATOM      7  C   UNL     1      59.689  66.308  66.180  0.00  0.00    +0.000 C 
ATOM      8  C   UNL     1      61.798  70.354  68.619  0.00  0.00    +0.000 C 
ATOM      9  C   UNL     1      57.636  65.223  67.365  0.00  0.00    +0.000 C 
ATOM     10  C   UNL     1      62.698  71.522  68.735  0.00  0.00    +0.000 C 
ATOM     11  C   UNL     1      60.729  68.378  69.771  0.00  0.00    +0.000 C 
ATOM     12  C   UNL     1      58.602  66.423  69.599  0.00  0.00    +0.000 C 
ATOM     13  C   UNL     1      62.470  70.079  66.293  0.00  0.00    +0.000 C 
ATOM     14  C   UNL     1      63.967  71.787  67.713  0.00  0.00    +0.000 C 
ATOM     15  C   UNL     1      62.916  67.387  67.613  0.00  0.00    +0.000 C 
ATOM     16  C   UNL     1      63.583  71.083  66.489  0.00  0.00    +0.000 C 
ATOM     17  C   UNL     1      56.781  65.324  68.654  0.00  0.00    +0.000 C 
ATOM     18  C   UNL     1      60.567  65.026  69.099  0.00  0.00    +0.000 C 
ATOM     19  C   UNL     1      57.260  66.092  69.754  0.00  0.00    +0.000 C 
ATOM     20  C   UNL     1      61.339  69.747  69.677  0.00  0.00    +0.000 C 
ATOM     21  C   UNL     1      60.017  70.139  66.803  0.00  0.00    +0.000 C 
ATOM     22  C   UNL     1      62.184  72.724  69.389  0.00  0.00    +0.000 C 
ATOM     23  C   UNL     1      64.045  73.269  67.612  0.00  0.00    +0.000 C 
ATOM     24  C   UNL     1      62.252  74.235  69.428  0.00  0.00    +0.000 C 
ATOM     25  C   UNL     1      56.753  65.909  66.264  0.00  0.00    +0.000 C 
ATOM     26  C   UNL     1      57.772  63.713  67.015  0.00  0.00    +0.000 C 
ATOM     27  C   UNL     1      63.308  74.398  68.377  0.00  0.00    +0.000 C 
ATOM     28  C   UNL     1      62.725  74.742  70.802  0.00  0.00    +0.000 C 
ATOM     29  C   UNL     1      60.914  74.863  68.997  0.00  0.00    +0.000 C 
ENDROOT
BRANCH  17  30
ATOM     30  O   UNL     1      55.557  64.681  68.821  0.00  0.00    +0.000 OA
ATOM     31  H   UNL     1      55.682  63.760  69.132  0.00  0.00    +0.000 HD
ENDBRANCH  17  30
BRANCH  19  32
ATOM     32  O   UNL     1      56.629  66.052  70.960  0.00  0.00    +0.000 OA
ATOM     33  H   UNL     1      56.783  65.198  71.409  0.00  0.00    +0.000 HD
ENDBRANCH  19  32
BRANCH  14  35
ATOM     34  O   UNL     1      65.849  71.713  69.302  0.00  0.00    +0.000 OA
ATOM     35  C   UNL     1      65.225  71.213  68.376  0.00  0.00    +0.000 C 
BRANCH  35  36
ATOM     36  O   UNL     1      65.686  70.079  67.802  0.00  0.00    +0.000 OA
ATOM     37  H   UNL     1      65.084  69.913  67.044  0.00  0.00    +0.000 HD
ENDBRANCH  35  36
ENDBRANCH  14  35
TORSDOF 4
ENDMDL
MODEL 5
REMARK VINA RESULT:      -6.7     30.029     31.973
REMARK  Name = 73659_MaslinicAcid.pdbqt.pdb
REMARK  4 active torsions:
REMARK  status: ('A' for Active; 'I' for Inactive)
REMARK    1  A    between atoms: C_14  and  C_35
REMARK    2  A    between atoms: C_17  and  O_30
REMARK    3  A    between atoms: C_19  and  O_32
REMARK    4  A    between atoms: C_35  and  O_36
REMARK                            x       y       z     vdW  Elec       q    Type
REMARK                         _______ _______ _______ _____ _____    ______ ____
ROOT
ATOM      1  C   UNL     1      63.180  52.056  58.794  0.00  0.00    +0.000 C 
ATOM      2  C   UNL     1      63.094  51.765  57.234  0.00  0.00    +0.000 C 
ATOM      3  C   UNL     1      63.759  50.559  56.563  0.00  0.00    +0.000 C 
ATOM      4  C   UNL     1      63.375  53.667  59.120  0.00  0.00    +0.000 C 
ATOM      5  C   UNL     1      65.071  50.050  57.170  0.00  0.00    +0.000 C 
ATOM      6  C   UNL     1      64.326  51.272  59.267  0.00  0.00    +0.000 C 
ATOM      7  C   UNL     1      65.235  50.326  58.554  0.00  0.00    +0.000 C 
ATOM      8  C   UNL     1      62.314  54.589  58.305  0.00  0.00    +0.000 C 
ATOM      9  C   UNL     1      66.140  49.445  56.273  0.00  0.00    +0.000 C 
ATOM     10  C   UNL     1      61.581  55.741  58.876  0.00  0.00    +0.000 C 
ATOM     11  C   UNL     1      62.396  52.796  56.530  0.00  0.00    +0.000 C 
ATOM     12  C   UNL     1      64.111  50.888  55.192  0.00  0.00    +0.000 C 
ATOM     13  C   UNL     1      63.123  54.014  60.531  0.00  0.00    +0.000 C 
ATOM     14  C   UNL     1      61.171  55.847  60.471  0.00  0.00    +0.000 C 
ATOM     15  C   UNL     1      61.845  51.494  59.431  0.00  0.00    +0.000 C 
ATOM     16  C   UNL     1      62.162  55.008  61.143  0.00  0.00    +0.000 C 
ATOM     17  C   UNL     1      66.079  49.726  54.750  0.00  0.00    +0.000 C 
ATOM     18  C   UNL     1      62.744  49.392  56.591  0.00  0.00    +0.000 C 
ATOM     19  C   UNL     1      65.086  50.610  54.239  0.00  0.00    +0.000 C 
ATOM     20  C   UNL     1      62.031  54.128  57.119  0.00  0.00    +0.000 C 
ATOM     21  C   UNL     1      64.808  54.196  58.684  0.00  0.00    +0.000 C 
ATOM     22  C   UNL     1      61.675  57.026  58.186  0.00  0.00    +0.000 C 
ATOM     23  C   UNL     1      61.245  57.303  60.766  0.00  0.00    +0.000 C 
ATOM     24  C   UNL     1      61.677  58.528  58.366  0.00  0.00    +0.000 C 
ATOM     25  C   UNL     1      67.536  50.012  56.711  0.00  0.00    +0.000 C 
ATOM     26  C   UNL     1      66.156  47.901  56.462  0.00  0.00    +0.000 C 
ATOM     27  C   UNL     1      61.451  58.535  59.848  0.00  0.00    +0.000 C 
ATOM     28  C   UNL     1      60.515  59.189  57.604  0.00  0.00    +0.000 C 
ATOM     29  C   UNL     1      63.045  59.130  57.994  0.00  0.00    +0.000 C 
ENDROOT
BRANCH  17  30
ATOM     30  O   UNL     1      66.935  49.138  53.822  0.00  0.00    +0.000 OA
ATOM     31  H   UNL     1      66.752  49.465  52.916  0.00  0.00    +0.000 HD
ENDBRANCH  17  30
BRANCH  19  32
ATOM     32  O   UNL     1      64.886  50.734  52.898  0.00  0.00    +0.000 OA
ATOM     33  H   UNL     1      65.185  49.935  52.423  0.00  0.00    +0.000 HD
ENDBRANCH  19  32
BRANCH  14  35
ATOM     34  O   UNL     1      59.026  54.896  59.717  0.00  0.00    +0.000 OA
ATOM     35  C   UNL     1      59.735  55.328  60.616  0.00  0.00    +0.000 C 
BRANCH  35  36
ATOM     36  O   UNL     1      59.227  55.442  61.864  0.00  0.00    +0.000 OA
ATOM     37  H   UNL     1      58.291  55.709  61.735  0.00  0.00    +0.000 HD
ENDBRANCH  35  36
ENDBRANCH  14  35
TORSDOF 4
ENDMDL
MODEL 6
REMARK VINA RESULT:      -6.6     34.887     38.529
REMARK  Name = 73659_MaslinicAcid.pdbqt.pdb
REMARK  4 active torsions:
REMARK  status: ('A' for Active; 'I' for Inactive)
REMARK    1  A    between atoms: C_14  and  C_35
REMARK    2  A    between atoms: C_17  and  O_30
REMARK    3  A    between atoms: C_19  and  O_32
REMARK    4  A    between atoms: C_35  and  O_36
REMARK                            x       y       z     vdW  Elec       q    Type
REMARK                         _______ _______ _______ _____ _____    ______ ____
ROOT
ATOM      1  C   UNL     1      51.332  38.034  68.684  0.00  0.00    +0.000 C 
ATOM      2  C   UNL     1      52.367  38.004  69.889  0.00  0.00    +0.000 C 
ATOM      3  C   UNL     1      52.141  38.741  71.213  0.00  0.00    +0.000 C 
ATOM      4  C   UNL     1      52.086  38.147  67.215  0.00  0.00    +0.000 C 
ATOM      5  C   UNL     1      51.358  40.058  71.162  0.00  0.00    +0.000 C 
ATOM      6  C   UNL     1      50.480  39.201  68.939  0.00  0.00    +0.000 C 
ATOM      7  C   UNL     1      50.452  40.171  70.074  0.00  0.00    +0.000 C 
ATOM      8  C   UNL     1      53.291  37.068  67.061  0.00  0.00    +0.000 C 
ATOM      9  C   UNL     1      51.687  41.177  72.137  0.00  0.00    +0.000 C 
ATOM     10  C   UNL     1      53.561  36.269  65.846  0.00  0.00    +0.000 C 
ATOM     11  C   UNL     1      53.556  37.280  69.563  0.00  0.00    +0.000 C 
ATOM     12  C   UNL     1      53.419  39.116  71.795  0.00  0.00    +0.000 C 
ATOM     13  C   UNL     1      51.200  37.841  66.076  0.00  0.00    +0.000 C 
ATOM     14  C   UNL     1      52.379  35.810  64.788  0.00  0.00    +0.000 C 
ATOM     15  C   UNL     1      50.474  36.708  68.793  0.00  0.00    +0.000 C 
ATOM     16  C   UNL     1      51.337  36.820  64.970  0.00  0.00    +0.000 C 
ATOM     17  C   UNL     1      53.051  41.145  72.874  0.00  0.00    +0.000 C 
ATOM     18  C   UNL     1      51.383  37.779  72.159  0.00  0.00    +0.000 C 
ATOM     19  C   UNL     1      53.996  40.128  72.555  0.00  0.00    +0.000 C 
ATOM     20  C   UNL     1      53.927  36.839  68.175  0.00  0.00    +0.000 C 
ATOM     21  C   UNL     1      52.767  39.566  66.999  0.00  0.00    +0.000 C 
ATOM     22  C   UNL     1      54.904  36.323  65.270  0.00  0.00    +0.000 C 
ATOM     23  C   UNL     1      53.060  35.811  63.465  0.00  0.00    +0.000 C 
ATOM     24  C   UNL     1      55.701  36.253  63.987  0.00  0.00    +0.000 C 
ATOM     25  C   UNL     1      51.710  42.534  71.349  0.00  0.00    +0.000 C 
ATOM     26  C   UNL     1      50.575  41.258  73.222  0.00  0.00    +0.000 C 
ATOM     27  C   UNL     1      54.548  35.985  63.068  0.00  0.00    +0.000 C 
ATOM     28  C   UNL     1      56.702  35.084  64.009  0.00  0.00    +0.000 C 
ATOM     29  C   UNL     1      56.378  37.601  63.678  0.00  0.00    +0.000 C 
ENDROOT
BRANCH  17  30
ATOM     30  O   UNL     1      53.414  42.052  73.867  0.00  0.00    +0.000 OA
ATOM     31  H   UNL     1      53.975  41.625  74.547  0.00  0.00    +0.000 HD
ENDBRANCH  17  30
BRANCH  19  32
ATOM     32  O   UNL     1      55.119  39.959  73.307  0.00  0.00    +0.000 OA
ATOM     33  H   UNL     1      54.971  40.246  74.229  0.00  0.00    +0.000 HD
ENDBRANCH  19  32
BRANCH  14  35
ATOM     34  O   UNL     1      50.825  34.074  65.588  0.00  0.00    +0.000 OA
ATOM     35  C   UNL     1      51.932  34.396  65.176  0.00  0.00    +0.000 C 
BRANCH  35  36
ATOM     36  O   UNL     1      52.909  33.465  65.103  0.00  0.00    +0.000 OA
ATOM     37  H   UNL     1      53.090  33.211  66.034  0.00  0.00    +0.000 HD
ENDBRANCH  35  36
ENDBRANCH  14  35
TORSDOF 4
ENDMDL
MODEL 7
REMARK VINA RESULT:      -6.6     23.964     25.786
REMARK  Name = 73659_MaslinicAcid.pdbqt.pdb
REMARK  4 active torsions:
REMARK  status: ('A' for Active; 'I' for Inactive)
REMARK    1  A    between atoms: C_14  and  C_35
REMARK    2  A    between atoms: C_17  and  O_30
REMARK    3  A    between atoms: C_19  and  O_32
REMARK    4  A    between atoms: C_35  and  O_36
REMARK                            x       y       z     vdW  Elec       q    Type
REMARK                         _______ _______ _______ _____ _____    ______ ____
ROOT
ATOM      1  C   UNL     1      70.797  57.693  64.146  0.00  0.00    +0.000 C 
ATOM      2  C   UNL     1      69.709  58.638  64.815  0.00  0.00    +0.000 C 
ATOM      3  C   UNL     1      69.082  59.840  64.103  0.00  0.00    +0.000 C 
ATOM      4  C   UNL     1      71.984  57.253  65.211  0.00  0.00    +0.000 C 
ATOM      5  C   UNL     1      69.957  60.597  63.097  0.00  0.00    +0.000 C 
ATOM      6  C   UNL     1      71.342  58.470  63.027  0.00  0.00    +0.000 C 
ATOM      7  C   UNL     1      70.987  59.821  62.500  0.00  0.00    +0.000 C 
ATOM      8  C   UNL     1      71.375  56.712  66.617  0.00  0.00    +0.000 C 
ATOM      9  C   UNL     1      69.785  62.097  62.916  0.00  0.00    +0.000 C 
ATOM     10  C   UNL     1      71.873  55.532  67.356  0.00  0.00    +0.000 C 
ATOM     11  C   UNL     1      69.446  58.280  66.176  0.00  0.00    +0.000 C 
ATOM     12  C   UNL     1      68.712  60.854  65.077  0.00  0.00    +0.000 C 
ATOM     13  C   UNL     1      72.810  56.128  64.736  0.00  0.00    +0.000 C 
ATOM     14  C   UNL     1      72.573  54.233  66.615  0.00  0.00    +0.000 C 
ATOM     15  C   UNL     1      70.019  56.431  63.593  0.00  0.00    +0.000 C 
ATOM     16  C   UNL     1      73.104  54.787  65.370  0.00  0.00    +0.000 C 
ATOM     17  C   UNL     1      69.045  62.899  64.017  0.00  0.00    +0.000 C 
ATOM     18  C   UNL     1      67.829  59.336  63.350  0.00  0.00    +0.000 C 
ATOM     19  C   UNL     1      68.629  62.236  65.207  0.00  0.00    +0.000 C 
ATOM     20  C   UNL     1      70.282  57.323  66.977  0.00  0.00    +0.000 C 
ATOM     21  C   UNL     1      72.918  58.476  65.605  0.00  0.00    +0.000 C 
ATOM     22  C   UNL     1      72.250  55.706  68.758  0.00  0.00    +0.000 C 
ATOM     23  C   UNL     1      73.583  53.758  67.597  0.00  0.00    +0.000 C 
ATOM     24  C   UNL     1      73.176  55.233  69.856  0.00  0.00    +0.000 C 
ATOM     25  C   UNL     1      71.206  62.757  62.850  0.00  0.00    +0.000 C 
ATOM     26  C   UNL     1      69.053  62.371  61.570  0.00  0.00    +0.000 C 
ATOM     27  C   UNL     1      73.870  54.167  69.065  0.00  0.00    +0.000 C 
ATOM     28  C   UNL     1      72.390  54.648  71.044  0.00  0.00    +0.000 C 
ATOM     29  C   UNL     1      74.145  56.351  70.285  0.00  0.00    +0.000 C 
ENDROOT
BRANCH  17  30
ATOM     30  O   UNL     1      68.732  64.252  63.908  0.00  0.00    +0.000 OA
ATOM     31  H   UNL     1      67.905  64.463  64.388  0.00  0.00    +0.000 HD
ENDBRANCH  17  30
BRANCH  19  32
ATOM     32  O   UNL     1      67.820  62.861  66.107  0.00  0.00    +0.000 OA
ATOM     33  H   UNL     1      68.331  63.179  66.877  0.00  0.00    +0.000 HD
ENDBRANCH  19  32
BRANCH  14  35
ATOM     34  O   UNL     1      70.404  53.357  65.839  0.00  0.00    +0.000 OA
ATOM     35  C   UNL     1      71.480  53.180  66.395  0.00  0.00    +0.000 C 
BRANCH  35  36
ATOM     36  O   UNL     1      71.751  51.975  66.945  0.00  0.00    +0.000 OA
ATOM     37  H   UNL     1      71.154  51.345  66.486  0.00  0.00    +0.000 HD
ENDBRANCH  35  36
ENDBRANCH  14  35
TORSDOF 4
ENDMDL
MODEL 8
REMARK VINA RESULT:      -6.5     42.672     45.995
REMARK  Name = 73659_MaslinicAcid.pdbqt.pdb
REMARK  4 active torsions:
REMARK  status: ('A' for Active; 'I' for Inactive)
REMARK    1  A    between atoms: C_14  and  C_35
REMARK    2  A    between atoms: C_17  and  O_30
REMARK    3  A    between atoms: C_19  and  O_32
REMARK    4  A    between atoms: C_35  and  O_36
REMARK                            x       y       z     vdW  Elec       q    Type
REMARK                         _______ _______ _______ _____ _____    ______ ____
ROOT
ATOM      1  C   UNL     1      51.092  35.264  60.334  0.00  0.00    +0.000 C 
ATOM      2  C   UNL     1      49.711  34.584  60.726  0.00  0.00    +0.000 C 
ATOM      3  C   UNL     1      48.898  34.976  61.964  0.00  0.00    +0.000 C 
ATOM      4  C   UNL     1      52.190  34.167  59.761  0.00  0.00    +0.000 C 
ATOM      5  C   UNL     1      49.677  35.444  63.198  0.00  0.00    +0.000 C 
ATOM      6  C   UNL     1      51.567  35.904  61.567  0.00  0.00    +0.000 C 
ATOM      7  C   UNL     1      50.948  36.015  62.921  0.00  0.00    +0.000 C 
ATOM      8  C   UNL     1      51.552  33.200  58.622  0.00  0.00    +0.000 C 
ATOM      9  C   UNL     1      49.144  35.148  64.592  0.00  0.00    +0.000 C 
ATOM     10  C   UNL     1      52.233  32.806  57.369  0.00  0.00    +0.000 C 
ATOM     11  C   UNL     1      49.362  33.519  59.837  0.00  0.00    +0.000 C 
ATOM     12  C   UNL     1      48.140  33.830  62.441  0.00  0.00    +0.000 C 
ATOM     13  C   UNL     1      53.341  34.790  59.082  0.00  0.00    +0.000 C 
ATOM     14  C   UNL     1      53.346  33.759  56.610  0.00  0.00    +0.000 C 
ATOM     15  C   UNL     1      50.759  36.369  59.251  0.00  0.00    +0.000 C 
ATOM     16  C   UNL     1      53.884  34.592  57.685  0.00  0.00    +0.000 C 
ATOM     17  C   UNL     1      48.072  34.040  64.758  0.00  0.00    +0.000 C 
ATOM     18  C   UNL     1      47.940  36.118  61.551  0.00  0.00    +0.000 C 
ATOM     19  C   UNL     1      47.681  33.268  63.627  0.00  0.00    +0.000 C 
ATOM     20  C   UNL     1      50.297  32.916  58.828  0.00  0.00    +0.000 C 
ATOM     21  C   UNL     1      52.705  33.186  60.900  0.00  0.00    +0.000 C 
ATOM     22  C   UNL     1      52.348  31.380  57.069  0.00  0.00    +0.000 C 
ATOM     23  C   UNL     1      54.296  32.790  56.002  0.00  0.00    +0.000 C 
ATOM     24  C   UNL     1      53.201  30.323  56.404  0.00  0.00    +0.000 C 
ATOM     25  C   UNL     1      50.337  34.664  65.488  0.00  0.00    +0.000 C 
ATOM     26  C   UNL     1      48.564  36.453  65.208  0.00  0.00    +0.000 C 
ATOM     27  C   UNL     1      54.256  31.245  55.873  0.00  0.00    +0.000 C 
ATOM     28  C   UNL     1      52.437  29.611  55.273  0.00  0.00    +0.000 C 
ATOM     29  C   UNL     1      53.773  29.337  57.440  0.00  0.00    +0.000 C 
ENDROOT
BRANCH  17  30
ATOM     30  O   UNL     1      47.434  33.759  65.964  0.00  0.00    +0.000 OA
ATOM     31  H   UNL     1      48.079  33.484  66.649  0.00  0.00    +0.000 HD
ENDBRANCH  17  30
BRANCH  19  32
ATOM     32  O   UNL     1      46.617  32.420  63.696  0.00  0.00    +0.000 OA
ATOM     33  H   UNL     1      46.061  32.487  62.896  0.00  0.00    +0.000 HD
ENDBRANCH  19  32
BRANCH  14  35
ATOM     34  O   UNL     1      52.859  34.560  54.331  0.00  0.00    +0.000 OA
ATOM     35  C   UNL     1      52.610  34.560  55.529  0.00  0.00    +0.000 C 
BRANCH  35  36
ATOM     36  O   UNL     1      51.647  35.381  56.005  0.00  0.00    +0.000 OA
ATOM     37  H   UNL     1      50.818  35.077  55.575  0.00  0.00    +0.000 HD
ENDBRANCH  35  36
ENDBRANCH  14  35
TORSDOF 4
ENDMDL
MODEL 9
REMARK VINA RESULT:      -6.2      2.541      8.051
REMARK  Name = 73659_MaslinicAcid.pdbqt.pdb
REMARK  4 active torsions:
REMARK  status: ('A' for Active; 'I' for Inactive)
REMARK    1  A    between atoms: C_14  and  C_35
REMARK    2  A    between atoms: C_17  and  O_30
REMARK    3  A    between atoms: C_19  and  O_32
REMARK    4  A    between atoms: C_35  and  O_36
REMARK                            x       y       z     vdW  Elec       q    Type
REMARK                         _______ _______ _______ _____ _____    ______ ____
ROOT
ATOM      1  C   UNL     1      56.064  72.350  82.062  0.00  0.00    +0.000 C 
ATOM      2  C   UNL     1      57.144  71.251  82.450  0.00  0.00    +0.000 C 
ATOM      3  C   UNL     1      56.975  70.278  83.620  0.00  0.00    +0.000 C 
ATOM      4  C   UNL     1      56.761  73.784  81.620  0.00  0.00    +0.000 C 
ATOM      5  C   UNL     1      56.200  70.777  84.845  0.00  0.00    +0.000 C 
ATOM      6  C   UNL     1      55.231  72.507  83.259  0.00  0.00    +0.000 C 
ATOM      7  C   UNL     1      55.253  71.801  84.575  0.00  0.00    +0.000 C 
ATOM      8  C   UNL     1      57.952  73.577  80.535  0.00  0.00    +0.000 C 
ATOM      9  C   UNL     1      56.574  70.286  86.235  0.00  0.00    +0.000 C 
ATOM     10  C   UNL     1      58.170  74.428  79.344  0.00  0.00    +0.000 C 
ATOM     11  C   UNL     1      58.316  71.333  81.633  0.00  0.00    +0.000 C 
ATOM     12  C   UNL     1      58.277  69.915  84.155  0.00  0.00    +0.000 C 
ATOM     13  C   UNL     1      55.830  74.704  80.941  0.00  0.00    +0.000 C 
ATOM     14  C   UNL     1      56.945  75.207  78.558  0.00  0.00    +0.000 C 
ATOM     15  C   UNL     1      55.202  71.739  80.884  0.00  0.00    +0.000 C 
ATOM     16  C   UNL     1      55.917  75.369  79.586  0.00  0.00    +0.000 C 
ATOM     17  C   UNL     1      57.965  69.634  86.444  0.00  0.00    +0.000 C 
ATOM     18  C   UNL     1      56.247  69.023  83.082  0.00  0.00    +0.000 C 
ATOM     19  C   UNL     1      58.890  69.593  85.361  0.00  0.00    +0.000 C 
ATOM     20  C   UNL     1      58.629  72.477  80.712  0.00  0.00    +0.000 C 
ATOM     21  C   UNL     1      57.443  74.522  82.851  0.00  0.00    +0.000 C 
ATOM     22  C   UNL     1      59.490  75.029  79.159  0.00  0.00    +0.000 C 
ATOM     23  C   UNL     1      57.574  76.462  78.066  0.00  0.00    +0.000 C 
ATOM     24  C   UNL     1      60.237  76.225  78.613  0.00  0.00    +0.000 C 
ATOM     25  C   UNL     1      56.575  71.512  87.213  0.00  0.00    +0.000 C 
ATOM     26  C   UNL     1      55.505  69.267  86.725  0.00  0.00    +0.000 C 
ATOM     27  C   UNL     1      59.047  76.945  78.054  0.00  0.00    +0.000 C 
ATOM     28  C   UNL     1      61.229  75.814  77.511  0.00  0.00    +0.000 C 
ATOM     29  C   UNL     1      60.910  77.024  79.744  0.00  0.00    +0.000 C 
ENDROOT
BRANCH  17  30
ATOM     30  O   UNL     1      58.372  69.050  87.641  0.00  0.00    +0.000 OA
ATOM     31  H   UNL     1      57.916  69.459  88.406  0.00  0.00    +0.000 HD
ENDBRANCH  17  30
BRANCH  19  32
ATOM     32  O   UNL     1      60.040  68.869  85.453  0.00  0.00    +0.000 OA
ATOM     33  H   UNL     1      60.474  69.008  86.317  0.00  0.00    +0.000 HD
ENDBRANCH  19  32
BRANCH  14  35
ATOM     34  O   UNL     1      55.538  73.565  77.377  0.00  0.00    +0.000 OA
ATOM     35  C   UNL     1      56.503  74.317  77.390  0.00  0.00    +0.000 C 
BRANCH  35  36
ATOM     36  O   UNL     1      57.330  74.354  76.320  0.00  0.00    +0.000 OA
ATOM     37  H   UNL     1      58.170  74.732  76.661  0.00  0.00    +0.000 HD
ENDBRANCH  35  36
ENDBRANCH  14  35
TORSDOF 4
ENDMDL
