MODEL 1
REMARK VINA RESULT:      -4.7      0.000      0.000
REMARK  Name = 76617_Cardol.pdbqt.pdb
REMARK  10 active torsions:
REMARK  status: ('A' for Active; 'I' for Inactive)
REMARK    1  A    between atoms: C_1  and  C_2
REMARK    2  A    between atoms: C_3  and  C_4
REMARK    3  A    between atoms: C_5  and  C_6
REMARK    4  A    between atoms: C_7  and  C_8
REMARK    5  A    between atoms: C_8  and  C_9
REMARK    6  A    between atoms: C_10  and  C_11
REMARK    7  A    between atoms: C_14  and  C_15
REMARK    8  A    between atoms: C_15  and  C_16
REMARK    9  A    between atoms: C_19  and  O_24
REMARK   10  A    between atoms: C_20  and  O_22
REMARK                            x       y       z     vdW  Elec       q    Type
REMARK                         _______ _______ _______ _____ _____    ______ ____
ROOT
ATOM      1  C   UNL     1      51.557  49.051  57.389  0.00  0.00    +0.000 C 
ATOM      2  C   UNL     1      50.578  48.412  57.117  0.00  0.00    +0.000 C 
ENDROOT
BRANCH   1   3
ATOM      3  C   UNL     1      52.806  49.866  57.736  0.00  0.00    +0.000 C 
ATOM      4  C   UNL     1      54.056  50.680  58.085  0.00  0.00    +0.000 C 
BRANCH   4   5
ATOM      5  C   UNL     1      55.307  51.493  58.432  0.00  0.00    +0.000 C 
ATOM      6  C   UNL     1      56.557  52.306  58.779  0.00  0.00    +0.000 C 
BRANCH   6   7
ATOM      7  C   UNL     1      57.809  53.119  59.126  0.00  0.00    +0.000 C 
ATOM      8  C   UNL     1      59.060  53.930  59.473  0.00  0.00    +0.000 C 
BRANCH   8   9
ATOM      9  C   UNL     1      60.311  54.742  59.819  0.00  0.00    +0.000 C 
BRANCH   9  10
ATOM     10  C   UNL     1      61.564  55.553  60.166  0.00  0.00    +0.000 C 
ATOM     11  C   UNL     1      62.816  56.364  60.512  0.00  0.00    +0.000 C 
BRANCH  11  12
ATOM     12  C   UNL     1      64.070  57.174  60.858  0.00  0.00    +0.000 C 
ATOM     13  C   UNL     1      65.322  57.984  61.206  0.00  0.00    +0.000 C 
ATOM     14  C   UNL     1      66.575  58.794  61.552  0.00  0.00    +0.000 C 
ENDBRANCH  11  12
ENDBRANCH   9  10
ENDBRANCH   8   9
ENDBRANCH   6   7
ENDBRANCH   4   5
ENDBRANCH   1   3
BRANCH   2  15
ATOM     15  C   UNL     1      49.328  47.597  56.768  0.00  0.00    +0.000 C 
BRANCH  15  16
ATOM     16  C   UNL     1      48.167  46.839  56.445  0.00  0.00    +0.000 A 
ATOM     17  C   UNL     1      47.055  46.880  57.284  0.00  0.00    +0.000 A 
ATOM     18  C   UNL     1      48.148  46.059  55.290  0.00  0.00    +0.000 A 
ATOM     19  C   UNL     1      47.008  45.321  54.982  0.00  0.00    +0.000 A 
ATOM     20  C   UNL     1      45.924  46.135  56.958  0.00  0.00    +0.000 A 
ATOM     21  C   UNL     1      45.889  45.351  55.809  0.00  0.00    +0.000 A 
BRANCH  20  22
ATOM     22  O   UNL     1      44.822  46.160  57.763  0.00  0.00    +0.000 OA
ATOM     23  H   UNL     1      44.251  46.895  57.481  0.00  0.00    +0.000 HD
ENDBRANCH  20  22
BRANCH  19  24
ATOM     24  O   UNL     1      46.963  44.548  53.857  0.00  0.00    +0.000 OA
ATOM     25  H   UNL     1      47.017  43.614  54.125  0.00  0.00    +0.000 HD
ENDBRANCH  19  24
ENDBRANCH  15  16
ENDBRANCH   2  15
TORSDOF 10
ENDMDL
MODEL 2
REMARK VINA RESULT:      -4.6     16.794     23.031
REMARK  Name = 76617_Cardol.pdbqt.pdb
REMARK  10 active torsions:
REMARK  status: ('A' for Active; 'I' for Inactive)
REMARK    1  A    between atoms: C_1  and  C_2
REMARK    2  A    between atoms: C_3  and  C_4
REMARK    3  A    between atoms: C_5  and  C_6
REMARK    4  A    between atoms: C_7  and  C_8
REMARK    5  A    between atoms: C_8  and  C_9
REMARK    6  A    between atoms: C_10  and  C_11
REMARK    7  A    between atoms: C_14  and  C_15
REMARK    8  A    between atoms: C_15  and  C_16
REMARK    9  A    between atoms: C_19  and  O_24
REMARK   10  A    between atoms: C_20  and  O_22
REMARK                            x       y       z     vdW  Elec       q    Type
REMARK                         _______ _______ _______ _____ _____    ______ ____
ROOT
ATOM      1  C   UNL     1      58.863  37.113  65.349  0.00  0.00    +0.000 C 
ATOM      2  C   UNL     1      59.786  37.568  65.966  0.00  0.00    +0.000 C 
ENDROOT
BRANCH   1   3
ATOM      3  C   UNL     1      57.684  36.534  64.561  0.00  0.00    +0.000 C 
ATOM      4  C   UNL     1      56.505  35.953  63.774  0.00  0.00    +0.000 C 
BRANCH   4   5
ATOM      5  C   UNL     1      55.325  35.374  62.987  0.00  0.00    +0.000 C 
ATOM      6  C   UNL     1      54.147  34.795  62.200  0.00  0.00    +0.000 C 
BRANCH   6   7
ATOM      7  C   UNL     1      52.967  34.216  61.413  0.00  0.00    +0.000 C 
ATOM      8  C   UNL     1      51.788  33.635  60.626  0.00  0.00    +0.000 C 
BRANCH   8   9
ATOM      9  C   UNL     1      50.610  33.055  59.839  0.00  0.00    +0.000 C 
BRANCH   9  10
ATOM     10  C   UNL     1      49.430  32.475  59.053  0.00  0.00    +0.000 C 
ATOM     11  C   UNL     1      48.251  31.895  58.266  0.00  0.00    +0.000 C 
BRANCH  11  12
ATOM     12  C   UNL     1      47.071  31.315  57.480  0.00  0.00    +0.000 C 
ATOM     13  C   UNL     1      45.892  30.735  56.693  0.00  0.00    +0.000 C 
ATOM     14  C   UNL     1      44.713  30.156  55.906  0.00  0.00    +0.000 C 
ENDBRANCH  11  12
ENDBRANCH   9  10
ENDBRANCH   8   9
ENDBRANCH   6   7
ENDBRANCH   4   5
ENDBRANCH   1   3
BRANCH   2  15
ATOM     15  C   UNL     1      60.965  38.146  66.755  0.00  0.00    +0.000 C 
BRANCH  15  16
ATOM     16  C   UNL     1      62.061  38.685  67.489  0.00  0.00    +0.000 A 
ATOM     17  C   UNL     1      63.271  37.996  67.536  0.00  0.00    +0.000 A 
ATOM     18  C   UNL     1      61.917  39.900  68.157  0.00  0.00    +0.000 A 
ATOM     19  C   UNL     1      62.994  40.418  68.872  0.00  0.00    +0.000 A 
ATOM     20  C   UNL     1      64.336  38.532  68.256  0.00  0.00    +0.000 A 
ATOM     21  C   UNL     1      64.208  39.742  68.929  0.00  0.00    +0.000 A 
BRANCH  20  22
ATOM     22  O   UNL     1      65.531  37.875  68.317  0.00  0.00    +0.000 OA
ATOM     23  H   UNL     1      65.416  37.075  68.858  0.00  0.00    +0.000 HD
ENDBRANCH  20  22
BRANCH  19  24
ATOM     24  O   UNL     1      62.880  41.606  69.536  0.00  0.00    +0.000 OA
ATOM     25  H   UNL     1      63.211  41.483  70.443  0.00  0.00    +0.000 HD
ENDBRANCH  19  24
ENDBRANCH  15  16
ENDBRANCH   2  15
TORSDOF 10
ENDMDL
MODEL 3
REMARK VINA RESULT:      -4.6      2.026      2.549
REMARK  Name = 76617_Cardol.pdbqt.pdb
REMARK  10 active torsions:
REMARK  status: ('A' for Active; 'I' for Inactive)
REMARK    1  A    between atoms: C_1  and  C_2
REMARK    2  A    between atoms: C_3  and  C_4
REMARK    3  A    between atoms: C_5  and  C_6
REMARK    4  A    between atoms: C_7  and  C_8
REMARK    5  A    between atoms: C_8  and  C_9
REMARK    6  A    between atoms: C_10  and  C_11
REMARK    7  A    between atoms: C_14  and  C_15
REMARK    8  A    between atoms: C_15  and  C_16
REMARK    9  A    between atoms: C_19  and  O_24
REMARK   10  A    between atoms: C_20  and  O_22
REMARK                            x       y       z     vdW  Elec       q    Type
REMARK                         _______ _______ _______ _____ _____    ______ ____
ROOT
ATOM      1  C   UNL     1      51.346  48.979  57.131  0.00  0.00    +0.000 C 
ATOM      2  C   UNL     1      50.246  48.571  56.883  0.00  0.00    +0.000 C 
ENDROOT
BRANCH   1   3
ATOM      3  C   UNL     1      52.750  49.500  57.449  0.00  0.00    +0.000 C 
ATOM      4  C   UNL     1      54.156  50.021  57.769  0.00  0.00    +0.000 C 
BRANCH   4   5
ATOM      5  C   UNL     1      55.561  50.540  58.087  0.00  0.00    +0.000 C 
ATOM      6  C   UNL     1      56.966  51.060  58.404  0.00  0.00    +0.000 C 
BRANCH   6   7
ATOM      7  C   UNL     1      58.371  51.580  58.721  0.00  0.00    +0.000 C 
ATOM      8  C   UNL     1      59.776  52.100  59.040  0.00  0.00    +0.000 C 
BRANCH   8   9
ATOM      9  C   UNL     1      61.181  52.620  59.358  0.00  0.00    +0.000 C 
BRANCH   9  10
ATOM     10  C   UNL     1      62.587  53.140  59.675  0.00  0.00    +0.000 C 
ATOM     11  C   UNL     1      63.992  53.660  59.991  0.00  0.00    +0.000 C 
BRANCH  11  12
ATOM     12  C   UNL     1      65.398  54.180  60.306  0.00  0.00    +0.000 C 
ATOM     13  C   UNL     1      66.804  54.699  60.622  0.00  0.00    +0.000 C 
ATOM     14  C   UNL     1      68.210  55.219  60.938  0.00  0.00    +0.000 C 
ENDBRANCH  11  12
ENDBRANCH   9  10
ENDBRANCH   8   9
ENDBRANCH   6   7
ENDBRANCH   4   5
ENDBRANCH   1   3
BRANCH   2  15
ATOM     15  C   UNL     1      48.841  48.048  56.564  0.00  0.00    +0.000 C 
BRANCH  15  16
ATOM     16  C   UNL     1      47.535  47.564  56.268  0.00  0.00    +0.000 A 
ATOM     17  C   UNL     1      47.084  47.544  54.949  0.00  0.00    +0.000 A 
ATOM     18  C   UNL     1      46.713  47.110  57.298  0.00  0.00    +0.000 A 
ATOM     19  C   UNL     1      45.438  46.638  56.999  0.00  0.00    +0.000 A 
ATOM     20  C   UNL     1      45.805  47.068  54.671  0.00  0.00    +0.000 A 
ATOM     21  C   UNL     1      44.973  46.612  55.687  0.00  0.00    +0.000 A 
BRANCH  20  22
ATOM     22  O   UNL     1      45.341  47.038  53.387  0.00  0.00    +0.000 OA
ATOM     23  H   UNL     1      45.849  46.374  52.891  0.00  0.00    +0.000 HD
ENDBRANCH  20  22
BRANCH  19  24
ATOM     24  O   UNL     1      44.613  46.189  57.990  0.00  0.00    +0.000 OA
ATOM     25  H   UNL     1      44.565  45.219  57.932  0.00  0.00    +0.000 HD
ENDBRANCH  19  24
ENDBRANCH  15  16
ENDBRANCH   2  15
TORSDOF 10
ENDMDL
MODEL 4
REMARK VINA RESULT:      -4.5     16.859     23.122
REMARK  Name = 76617_Cardol.pdbqt.pdb
REMARK  10 active torsions:
REMARK  status: ('A' for Active; 'I' for Inactive)
REMARK    1  A    between atoms: C_1  and  C_2
REMARK    2  A    between atoms: C_3  and  C_4
REMARK    3  A    between atoms: C_5  and  C_6
REMARK    4  A    between atoms: C_7  and  C_8
REMARK    5  A    between atoms: C_8  and  C_9
REMARK    6  A    between atoms: C_10  and  C_11
REMARK    7  A    between atoms: C_14  and  C_15
REMARK    8  A    between atoms: C_15  and  C_16
REMARK    9  A    between atoms: C_19  and  O_24
REMARK   10  A    between atoms: C_20  and  O_22
REMARK                            x       y       z     vdW  Elec       q    Type
REMARK                         _______ _______ _______ _____ _____    ______ ____
ROOT
ATOM      1  C   UNL     1      57.419  36.350  64.385  0.00  0.00    +0.000 C 
ATOM      2  C   UNL     1      58.354  36.791  64.995  0.00  0.00    +0.000 C 
ENDROOT
BRANCH   1   3
ATOM      3  C   UNL     1      56.227  35.787  63.606  0.00  0.00    +0.000 C 
ATOM      4  C   UNL     1      55.034  35.222  62.828  0.00  0.00    +0.000 C 
BRANCH   4   5
ATOM      5  C   UNL     1      53.841  34.658  62.051  0.00  0.00    +0.000 C 
ATOM      6  C   UNL     1      52.649  34.093  61.274  0.00  0.00    +0.000 C 
BRANCH   6   7
ATOM      7  C   UNL     1      51.456  33.528  60.496  0.00  0.00    +0.000 C 
ATOM      8  C   UNL     1      50.264  32.963  59.717  0.00  0.00    +0.000 C 
BRANCH   8   9
ATOM      9  C   UNL     1      49.073  32.398  58.939  0.00  0.00    +0.000 C 
BRANCH   9  10
ATOM     10  C   UNL     1      47.879  31.834  58.162  0.00  0.00    +0.000 C 
ATOM     11  C   UNL     1      46.687  31.270  57.383  0.00  0.00    +0.000 C 
BRANCH  11  12
ATOM     12  C   UNL     1      45.494  30.707  56.605  0.00  0.00    +0.000 C 
ATOM     13  C   UNL     1      44.300  30.144  55.829  0.00  0.00    +0.000 C 
ATOM     14  C   UNL     1      43.107  29.580  55.051  0.00  0.00    +0.000 C 
ENDBRANCH  11  12
ENDBRANCH   9  10
ENDBRANCH   8   9
ENDBRANCH   6   7
ENDBRANCH   4   5
ENDBRANCH   1   3
BRANCH   2  15
ATOM     15  C   UNL     1      59.547  37.355  65.774  0.00  0.00    +0.000 C 
BRANCH  15  16
ATOM     16  C   UNL     1      60.655  37.881  66.497  0.00  0.00    +0.000 A 
ATOM     17  C   UNL     1      60.463  38.923  67.402  0.00  0.00    +0.000 A 
ATOM     18  C   UNL     1      61.928  37.350  66.297  0.00  0.00    +0.000 A 
ATOM     19  C   UNL     1      63.006  37.870  67.009  0.00  0.00    +0.000 A 
ATOM     20  C   UNL     1      61.553  39.429  68.105  0.00  0.00    +0.000 A 
ATOM     21  C   UNL     1      62.830  38.911  67.916  0.00  0.00    +0.000 A 
BRANCH  20  22
ATOM     22  O   UNL     1      61.391  40.449  68.997  0.00  0.00    +0.000 OA
ATOM     23  H   UNL     1      61.138  41.250  68.506  0.00  0.00    +0.000 HD
ENDBRANCH  20  22
BRANCH  19  24
ATOM     24  O   UNL     1      64.263  37.369  66.831  0.00  0.00    +0.000 OA
ATOM     25  H   UNL     1      64.905  38.068  67.048  0.00  0.00    +0.000 HD
ENDBRANCH  19  24
ENDBRANCH  15  16
ENDBRANCH   2  15
TORSDOF 10
ENDMDL
MODEL 5
REMARK VINA RESULT:      -4.4     20.993     28.619
REMARK  Name = 76617_Cardol.pdbqt.pdb
REMARK  10 active torsions:
REMARK  status: ('A' for Active; 'I' for Inactive)
REMARK    1  A    between atoms: C_1  and  C_2
REMARK    2  A    between atoms: C_3  and  C_4
REMARK    3  A    between atoms: C_5  and  C_6
REMARK    4  A    between atoms: C_7  and  C_8
REMARK    5  A    between atoms: C_8  and  C_9
REMARK    6  A    between atoms: C_10  and  C_11
REMARK    7  A    between atoms: C_14  and  C_15
REMARK    8  A    between atoms: C_15  and  C_16
REMARK    9  A    between atoms: C_19  and  O_24
REMARK   10  A    between atoms: C_20  and  O_22
REMARK                            x       y       z     vdW  Elec       q    Type
REMARK                         _______ _______ _______ _____ _____    ______ ____
ROOT
ATOM      1  C   UNL     1      62.470  71.599  69.295  0.00  0.00    +0.000 C 
ATOM      2  C   UNL     1      62.011  70.544  68.955  0.00  0.00    +0.000 C 
ENDROOT
BRANCH   1   3
ATOM      3  C   UNL     1      63.055  72.947  69.729  0.00  0.00    +0.000 C 
ATOM      4  C   UNL     1      63.639  74.295  70.164  0.00  0.00    +0.000 C 
BRANCH   4   5
ATOM      5  C   UNL     1      64.224  75.641  70.600  0.00  0.00    +0.000 C 
ATOM      6  C   UNL     1      64.807  76.988  71.035  0.00  0.00    +0.000 C 
BRANCH   6   7
ATOM      7  C   UNL     1      65.392  78.336  71.471  0.00  0.00    +0.000 C 
ATOM      8  C   UNL     1      65.975  79.682  71.908  0.00  0.00    +0.000 C 
BRANCH   8   9
ATOM      9  C   UNL     1      66.559  81.029  72.345  0.00  0.00    +0.000 C 
BRANCH   9  10
ATOM     10  C   UNL     1      67.142  82.377  72.782  0.00  0.00    +0.000 C 
ATOM     11  C   UNL     1      67.725  83.724  73.218  0.00  0.00    +0.000 C 
BRANCH  11  12
ATOM     12  C   UNL     1      68.308  85.071  73.655  0.00  0.00    +0.000 C 
ATOM     13  C   UNL     1      68.892  86.418  74.091  0.00  0.00    +0.000 C 
ATOM     14  C   UNL     1      69.475  87.766  74.528  0.00  0.00    +0.000 C 
ENDBRANCH  11  12
ENDBRANCH   9  10
ENDBRANCH   8   9
ENDBRANCH   6   7
ENDBRANCH   4   5
ENDBRANCH   1   3
BRANCH   2  15
ATOM     15  C   UNL     1      61.426  69.196  68.522  0.00  0.00    +0.000 C 
BRANCH  15  16
ATOM     16  C   UNL     1      60.883  67.942  68.120  0.00  0.00    +0.000 A 
ATOM     17  C   UNL     1      60.201  67.837  66.909  0.00  0.00    +0.000 A 
ATOM     18  C   UNL     1      61.036  66.826  68.939  0.00  0.00    +0.000 A 
ATOM     19  C   UNL     1      60.501  65.604  68.537  0.00  0.00    +0.000 A 
ATOM     20  C   UNL     1      59.675  66.606  66.525  0.00  0.00    +0.000 A 
ATOM     21  C   UNL     1      59.818  65.483  67.331  0.00  0.00    +0.000 A 
BRANCH  20  22
ATOM     22  O   UNL     1      59.003  66.478  65.343  0.00  0.00    +0.000 OA
ATOM     23  H   UNL     1      58.670  65.566  65.276  0.00  0.00    +0.000 HD
ENDBRANCH  20  22
BRANCH  19  24
ATOM     24  O   UNL     1      60.636  64.495  69.322  0.00  0.00    +0.000 OA
ATOM     25  H   UNL     1      61.434  64.015  69.039  0.00  0.00    +0.000 HD
ENDBRANCH  19  24
ENDBRANCH  15  16
ENDBRANCH   2  15
TORSDOF 10
ENDMDL
MODEL 6
REMARK VINA RESULT:      -4.3     25.239     35.496
REMARK  Name = 76617_Cardol.pdbqt.pdb
REMARK  10 active torsions:
REMARK  status: ('A' for Active; 'I' for Inactive)
REMARK    1  A    between atoms: C_1  and  C_2
REMARK    2  A    between atoms: C_3  and  C_4
REMARK    3  A    between atoms: C_5  and  C_6
REMARK    4  A    between atoms: C_7  and  C_8
REMARK    5  A    between atoms: C_8  and  C_9
REMARK    6  A    between atoms: C_10  and  C_11
REMARK    7  A    between atoms: C_14  and  C_15
REMARK    8  A    between atoms: C_15  and  C_16
REMARK    9  A    between atoms: C_19  and  O_24
REMARK   10  A    between atoms: C_20  and  O_22
REMARK                            x       y       z     vdW  Elec       q    Type
REMARK                         _______ _______ _______ _____ _____    ______ ____
ROOT
ATOM      1  C   UNL     1      66.114  79.894  71.949  0.00  0.00    +0.000 C 
ATOM      2  C   UNL     1      66.553  80.942  72.333  0.00  0.00    +0.000 C 
ENDROOT
BRANCH   1   3
ATOM      3  C   UNL     1      65.553  78.555  71.459  0.00  0.00    +0.000 C 
ATOM      4  C   UNL     1      64.994  77.215  70.970  0.00  0.00    +0.000 C 
BRANCH   4   5
ATOM      5  C   UNL     1      64.434  75.876  70.482  0.00  0.00    +0.000 C 
ATOM      6  C   UNL     1      63.874  74.537  69.995  0.00  0.00    +0.000 C 
BRANCH   6   7
ATOM      7  C   UNL     1      63.313  73.197  69.508  0.00  0.00    +0.000 C 
ATOM      8  C   UNL     1      62.752  71.857  69.022  0.00  0.00    +0.000 C 
BRANCH   8   9
ATOM      9  C   UNL     1      62.192  70.518  68.536  0.00  0.00    +0.000 C 
BRANCH   9  10
ATOM     10  C   UNL     1      61.632  69.177  68.050  0.00  0.00    +0.000 C 
ATOM     11  C   UNL     1      61.073  67.836  67.565  0.00  0.00    +0.000 C 
BRANCH  11  12
ATOM     12  C   UNL     1      60.513  66.495  67.080  0.00  0.00    +0.000 C 
ATOM     13  C   UNL     1      59.956  65.154  66.594  0.00  0.00    +0.000 C 
ATOM     14  C   UNL     1      59.396  63.813  66.109  0.00  0.00    +0.000 C 
ENDBRANCH  11  12
ENDBRANCH   9  10
ENDBRANCH   8   9
ENDBRANCH   6   7
ENDBRANCH   4   5
ENDBRANCH   1   3
BRANCH   2  15
ATOM     15  C   UNL     1      67.114  82.282  72.822  0.00  0.00    +0.000 C 
BRANCH  15  16
ATOM     16  C   UNL     1      67.635  83.526  73.278  0.00  0.00    +0.000 A 
ATOM     17  C   UNL     1      66.913  84.700  73.070  0.00  0.00    +0.000 A 
ATOM     18  C   UNL     1      68.866  83.565  73.930  0.00  0.00    +0.000 A 
ATOM     19  C   UNL     1      69.368  84.787  74.372  0.00  0.00    +0.000 A 
ATOM     20  C   UNL     1      67.431  85.911  73.520  0.00  0.00    +0.000 A 
ATOM     21  C   UNL     1      68.658  85.967  74.171  0.00  0.00    +0.000 A 
BRANCH  20  22
ATOM     22  O   UNL     1      66.742  87.074  73.328  0.00  0.00    +0.000 OA
ATOM     23  H   UNL     1      67.081  87.503  72.523  0.00  0.00    +0.000 HD
ENDBRANCH  20  22
BRANCH  19  24
ATOM     24  O   UNL     1      70.571  84.853  75.013  0.00  0.00    +0.000 OA
ATOM     25  H   UNL     1      71.277  84.740  74.352  0.00  0.00    +0.000 HD
ENDBRANCH  19  24
ENDBRANCH  15  16
ENDBRANCH   2  15
TORSDOF 10
ENDMDL
MODEL 7
REMARK VINA RESULT:      -4.3     16.960     20.961
REMARK  Name = 76617_Cardol.pdbqt.pdb
REMARK  10 active torsions:
REMARK  status: ('A' for Active; 'I' for Inactive)
REMARK    1  A    between atoms: C_1  and  C_2
REMARK    2  A    between atoms: C_3  and  C_4
REMARK    3  A    between atoms: C_5  and  C_6
REMARK    4  A    between atoms: C_7  and  C_8
REMARK    5  A    between atoms: C_8  and  C_9
REMARK    6  A    between atoms: C_10  and  C_11
REMARK    7  A    between atoms: C_14  and  C_15
REMARK    8  A    between atoms: C_15  and  C_16
REMARK    9  A    between atoms: C_19  and  O_24
REMARK   10  A    between atoms: C_20  and  O_22
REMARK                            x       y       z     vdW  Elec       q    Type
REMARK                         _______ _______ _______ _____ _____    ______ ____
ROOT
ATOM      1  C   UNL     1      52.775  38.319  66.811  0.00  0.00    +0.000 C 
ATOM      2  C   UNL     1      52.764  38.946  67.834  0.00  0.00    +0.000 C 
ENDROOT
BRANCH   1   3
ATOM      3  C   UNL     1      52.788  37.519  65.505  0.00  0.00    +0.000 C 
ATOM      4  C   UNL     1      52.800  36.720  64.198  0.00  0.00    +0.000 C 
BRANCH   4   5
ATOM      5  C   UNL     1      52.814  35.921  62.891  0.00  0.00    +0.000 C 
ATOM      6  C   UNL     1      52.827  35.124  61.584  0.00  0.00    +0.000 C 
BRANCH   6   7
ATOM      7  C   UNL     1      52.840  34.325  60.276  0.00  0.00    +0.000 C 
ATOM      8  C   UNL     1      52.854  33.528  58.969  0.00  0.00    +0.000 C 
BRANCH   8   9
ATOM      9  C   UNL     1      52.868  32.731  57.662  0.00  0.00    +0.000 C 
BRANCH   9  10
ATOM     10  C   UNL     1      52.882  31.935  56.353  0.00  0.00    +0.000 C 
ATOM     11  C   UNL     1      52.897  31.139  55.045  0.00  0.00    +0.000 C 
BRANCH  11  12
ATOM     12  C   UNL     1      52.912  30.343  53.736  0.00  0.00    +0.000 C 
ATOM     13  C   UNL     1      52.928  29.547  52.428  0.00  0.00    +0.000 C 
ATOM     14  C   UNL     1      52.943  28.751  51.119  0.00  0.00    +0.000 C 
ENDBRANCH  11  12
ENDBRANCH   9  10
ENDBRANCH   8   9
ENDBRANCH   6   7
ENDBRANCH   4   5
ENDBRANCH   1   3
BRANCH   2  15
ATOM     15  C   UNL     1      52.752  39.746  69.141  0.00  0.00    +0.000 C 
BRANCH  15  16
ATOM     16  C   UNL     1      52.740  40.490  70.355  0.00  0.00    +0.000 A 
ATOM     17  C   UNL     1      53.498  40.057  71.442  0.00  0.00    +0.000 A 
ATOM     18  C   UNL     1      51.971  41.648  70.451  0.00  0.00    +0.000 A 
ATOM     19  C   UNL     1      51.965  42.368  71.643  0.00  0.00    +0.000 A 
ATOM     20  C   UNL     1      53.479  40.792  72.625  0.00  0.00    +0.000 A 
ATOM     21  C   UNL     1      52.716  41.949  72.737  0.00  0.00    +0.000 A 
BRANCH  20  22
ATOM     22  O   UNL     1      54.213  40.389  73.703  0.00  0.00    +0.000 OA
ATOM     23  H   UNL     1      53.922  39.496  73.956  0.00  0.00    +0.000 HD
ENDBRANCH  20  22
BRANCH  19  24
ATOM     24  O   UNL     1      51.219  43.506  71.764  0.00  0.00    +0.000 OA
ATOM     25  H   UNL     1      50.460  43.440  71.159  0.00  0.00    +0.000 HD
ENDBRANCH  19  24
ENDBRANCH  15  16
ENDBRANCH   2  15
TORSDOF 10
ENDMDL
MODEL 8
REMARK VINA RESULT:      -4.2      8.516     11.581
REMARK  Name = 76617_Cardol.pdbqt.pdb
REMARK  10 active torsions:
REMARK  status: ('A' for Active; 'I' for Inactive)
REMARK    1  A    between atoms: C_1  and  C_2
REMARK    2  A    between atoms: C_3  and  C_4
REMARK    3  A    between atoms: C_5  and  C_6
REMARK    4  A    between atoms: C_7  and  C_8
REMARK    5  A    between atoms: C_8  and  C_9
REMARK    6  A    between atoms: C_10  and  C_11
REMARK    7  A    between atoms: C_14  and  C_15
REMARK    8  A    between atoms: C_15  and  C_16
REMARK    9  A    between atoms: C_19  and  O_24
REMARK   10  A    between atoms: C_20  and  O_22
REMARK                            x       y       z     vdW  Elec       q    Type
REMARK                         _______ _______ _______ _____ _____    ______ ____
ROOT
ATOM      1  C   UNL     1      60.695  51.307  59.125  0.00  0.00    +0.000 C 
ATOM      2  C   UNL     1      59.514  51.514  59.079  0.00  0.00    +0.000 C 
ENDROOT
BRANCH   1   3
ATOM      3  C   UNL     1      62.202  51.045  59.184  0.00  0.00    +0.000 C 
ATOM      4  C   UNL     1      63.711  50.783  59.243  0.00  0.00    +0.000 C 
BRANCH   4   5
ATOM      5  C   UNL     1      65.219  50.523  59.302  0.00  0.00    +0.000 C 
ATOM      6  C   UNL     1      66.727  50.262  59.363  0.00  0.00    +0.000 C 
BRANCH   6   7
ATOM      7  C   UNL     1      68.235  50.001  59.424  0.00  0.00    +0.000 C 
ATOM      8  C   UNL     1      69.743  49.739  59.485  0.00  0.00    +0.000 C 
BRANCH   8   9
ATOM      9  C   UNL     1      71.250  49.477  59.546  0.00  0.00    +0.000 C 
BRANCH   9  10
ATOM     10  C   UNL     1      72.758  49.214  59.606  0.00  0.00    +0.000 C 
ATOM     11  C   UNL     1      74.265  48.950  59.666  0.00  0.00    +0.000 C 
BRANCH  11  12
ATOM     12  C   UNL     1      75.773  48.686  59.726  0.00  0.00    +0.000 C 
ATOM     13  C   UNL     1      77.280  48.422  59.787  0.00  0.00    +0.000 C 
ATOM     14  C   UNL     1      78.788  48.158  59.847  0.00  0.00    +0.000 C 
ENDBRANCH  11  12
ENDBRANCH   9  10
ENDBRANCH   8   9
ENDBRANCH   6   7
ENDBRANCH   4   5
ENDBRANCH   1   3
BRANCH   2  15
ATOM     15  C   UNL     1      58.005  51.776  59.020  0.00  0.00    +0.000 C 
BRANCH  15  16
ATOM     16  C   UNL     1      56.603  52.018  58.965  0.00  0.00    +0.000 A 
ATOM     17  C   UNL     1      56.104  53.282  59.273  0.00  0.00    +0.000 A 
ATOM     18  C   UNL     1      55.736  50.990  58.601  0.00  0.00    +0.000 A 
ATOM     19  C   UNL     1      54.366  51.237  58.549  0.00  0.00    +0.000 A 
ATOM     20  C   UNL     1      54.731  53.509  59.215  0.00  0.00    +0.000 A 
ATOM     21  C   UNL     1      53.852  52.493  58.854  0.00  0.00    +0.000 A 
BRANCH  20  22
ATOM     22  O   UNL     1      54.218  54.738  59.513  0.00  0.00    +0.000 OA
ATOM     23  H   UNL     1      54.268  55.294  58.715  0.00  0.00    +0.000 HD
ENDBRANCH  20  22
BRANCH  19  24
ATOM     24  O   UNL     1      53.494  50.247  58.196  0.00  0.00    +0.000 OA
ATOM     25  H   UNL     1      52.589  50.565  58.355  0.00  0.00    +0.000 HD
ENDBRANCH  19  24
ENDBRANCH  15  16
ENDBRANCH   2  15
TORSDOF 10
ENDMDL
MODEL 9
REMARK VINA RESULT:      -4.2     16.435     22.005
REMARK  Name = 76617_Cardol.pdbqt.pdb
REMARK  10 active torsions:
REMARK  status: ('A' for Active; 'I' for Inactive)
REMARK    1  A    between atoms: C_1  and  C_2
REMARK    2  A    between atoms: C_3  and  C_4
REMARK    3  A    between atoms: C_5  and  C_6
REMARK    4  A    between atoms: C_7  and  C_8
REMARK    5  A    between atoms: C_8  and  C_9
REMARK    6  A    between atoms: C_10  and  C_11
REMARK    7  A    between atoms: C_14  and  C_15
REMARK    8  A    between atoms: C_15  and  C_16
REMARK    9  A    between atoms: C_19  and  O_24
REMARK   10  A    between atoms: C_20  and  O_22
REMARK                            x       y       z     vdW  Elec       q    Type
REMARK                         _______ _______ _______ _____ _____    ______ ____
ROOT
ATOM      1  C   UNL     1      58.213  66.480  67.257  0.00  0.00    +0.000 C 
ATOM      2  C   UNL     1      57.619  65.490  66.931  0.00  0.00    +0.000 C 
ENDROOT
BRANCH   1   3
ATOM      3  C   UNL     1      58.972  67.743  67.674  0.00  0.00    +0.000 C 
ATOM      4  C   UNL     1      59.730  69.008  68.091  0.00  0.00    +0.000 C 
BRANCH   4   5
ATOM      5  C   UNL     1      60.486  70.273  68.508  0.00  0.00    +0.000 C 
ATOM      6  C   UNL     1      61.243  71.537  68.926  0.00  0.00    +0.000 C 
BRANCH   6   7
ATOM      7  C   UNL     1      62.000  72.801  69.344  0.00  0.00    +0.000 C 
ATOM      8  C   UNL     1      62.757  74.065  69.763  0.00  0.00    +0.000 C 
BRANCH   8   9
ATOM      9  C   UNL     1      63.514  75.328  70.182  0.00  0.00    +0.000 C 
BRANCH   9  10
ATOM     10  C   UNL     1      64.273  76.591  70.601  0.00  0.00    +0.000 C 
ATOM     11  C   UNL     1      65.031  77.853  71.022  0.00  0.00    +0.000 C 
BRANCH  11  12
ATOM     12  C   UNL     1      65.790  79.116  71.442  0.00  0.00    +0.000 C 
ATOM     13  C   UNL     1      66.547  80.379  71.863  0.00  0.00    +0.000 C 
ATOM     14  C   UNL     1      67.305  81.642  72.284  0.00  0.00    +0.000 C 
ENDBRANCH  11  12
ENDBRANCH   9  10
ENDBRANCH   8   9
ENDBRANCH   6   7
ENDBRANCH   4   5
ENDBRANCH   1   3
BRANCH   2  15
ATOM     15  C   UNL     1      56.860  64.226  66.513  0.00  0.00    +0.000 C 
BRANCH  15  16
ATOM     16  C   UNL     1      56.155  63.051  66.124  0.00  0.00    +0.000 A 
ATOM     17  C   UNL     1      56.438  62.444  64.902  0.00  0.00    +0.000 A 
ATOM     18  C   UNL     1      55.186  62.513  66.969  0.00  0.00    +0.000 A 
ATOM     19  C   UNL     1      54.503  61.363  66.580  0.00  0.00    +0.000 A 
ATOM     20  C   UNL     1      55.743  61.295  64.532  0.00  0.00    +0.000 A 
ATOM     21  C   UNL     1      54.773  60.746  65.363  0.00  0.00    +0.000 A 
BRANCH  20  22
ATOM     22  O   UNL     1      56.002  60.683  63.340  0.00  0.00    +0.000 OA
ATOM     23  H   UNL     1      56.618  61.242  62.834  0.00  0.00    +0.000 HD
ENDBRANCH  20  22
BRANCH  19  24
ATOM     24  O   UNL     1      53.548  60.816  67.389  0.00  0.00    +0.000 OA
ATOM     25  H   UNL     1      53.497  61.345  68.204  0.00  0.00    +0.000 HD
ENDBRANCH  19  24
ENDBRANCH  15  16
ENDBRANCH   2  15
TORSDOF 10
ENDMDL
