MODEL 1
REMARK VINA RESULT:      -5.5      0.000      0.000
REMARK  Name = 85668777_Hyaluronidase.pdbqt.pdb
REMARK  5 active torsions:
REMARK  status: ('A' for Active; 'I' for Inactive)
REMARK    1  A    between atoms: N_1  and  C_13
REMARK    2  A    between atoms: C_14  and  C_15
REMARK    3  A    between atoms: C_15  and  C_16
REMARK    4  A    between atoms: C_17  and  C_19
REMARK    5  A    between atoms: C_19  and  O_20
REMARK                            x       y       z     vdW  Elec       q    Type
REMARK                         _______ _______ _______ _____ _____    ______ ____
ROOT
ATOM      1  N   UNL     1      61.415  53.932  60.122  0.00  0.00    +0.000 N 
ATOM      2  C   UNL     1      62.508  55.649  61.431  0.00  0.00    +0.000 C 
ATOM      3  C   UNL     1      63.503  54.708  60.752  0.00  0.00    +0.000 A 
ATOM      4  C   UNL     1      61.142  55.033  60.936  0.00  0.00    +0.000 C 
ATOM      5  C   UNL     1      62.801  53.736  60.010  0.00  0.00    +0.000 A 
ATOM      6  C   UNL     1      62.681  55.548  62.979  0.00  0.00    +0.000 C 
ATOM      7  C   UNL     1      62.732  57.101  60.896  0.00  0.00    +0.000 C 
ATOM      8  C   UNL     1      64.891  54.713  60.791  0.00  0.00    +0.000 A 
ATOM      9  C   UNL     1      63.477  52.760  59.299  0.00  0.00    +0.000 A 
ATOM     10  C   UNL     1      59.876  55.419  61.193  0.00  0.00    +0.000 C 
ATOM     11  C   UNL     1      65.570  53.729  60.074  0.00  0.00    +0.000 A 
ATOM     12  C   UNL     1      64.871  52.764  59.336  0.00  0.00    +0.000 A 
ENDROOT
BRANCH   1  13
ATOM     13  C   UNL     1      60.435  53.095  59.473  0.00  0.00    +0.000 C 
ATOM     14  C   UNL     1      59.393  52.205  58.788  0.00  0.00    +0.000 C 
BRANCH  14  15
ATOM     15  C   UNL     1      58.351  51.315  58.103  0.00  0.00    +0.000 C 
BRANCH  15  16
ATOM     16  C   UNL     1      57.310  50.425  57.420  0.00  0.00    +0.000 C 
ATOM     17  C   UNL     1      56.268  49.534  56.737  0.00  0.00    +0.000 C 
BRANCH  17  19
ATOM     18  O   UNL     1      54.868  48.907  54.974  0.00  0.00    +0.000 OA
ATOM     19  C   UNL     1      55.292  48.702  56.099  0.00  0.00    +0.000 C 
BRANCH  19  20
ATOM     20  O   UNL     1      54.879  47.667  56.851  0.00  0.00    +0.000 OA
ATOM     21  H   UNL     1      55.189  46.883  56.355  0.00  0.00    +0.000 HD
ENDBRANCH  19  20
ENDBRANCH  17  19
ENDBRANCH  15  16
ENDBRANCH  14  15
ENDBRANCH   1  13
TORSDOF 5
ENDMDL
MODEL 2
REMARK VINA RESULT:      -5.1     13.486     15.698
REMARK  Name = 85668777_Hyaluronidase.pdbqt.pdb
REMARK  5 active torsions:
REMARK  status: ('A' for Active; 'I' for Inactive)
REMARK    1  A    between atoms: N_1  and  C_13
REMARK    2  A    between atoms: C_14  and  C_15
REMARK    3  A    between atoms: C_15  and  C_16
REMARK    4  A    between atoms: C_17  and  C_19
REMARK    5  A    between atoms: C_19  and  O_20
REMARK                            x       y       z     vdW  Elec       q    Type
REMARK                         _______ _______ _______ _____ _____    ______ ____
ROOT
ATOM      1  N   UNL     1      57.897  65.184  68.657  0.00  0.00    +0.000 N 
ATOM      2  C   UNL     1      60.128  66.106  68.821  0.00  0.00    +0.000 C 
ATOM      3  C   UNL     1      59.144  66.784  69.774  0.00  0.00    +0.000 A 
ATOM      4  C   UNL     1      59.181  65.052  68.127  0.00  0.00    +0.000 C 
ATOM      5  C   UNL     1      57.868  66.201  69.627  0.00  0.00    +0.000 A 
ATOM      6  C   UNL     1      60.679  67.166  67.814  0.00  0.00    +0.000 C 
ATOM      7  C   UNL     1      61.262  65.427  69.655  0.00  0.00    +0.000 C 
ATOM      8  C   UNL     1      59.359  67.814  70.678  0.00  0.00    +0.000 A 
ATOM      9  C   UNL     1      56.795  66.640  70.381  0.00  0.00    +0.000 A 
ATOM     10  C   UNL     1      59.456  64.137  67.175  0.00  0.00    +0.000 C 
ATOM     11  C   UNL     1      58.276  68.255  71.438  0.00  0.00    +0.000 A 
ATOM     12  C   UNL     1      57.009  67.674  71.292  0.00  0.00    +0.000 A 
ENDROOT
BRANCH   1  13
ATOM     13  C   UNL     1      56.742  64.403  68.287  0.00  0.00    +0.000 C 
ATOM     14  C   UNL     1      55.514  63.577  67.891  0.00  0.00    +0.000 C 
BRANCH  14  15
ATOM     15  C   UNL     1      54.285  62.753  67.495  0.00  0.00    +0.000 C 
BRANCH  15  16
ATOM     16  C   UNL     1      53.057  61.929  67.098  0.00  0.00    +0.000 C 
ATOM     17  C   UNL     1      51.829  61.104  66.701  0.00  0.00    +0.000 C 
BRANCH  17  19
ATOM     18  O   UNL     1      49.601  60.425  66.889  0.00  0.00    +0.000 OA
ATOM     19  C   UNL     1      50.681  60.332  66.331  0.00  0.00    +0.000 C 
BRANCH  19  20
ATOM     20  O   UNL     1      50.897  59.486  65.309  0.00  0.00    +0.000 OA
ATOM     21  H   UNL     1      51.432  60.012  64.681  0.00  0.00    +0.000 HD
ENDBRANCH  19  20
ENDBRANCH  17  19
ENDBRANCH  15  16
ENDBRANCH  14  15
ENDBRANCH   1  13
TORSDOF 5
ENDMDL
MODEL 3
REMARK VINA RESULT:      -5.0      5.100      7.111
REMARK  Name = 85668777_Hyaluronidase.pdbqt.pdb
REMARK  5 active torsions:
REMARK  status: ('A' for Active; 'I' for Inactive)
REMARK    1  A    between atoms: N_1  and  C_13
REMARK    2  A    between atoms: C_14  and  C_15
REMARK    3  A    between atoms: C_15  and  C_16
REMARK    4  A    between atoms: C_17  and  C_19
REMARK    5  A    between atoms: C_19  and  O_20
REMARK                            x       y       z     vdW  Elec       q    Type
REMARK                         _______ _______ _______ _____ _____    ______ ____
ROOT
ATOM      1  N   UNL     1      63.583  53.408  59.838  0.00  0.00    +0.000 N 
ATOM      2  C   UNL     1      63.039  55.470  60.983  0.00  0.00    +0.000 C 
ATOM      3  C   UNL     1      61.808  54.794  60.381  0.00  0.00    +0.000 A 
ATOM      4  C   UNL     1      64.168  54.452  60.557  0.00  0.00    +0.000 C 
ATOM      5  C   UNL     1      62.195  53.603  59.731  0.00  0.00    +0.000 A 
ATOM      6  C   UNL     1      63.225  56.874  60.324  0.00  0.00    +0.000 C 
ATOM      7  C   UNL     1      62.869  55.554  62.534  0.00  0.00    +0.000 C 
ATOM      8  C   UNL     1      60.480  55.194  60.405  0.00  0.00    +0.000 A 
ATOM      9  C   UNL     1      61.261  52.801  59.101  0.00  0.00    +0.000 A 
ATOM     10  C   UNL     1      65.495  54.485  60.791  0.00  0.00    +0.000 C 
ATOM     11  C   UNL     1      59.539  54.385  59.770  0.00  0.00    +0.000 A 
ATOM     12  C   UNL     1      59.925  53.201  59.126  0.00  0.00    +0.000 A 
ENDROOT
BRANCH   1  13
ATOM     13  C   UNL     1      64.276  52.275  59.274  0.00  0.00    +0.000 C 
ATOM     14  C   UNL     1      65.014  51.072  58.680  0.00  0.00    +0.000 C 
BRANCH  14  15
ATOM     15  C   UNL     1      65.752  49.868  58.087  0.00  0.00    +0.000 C 
BRANCH  15  16
ATOM     16  C   UNL     1      66.491  48.666  57.493  0.00  0.00    +0.000 C 
ATOM     17  C   UNL     1      67.230  47.462  56.900  0.00  0.00    +0.000 C 
BRANCH  17  19
ATOM     18  O   UNL     1      67.354  45.413  55.784  0.00  0.00    +0.000 OA
ATOM     19  C   UNL     1      67.919  46.337  56.343  0.00  0.00    +0.000 C 
BRANCH  19  20
ATOM     20  O   UNL     1      69.255  46.385  56.491  0.00  0.00    +0.000 OA
ATOM     21  H   UNL     1      69.426  47.313  56.751  0.00  0.00    +0.000 HD
ENDBRANCH  19  20
ENDBRANCH  17  19
ENDBRANCH  15  16
ENDBRANCH  14  15
ENDBRANCH   1  13
TORSDOF 5
ENDMDL
MODEL 4
REMARK VINA RESULT:      -4.8     15.141     18.270
REMARK  Name = 85668777_Hyaluronidase.pdbqt.pdb
REMARK  5 active torsions:
REMARK  status: ('A' for Active; 'I' for Inactive)
REMARK    1  A    between atoms: N_1  and  C_13
REMARK    2  A    between atoms: C_14  and  C_15
REMARK    3  A    between atoms: C_15  and  C_16
REMARK    4  A    between atoms: C_17  and  C_19
REMARK    5  A    between atoms: C_19  and  O_20
REMARK                            x       y       z     vdW  Elec       q    Type
REMARK                         _______ _______ _______ _____ _____    ______ ____
ROOT
ATOM      1  N   UNL     1      59.907  66.427  68.275  0.00  0.00    +0.000 N 
ATOM      2  C   UNL     1      57.612  66.364  69.041  0.00  0.00    +0.000 C 
ATOM      3  C   UNL     1      57.880  65.366  67.915  0.00  0.00    +0.000 A 
ATOM      4  C   UNL     1      59.041  67.016  69.198  0.00  0.00    +0.000 C 
ATOM      5  C   UNL     1      59.230  65.455  67.518  0.00  0.00    +0.000 A 
ATOM      6  C   UNL     1      56.537  67.393  68.568  0.00  0.00    +0.000 C 
ATOM      7  C   UNL     1      57.172  65.583  70.322  0.00  0.00    +0.000 C 
ATOM      8  C   UNL     1      57.013  64.471  67.304  0.00  0.00    +0.000 A 
ATOM      9  C   UNL     1      59.729  64.652  66.508  0.00  0.00    +0.000 A 
ATOM     10  C   UNL     1      59.464  67.980  70.040  0.00  0.00    +0.000 C 
ATOM     11  C   UNL     1      57.517  63.662  66.287  0.00  0.00    +0.000 A 
ATOM     12  C   UNL     1      58.860  63.751  65.894  0.00  0.00    +0.000 A 
ENDROOT
BRANCH   1  13
ATOM     13  C   UNL     1      61.303  66.745  68.100  0.00  0.00    +0.000 C 
ATOM     14  C   UNL     1      62.785  67.085  67.909  0.00  0.00    +0.000 C 
BRANCH  14  15
ATOM     15  C   UNL     1      64.266  67.424  67.717  0.00  0.00    +0.000 C 
BRANCH  15  16
ATOM     16  C   UNL     1      65.747  67.763  67.526  0.00  0.00    +0.000 C 
ATOM     17  C   UNL     1      67.228  68.102  67.334  0.00  0.00    +0.000 C 
BRANCH  17  19
ATOM     18  O   UNL     1      69.060  68.921  66.138  0.00  0.00    +0.000 OA
ATOM     19  C   UNL     1      68.612  68.422  67.156  0.00  0.00    +0.000 C 
BRANCH  19  20
ATOM     20  O   UNL     1      69.385  68.121  68.214  0.00  0.00    +0.000 OA
ATOM     21  H   UNL     1      69.144  68.801  68.876  0.00  0.00    +0.000 HD
ENDBRANCH  19  20
ENDBRANCH  17  19
ENDBRANCH  15  16
ENDBRANCH  14  15
ENDBRANCH   1  13
TORSDOF 5
ENDMDL
MODEL 5
REMARK VINA RESULT:      -4.8     19.305     22.613
REMARK  Name = 85668777_Hyaluronidase.pdbqt.pdb
REMARK  5 active torsions:
REMARK  status: ('A' for Active; 'I' for Inactive)
REMARK    1  A    between atoms: N_1  and  C_13
REMARK    2  A    between atoms: C_14  and  C_15
REMARK    3  A    between atoms: C_15  and  C_16
REMARK    4  A    between atoms: C_17  and  C_19
REMARK    5  A    between atoms: C_19  and  O_20
REMARK                            x       y       z     vdW  Elec       q    Type
REMARK                         _______ _______ _______ _____ _____    ______ ____
ROOT
ATOM      1  N   UNL     1      44.982  42.320  70.385  0.00  0.00    +0.000 N 
ATOM      2  C   UNL     1      42.579  42.606  70.338  0.00  0.00    +0.000 C 
ATOM      3  C   UNL     1      43.124  42.023  69.035  0.00  0.00    +0.000 A 
ATOM      4  C   UNL     1      43.913  42.762  71.166  0.00  0.00    +0.000 C 
ATOM      5  C   UNL     1      44.524  41.884  69.130  0.00  0.00    +0.000 A 
ATOM      6  C   UNL     1      41.899  43.979  70.040  0.00  0.00    +0.000 C 
ATOM      7  C   UNL     1      41.596  41.578  70.986  0.00  0.00    +0.000 C 
ATOM      8  C   UNL     1      42.446  41.655  67.881  0.00  0.00    +0.000 A 
ATOM      9  C   UNL     1      45.262  41.375  68.075  0.00  0.00    +0.000 A 
ATOM     10  C   UNL     1      44.105  43.230  72.417  0.00  0.00    +0.000 C 
ATOM     11  C   UNL     1      43.191  41.143  66.819  0.00  0.00    +0.000 A 
ATOM     12  C   UNL     1      44.582  41.004  66.915  0.00  0.00    +0.000 A 
ENDROOT
BRANCH   1  13
ATOM     13  C   UNL     1      46.370  42.299  70.780  0.00  0.00    +0.000 C 
ATOM     14  C   UNL     1      47.842  42.272  71.203  0.00  0.00    +0.000 C 
BRANCH  14  15
ATOM     15  C   UNL     1      49.313  42.246  71.627  0.00  0.00    +0.000 C 
BRANCH  15  16
ATOM     16  C   UNL     1      50.784  42.220  72.051  0.00  0.00    +0.000 C 
ATOM     17  C   UNL     1      52.256  42.195  72.476  0.00  0.00    +0.000 C 
BRANCH  17  19
ATOM     18  O   UNL     1      54.238  41.144  73.127  0.00  0.00    +0.000 OA
ATOM     19  C   UNL     1      53.630  42.171  72.875  0.00  0.00    +0.000 C 
BRANCH  19  20
ATOM     20  O   UNL     1      54.201  43.386  72.951  0.00  0.00    +0.000 OA
ATOM     21  H   UNL     1      54.637  43.383  73.827  0.00  0.00    +0.000 HD
ENDBRANCH  19  20
ENDBRANCH  17  19
ENDBRANCH  15  16
ENDBRANCH  14  15
ENDBRANCH   1  13
TORSDOF 5
ENDMDL
MODEL 6
REMARK VINA RESULT:      -4.8      8.230     11.572
REMARK  Name = 85668777_Hyaluronidase.pdbqt.pdb
REMARK  5 active torsions:
REMARK  status: ('A' for Active; 'I' for Inactive)
REMARK    1  A    between atoms: N_1  and  C_13
REMARK    2  A    between atoms: C_14  and  C_15
REMARK    3  A    between atoms: C_15  and  C_16
REMARK    4  A    between atoms: C_17  and  C_19
REMARK    5  A    between atoms: C_19  and  O_20
REMARK                            x       y       z     vdW  Elec       q    Type
REMARK                         _______ _______ _______ _____ _____    ______ ____
ROOT
ATOM      1  N   UNL     1      66.985  49.912  58.574  0.00  0.00    +0.000 N 
ATOM      2  C   UNL     1      66.501  48.982  56.393  0.00  0.00    +0.000 C 
ATOM      3  C   UNL     1      65.236  49.376  57.154  0.00  0.00    +0.000 A 
ATOM      4  C   UNL     1      67.609  49.388  57.441  0.00  0.00    +0.000 C 
ATOM      5  C   UNL     1      65.589  49.908  58.412  0.00  0.00    +0.000 A 
ATOM      6  C   UNL     1      66.476  47.445  56.119  0.00  0.00    +0.000 C 
ATOM      7  C   UNL     1      66.590  49.823  55.080  0.00  0.00    +0.000 C 
ATOM      8  C   UNL     1      63.907  49.272  56.771  0.00  0.00    +0.000 A 
ATOM      9  C   UNL     1      64.620  50.342  59.298  0.00  0.00    +0.000 A 
ATOM     10  C   UNL     1      68.952  49.289  57.363  0.00  0.00    +0.000 C 
ATOM     11  C   UNL     1      62.930  49.709  57.665  0.00  0.00    +0.000 A 
ATOM     12  C   UNL     1      63.283  50.239  58.914  0.00  0.00    +0.000 A 
ENDROOT
BRANCH   1  13
ATOM     13  C   UNL     1      67.649  50.399  59.759  0.00  0.00    +0.000 C 
ATOM     14  C   UNL     1      68.355  50.922  61.015  0.00  0.00    +0.000 C 
BRANCH  14  15
ATOM     15  C   UNL     1      69.060  51.445  62.270  0.00  0.00    +0.000 C 
BRANCH  15  16
ATOM     16  C   UNL     1      69.765  51.969  63.524  0.00  0.00    +0.000 C 
ATOM     17  C   UNL     1      70.470  52.493  64.778  0.00  0.00    +0.000 C 
BRANCH  17  19
ATOM     18  O   UNL     1      71.433  54.155  66.109  0.00  0.00    +0.000 OA
ATOM     19  C   UNL     1      71.128  52.985  65.951  0.00  0.00    +0.000 C 
BRANCH  19  20
ATOM     20  O   UNL     1      71.385  52.040  66.872  0.00  0.00    +0.000 OA
ATOM     21  H   UNL     1      71.302  52.517  67.722  0.00  0.00    +0.000 HD
ENDBRANCH  19  20
ENDBRANCH  17  19
ENDBRANCH  15  16
ENDBRANCH  14  15
ENDBRANCH   1  13
TORSDOF 5
ENDMDL
MODEL 7
REMARK VINA RESULT:      -4.8     23.921     26.162
REMARK  Name = 85668777_Hyaluronidase.pdbqt.pdb
REMARK  5 active torsions:
REMARK  status: ('A' for Active; 'I' for Inactive)
REMARK    1  A    between atoms: N_1  and  C_13
REMARK    2  A    between atoms: C_14  and  C_15
REMARK    3  A    between atoms: C_15  and  C_16
REMARK    4  A    between atoms: C_17  and  C_19
REMARK    5  A    between atoms: C_19  and  O_20
REMARK                            x       y       z     vdW  Elec       q    Type
REMARK                         _______ _______ _______ _____ _____    ______ ____
ROOT
ATOM      1  N   UNL     1      55.167  58.482  84.406  0.00  0.00    +0.000 N 
ATOM      2  C   UNL     1      54.949  60.832  84.942  0.00  0.00    +0.000 C 
ATOM      3  C   UNL     1      55.239  60.595  83.460  0.00  0.00    +0.000 A 
ATOM      4  C   UNL     1      54.922  59.346  85.474  0.00  0.00    +0.000 C 
ATOM      5  C   UNL     1      55.354  59.210  83.218  0.00  0.00    +0.000 A 
ATOM      6  C   UNL     1      56.113  61.666  85.565  0.00  0.00    +0.000 C 
ATOM      7  C   UNL     1      53.562  61.538  85.085  0.00  0.00    +0.000 C 
ATOM      8  C   UNL     1      55.387  61.515  82.432  0.00  0.00    +0.000 A 
ATOM      9  C   UNL     1      55.617  58.730  81.948  0.00  0.00    +0.000 A 
ATOM     10  C   UNL     1      54.711  58.878  86.721  0.00  0.00    +0.000 C 
ATOM     11  C   UNL     1      55.652  61.029  81.152  0.00  0.00    +0.000 A 
ATOM     12  C   UNL     1      55.765  59.653  80.913  0.00  0.00    +0.000 A 
ENDROOT
BRANCH   1  13
ATOM     13  C   UNL     1      55.225  57.042  84.476  0.00  0.00    +0.000 C 
ATOM     14  C   UNL     1      55.282  55.513  84.547  0.00  0.00    +0.000 C 
BRANCH  14  15
ATOM     15  C   UNL     1      55.338  53.984  84.618  0.00  0.00    +0.000 C 
BRANCH  15  16
ATOM     16  C   UNL     1      55.394  52.456  84.689  0.00  0.00    +0.000 C 
ATOM     17  C   UNL     1      55.449  50.926  84.761  0.00  0.00    +0.000 C 
BRANCH  17  19
ATOM     18  O   UNL     1      54.566  48.810  85.209  0.00  0.00    +0.000 OA
ATOM     19  C   UNL     1      55.499  49.497  84.829  0.00  0.00    +0.000 C 
BRANCH  19  20
ATOM     20  O   UNL     1      56.671  48.971  84.434  0.00  0.00    +0.000 OA
ATOM     21  H   UNL     1      57.076  48.656  85.268  0.00  0.00    +0.000 HD
ENDBRANCH  19  20
ENDBRANCH  17  19
ENDBRANCH  15  16
ENDBRANCH  14  15
ENDBRANCH   1  13
TORSDOF 5
ENDMDL
MODEL 8
REMARK VINA RESULT:      -4.8     18.192     20.119
REMARK  Name = 85668777_Hyaluronidase.pdbqt.pdb
REMARK  5 active torsions:
REMARK  status: ('A' for Active; 'I' for Inactive)
REMARK    1  A    between atoms: N_1  and  C_13
REMARK    2  A    between atoms: C_14  and  C_15
REMARK    3  A    between atoms: C_15  and  C_16
REMARK    4  A    between atoms: C_17  and  C_19
REMARK    5  A    between atoms: C_19  and  O_20
REMARK                            x       y       z     vdW  Elec       q    Type
REMARK                         _______ _______ _______ _____ _____    ______ ____
ROOT
ATOM      1  N   UNL     1      54.740  34.951  63.658  0.00  0.00    +0.000 N 
ATOM      2  C   UNL     1      57.009  35.058  64.492  0.00  0.00    +0.000 C 
ATOM      3  C   UNL     1      56.689  33.714  63.836  0.00  0.00    +0.000 A 
ATOM      4  C   UNL     1      55.630  35.804  64.313  0.00  0.00    +0.000 C 
ATOM      5  C   UNL     1      55.356  33.720  63.375  0.00  0.00    +0.000 A 
ATOM      6  C   UNL     1      57.368  34.822  65.993  0.00  0.00    +0.000 C 
ATOM      7  C   UNL     1      58.166  35.750  63.701  0.00  0.00    +0.000 C 
ATOM      8  C   UNL     1      57.498  32.600  63.667  0.00  0.00    +0.000 A 
ATOM      9  C   UNL     1      54.819  32.615  62.740  0.00  0.00    +0.000 A 
ATOM     10  C   UNL     1      55.264  37.046  64.688  0.00  0.00    +0.000 C 
ATOM     11  C   UNL     1      56.955  31.486  63.028  0.00  0.00    +0.000 A 
ATOM     12  C   UNL     1      55.631  31.494  62.569  0.00  0.00    +0.000 A 
ENDROOT
BRANCH   1  13
ATOM     13  C   UNL     1      53.374  35.259  63.306  0.00  0.00    +0.000 C 
ATOM     14  C   UNL     1      51.926  35.591  62.933  0.00  0.00    +0.000 C 
BRANCH  14  15
ATOM     15  C   UNL     1      50.478  35.924  62.561  0.00  0.00    +0.000 C 
BRANCH  15  16
ATOM     16  C   UNL     1      49.031  36.258  62.189  0.00  0.00    +0.000 C 
ATOM     17  C   UNL     1      47.584  36.593  61.816  0.00  0.00    +0.000 C 
BRANCH  17  19
ATOM     18  O   UNL     1      45.276  36.228  61.802  0.00  0.00    +0.000 OA
ATOM     19  C   UNL     1      46.231  36.907  61.466  0.00  0.00    +0.000 C 
BRANCH  19  20
ATOM     20  O   UNL     1      46.101  38.023  60.728  0.00  0.00    +0.000 OA
ATOM     21  H   UNL     1      46.761  37.907  60.015  0.00  0.00    +0.000 HD
ENDBRANCH  19  20
ENDBRANCH  17  19
ENDBRANCH  15  16
ENDBRANCH  14  15
ENDBRANCH   1  13
TORSDOF 5
ENDMDL
MODEL 9
REMARK VINA RESULT:      -4.7     18.174     21.232
REMARK  Name = 85668777_Hyaluronidase.pdbqt.pdb
REMARK  5 active torsions:
REMARK  status: ('A' for Active; 'I' for Inactive)
REMARK    1  A    between atoms: N_1  and  C_13
REMARK    2  A    between atoms: C_14  and  C_15
REMARK    3  A    between atoms: C_15  and  C_16
REMARK    4  A    between atoms: C_17  and  C_19
REMARK    5  A    between atoms: C_19  and  O_20
REMARK                            x       y       z     vdW  Elec       q    Type
REMARK                         _______ _______ _______ _____ _____    ______ ____
ROOT
ATOM      1  N   UNL     1      52.841  33.875  60.831  0.00  0.00    +0.000 N 
ATOM      2  C   UNL     1      52.845  31.878  59.464  0.00  0.00    +0.000 C 
ATOM      3  C   UNL     1      52.955  33.156  58.633  0.00  0.00    +0.000 A 
ATOM      4  C   UNL     1      52.776  32.484  60.920  0.00  0.00    +0.000 C 
ATOM      5  C   UNL     1      52.946  34.277  59.488  0.00  0.00    +0.000 A 
ATOM      6  C   UNL     1      51.536  31.122  59.071  0.00  0.00    +0.000 C 
ATOM      7  C   UNL     1      54.127  31.012  59.242  0.00  0.00    +0.000 C 
ATOM      8  C   UNL     1      53.052  33.308  57.257  0.00  0.00    +0.000 A 
ATOM      9  C   UNL     1      53.035  35.560  58.979  0.00  0.00    +0.000 A 
ATOM     10  C   UNL     1      52.671  31.861  62.111  0.00  0.00    +0.000 C 
ATOM     11  C   UNL     1      53.141  34.602  56.745  0.00  0.00    +0.000 A 
ATOM     12  C   UNL     1      53.133  35.715  57.597  0.00  0.00    +0.000 A 
ENDROOT
BRANCH   1  13
ATOM     13  C   UNL     1      52.808  34.798  61.940  0.00  0.00    +0.000 C 
ATOM     14  C   UNL     1      52.778  35.781  63.114  0.00  0.00    +0.000 C 
BRANCH  14  15
ATOM     15  C   UNL     1      52.748  36.764  64.289  0.00  0.00    +0.000 C 
BRANCH  15  16
ATOM     16  C   UNL     1      52.719  37.746  65.463  0.00  0.00    +0.000 C 
ATOM     17  C   UNL     1      52.691  38.728  66.638  0.00  0.00    +0.000 C 
BRANCH  17  19
ATOM     18  O   UNL     1      52.006  39.471  68.744  0.00  0.00    +0.000 OA
ATOM     19  C   UNL     1      52.665  39.648  67.735  0.00  0.00    +0.000 C 
BRANCH  19  20
ATOM     20  O   UNL     1      53.436  40.735  67.556  0.00  0.00    +0.000 OA
ATOM     21  H   UNL     1      52.836  41.481  67.763  0.00  0.00    +0.000 HD
ENDBRANCH  19  20
ENDBRANCH  17  19
ENDBRANCH  15  16
ENDBRANCH  14  15
ENDBRANCH   1  13
TORSDOF 5
ENDMDL
