MODEL 1
REMARK VINA RESULT:      -4.6      0.000      0.000
REMARK  Name = 86311066_OplopantriolA.pdbqt.pdb
REMARK  12 active torsions:
REMARK  status: ('A' for Active; 'I' for Inactive)
REMARK    1  A    between atoms: C_1  and  C_3
REMARK    2  A    between atoms: C_2  and  C_13
REMARK    3  A    between atoms: C_4  and  C_5
REMARK    4  A    between atoms: C_6  and  C_7
REMARK    5  A    between atoms: C_8  and  C_9
REMARK    6  A    between atoms: C_10  and  O_11
REMARK    7  A    between atoms: C_13  and  O_14
REMARK    8  A    between atoms: C_13  and  C_16
REMARK    9  A    between atoms: C_17  and  C_18
REMARK   10  A    between atoms: C_19  and  C_20
REMARK   11  A    between atoms: C_20  and  C_21
REMARK   12  A    between atoms: C_20  and  O_23
REMARK                            x       y       z     vdW  Elec       q    Type
REMARK                         _______ _______ _______ _____ _____    ______ ____
ROOT
ATOM      1  C   UNL     1      64.689  50.771  59.266  0.00  0.00    +0.000 C 
ATOM      2  C   UNL     1      65.882  50.650  59.330  0.00  0.00    +0.000 C 
ENDROOT
BRANCH   1   3
ATOM      3  C   UNL     1      63.168  50.926  59.184  0.00  0.00    +0.000 C 
ATOM      4  C   UNL     1      61.646  51.081  59.102  0.00  0.00    +0.000 C 
BRANCH   4   5
ATOM      5  C   UNL     1      60.124  51.235  59.021  0.00  0.00    +0.000 C 
ATOM      6  C   UNL     1      58.603  51.392  58.939  0.00  0.00    +0.000 C 
BRANCH   6   7
ATOM      7  C   UNL     1      57.081  51.548  58.858  0.00  0.00    +0.000 C 
ATOM      8  C   UNL     1      55.560  51.704  58.778  0.00  0.00    +0.000 C 
BRANCH   8   9
ATOM      9  C   UNL     1      54.038  51.859  58.696  0.00  0.00    +0.000 C 
ATOM     10  C   UNL     1      52.517  52.014  58.614  0.00  0.00    +0.000 C 
BRANCH  10  11
ATOM     11  O   UNL     1      51.198  52.148  58.543  0.00  0.00    +0.000 OA
ATOM     12  H   UNL     1      50.799  52.041  59.423  0.00  0.00    +0.000 HD
ENDBRANCH  10  11
ENDBRANCH   8   9
ENDBRANCH   6   7
ENDBRANCH   4   5
ENDBRANCH   1   3
BRANCH   2  13
ATOM     13  C   UNL     1      67.289  50.509  59.406  0.00  0.00    +0.000 C 
BRANCH  13  14
ATOM     14  O   UNL     1      67.928  49.917  58.340  0.00  0.00    +0.000 OA
ATOM     15  H   UNL     1      67.320  49.363  57.821  0.00  0.00    +0.000 HD
ENDBRANCH  13  14
BRANCH  13  16
ATOM     16  C   UNL     1      68.065  50.941  60.513  0.00  0.00    +0.000 C 
ATOM     17  C   UNL     1      68.721  51.306  61.449  0.00  0.00    +0.000 C 
BRANCH  17  18
ATOM     18  C   UNL     1      69.559  51.769  62.644  0.00  0.00    +0.000 C 
ATOM     19  C   UNL     1      70.216  52.133  63.581  0.00  0.00    +0.000 C 
BRANCH  19  20
ATOM     20  C   UNL     1      70.994  52.563  64.688  0.00  0.00    +0.000 C 
BRANCH  20  21
ATOM     21  C   UNL     1      70.783  53.801  65.357  0.00  0.00    +0.000 C 
ATOM     22  C   UNL     1      70.573  54.964  65.977  0.00  0.00    +0.000 C 
ENDBRANCH  20  21
BRANCH  20  23
ATOM     23  O   UNL     1      72.006  51.738  65.137  0.00  0.00    +0.000 OA
ATOM     24  H   UNL     1      72.619  51.496  64.422  0.00  0.00    +0.000 HD
ENDBRANCH  20  23
ENDBRANCH  19  20
ENDBRANCH  17  18
ENDBRANCH  13  16
ENDBRANCH   2  13
TORSDOF 12
ENDMDL
MODEL 2
REMARK VINA RESULT:      -4.5     15.906     16.292
REMARK  Name = 86311066_OplopantriolA.pdbqt.pdb
REMARK  12 active torsions:
REMARK  status: ('A' for Active; 'I' for Inactive)
REMARK    1  A    between atoms: C_1  and  C_3
REMARK    2  A    between atoms: C_2  and  C_13
REMARK    3  A    between atoms: C_4  and  C_5
REMARK    4  A    between atoms: C_6  and  C_7
REMARK    5  A    between atoms: C_8  and  C_9
REMARK    6  A    between atoms: C_10  and  O_11
REMARK    7  A    between atoms: C_13  and  O_14
REMARK    8  A    between atoms: C_13  and  C_16
REMARK    9  A    between atoms: C_17  and  C_18
REMARK   10  A    between atoms: C_19  and  C_20
REMARK   11  A    between atoms: C_20  and  C_21
REMARK   12  A    between atoms: C_20  and  O_23
REMARK                            x       y       z     vdW  Elec       q    Type
REMARK                         _______ _______ _______ _____ _____    ______ ____
ROOT
ATOM      1  C   UNL     1      59.004  36.197  65.211  0.00  0.00    +0.000 C 
ATOM      2  C   UNL     1      60.147  36.221  65.580  0.00  0.00    +0.000 C 
ENDROOT
BRANCH   1   3
ATOM      3  C   UNL     1      57.547  36.167  64.741  0.00  0.00    +0.000 C 
ATOM      4  C   UNL     1      56.090  36.138  64.271  0.00  0.00    +0.000 C 
BRANCH   4   5
ATOM      5  C   UNL     1      54.632  36.107  63.802  0.00  0.00    +0.000 C 
ATOM      6  C   UNL     1      53.174  36.077  63.335  0.00  0.00    +0.000 C 
BRANCH   6   7
ATOM      7  C   UNL     1      51.716  36.046  62.866  0.00  0.00    +0.000 C 
ATOM      8  C   UNL     1      50.258  36.015  62.398  0.00  0.00    +0.000 C 
BRANCH   8   9
ATOM      9  C   UNL     1      48.799  35.984  61.931  0.00  0.00    +0.000 C 
ATOM     10  C   UNL     1      47.341  35.954  61.464  0.00  0.00    +0.000 C 
BRANCH  10  11
ATOM     11  O   UNL     1      46.077  35.928  61.059  0.00  0.00    +0.000 OA
ATOM     12  H   UNL     1      46.018  36.160  60.117  0.00  0.00    +0.000 HD
ENDBRANCH  10  11
ENDBRANCH   8   9
ENDBRANCH   6   7
ENDBRANCH   4   5
ENDBRANCH   1   3
BRANCH   2  13
ATOM     13  C   UNL     1      61.494  36.248  66.017  0.00  0.00    +0.000 C 
BRANCH  13  14
ATOM     14  O   UNL     1      62.321  35.234  65.591  0.00  0.00    +0.000 OA
ATOM     15  H   UNL     1      62.113  34.393  66.031  0.00  0.00    +0.000 HD
ENDBRANCH  13  14
BRANCH  13  16
ATOM     16  C   UNL     1      62.027  37.256  66.861  0.00  0.00    +0.000 C 
ATOM     17  C   UNL     1      62.480  38.108  67.575  0.00  0.00    +0.000 C 
BRANCH  17  18
ATOM     18  C   UNL     1      63.058  39.194  68.486  0.00  0.00    +0.000 C 
ATOM     19  C   UNL     1      63.512  40.046  69.201  0.00  0.00    +0.000 C 
BRANCH  19  20
ATOM     20  C   UNL     1      64.049  41.053  70.046  0.00  0.00    +0.000 C 
BRANCH  20  21
ATOM     21  C   UNL     1      65.144  40.831  70.927  0.00  0.00    +0.000 C 
ATOM     22  C   UNL     1      66.163  40.627  71.765  0.00  0.00    +0.000 C 
ENDBRANCH  20  21
BRANCH  20  23
ATOM     23  O   UNL     1      63.478  42.309  70.013  0.00  0.00    +0.000 OA
ATOM     24  H   UNL     1      63.476  42.729  70.890  0.00  0.00    +0.000 HD
ENDBRANCH  20  23
ENDBRANCH  19  20
ENDBRANCH  17  18
ENDBRANCH  13  16
ENDBRANCH   2  13
TORSDOF 12
ENDMDL
MODEL 3
REMARK VINA RESULT:      -4.4     11.973     17.619
REMARK  Name = 86311066_OplopantriolA.pdbqt.pdb
REMARK  12 active torsions:
REMARK  status: ('A' for Active; 'I' for Inactive)
REMARK    1  A    between atoms: C_1  and  C_3
REMARK    2  A    between atoms: C_2  and  C_13
REMARK    3  A    between atoms: C_4  and  C_5
REMARK    4  A    between atoms: C_6  and  C_7
REMARK    5  A    between atoms: C_8  and  C_9
REMARK    6  A    between atoms: C_10  and  O_11
REMARK    7  A    between atoms: C_13  and  O_14
REMARK    8  A    between atoms: C_13  and  C_16
REMARK    9  A    between atoms: C_17  and  C_18
REMARK   10  A    between atoms: C_19  and  C_20
REMARK   11  A    between atoms: C_20  and  C_21
REMARK   12  A    between atoms: C_20  and  O_23
REMARK                            x       y       z     vdW  Elec       q    Type
REMARK                         _______ _______ _______ _____ _____    ______ ____
ROOT
ATOM      1  C   UNL     1      67.412  64.027  65.552  0.00  0.00    +0.000 C 
ATOM      2  C   UNL     1      66.985  65.149  65.520  0.00  0.00    +0.000 C 
ENDROOT
BRANCH   1   3
ATOM      3  C   UNL     1      67.956  62.597  65.594  0.00  0.00    +0.000 C 
ATOM      4  C   UNL     1      68.501  61.166  65.636  0.00  0.00    +0.000 C 
BRANCH   4   5
ATOM      5  C   UNL     1      69.046  59.735  65.677  0.00  0.00    +0.000 C 
ATOM      6  C   UNL     1      69.589  58.304  65.719  0.00  0.00    +0.000 C 
BRANCH   6   7
ATOM      7  C   UNL     1      70.133  56.872  65.761  0.00  0.00    +0.000 C 
ATOM      8  C   UNL     1      70.677  55.441  65.803  0.00  0.00    +0.000 C 
BRANCH   8   9
ATOM      9  C   UNL     1      71.222  54.010  65.845  0.00  0.00    +0.000 C 
ATOM     10  C   UNL     1      71.766  52.579  65.887  0.00  0.00    +0.000 C 
BRANCH  10  11
ATOM     11  O   UNL     1      72.238  51.339  65.923  0.00  0.00    +0.000 OA
ATOM     12  H   UNL     1      71.834  50.844  66.656  0.00  0.00    +0.000 HD
ENDBRANCH  10  11
ENDBRANCH   8   9
ENDBRANCH   6   7
ENDBRANCH   4   5
ENDBRANCH   1   3
BRANCH   2  13
ATOM     13  C   UNL     1      66.482  66.473  65.482  0.00  0.00    +0.000 C 
BRANCH  13  14
ATOM     14  O   UNL     1      67.121  67.373  64.660  0.00  0.00    +0.000 OA
ATOM     15  H   UNL     1      67.984  67.037  64.365  0.00  0.00    +0.000 HD
ENDBRANCH  13  14
BRANCH  13  16
ATOM     16  C   UNL     1      65.366  66.913  66.240  0.00  0.00    +0.000 C 
ATOM     17  C   UNL     1      64.422  67.286  66.881  0.00  0.00    +0.000 C 
BRANCH  17  18
ATOM     18  C   UNL     1      63.220  67.763  67.700  0.00  0.00    +0.000 C 
ATOM     19  C   UNL     1      62.277  68.137  68.343  0.00  0.00    +0.000 C 
BRANCH  19  20
ATOM     20  C   UNL     1      61.161  68.578  69.102  0.00  0.00    +0.000 C 
BRANCH  20  21
ATOM     21  C   UNL     1      60.443  69.772  68.813  0.00  0.00    +0.000 C 
ATOM     22  C   UNL     1      59.757  70.887  68.552  0.00  0.00    +0.000 C 
ENDBRANCH  20  21
BRANCH  20  23
ATOM     23  O   UNL     1      60.754  67.811  70.175  0.00  0.00    +0.000 OA
ATOM     24  H   UNL     1      60.633  66.878  69.927  0.00  0.00    +0.000 HD
ENDBRANCH  20  23
ENDBRANCH  19  20
ENDBRANCH  17  18
ENDBRANCH  13  16
ENDBRANCH   2  13
TORSDOF 12
ENDMDL
MODEL 4
REMARK VINA RESULT:      -4.4     16.915     22.165
REMARK  Name = 86311066_OplopantriolA.pdbqt.pdb
REMARK  12 active torsions:
REMARK  status: ('A' for Active; 'I' for Inactive)
REMARK    1  A    between atoms: C_1  and  C_3
REMARK    2  A    between atoms: C_2  and  C_13
REMARK    3  A    between atoms: C_4  and  C_5
REMARK    4  A    between atoms: C_6  and  C_7
REMARK    5  A    between atoms: C_8  and  C_9
REMARK    6  A    between atoms: C_10  and  O_11
REMARK    7  A    between atoms: C_13  and  O_14
REMARK    8  A    between atoms: C_13  and  C_16
REMARK    9  A    between atoms: C_17  and  C_18
REMARK   10  A    between atoms: C_19  and  C_20
REMARK   11  A    between atoms: C_20  and  C_21
REMARK   12  A    between atoms: C_20  and  O_23
REMARK                            x       y       z     vdW  Elec       q    Type
REMARK                         _______ _______ _______ _____ _____    ______ ____
ROOT
ATOM      1  C   UNL     1      55.204  35.653  62.914  0.00  0.00    +0.000 C 
ATOM      2  C   UNL     1      54.229  35.293  62.312  0.00  0.00    +0.000 C 
ENDROOT
BRANCH   1   3
ATOM      3  C   UNL     1      56.447  36.113  63.680  0.00  0.00    +0.000 C 
ATOM      4  C   UNL     1      57.691  36.572  64.447  0.00  0.00    +0.000 C 
BRANCH   4   5
ATOM      5  C   UNL     1      58.934  37.031  65.215  0.00  0.00    +0.000 C 
ATOM      6  C   UNL     1      60.177  37.492  65.983  0.00  0.00    +0.000 C 
BRANCH   6   7
ATOM      7  C   UNL     1      61.420  37.952  66.751  0.00  0.00    +0.000 C 
ATOM      8  C   UNL     1      62.662  38.412  67.519  0.00  0.00    +0.000 C 
BRANCH   8   9
ATOM      9  C   UNL     1      63.905  38.873  68.287  0.00  0.00    +0.000 C 
ATOM     10  C   UNL     1      65.147  39.335  69.055  0.00  0.00    +0.000 C 
BRANCH  10  11
ATOM     11  O   UNL     1      66.223  39.735  69.721  0.00  0.00    +0.000 OA
ATOM     12  H   UNL     1      66.235  40.704  69.794  0.00  0.00    +0.000 HD
ENDBRANCH  10  11
ENDBRANCH   8   9
ENDBRANCH   6   7
ENDBRANCH   4   5
ENDBRANCH   1   3
BRANCH   2  13
ATOM     13  C   UNL     1      53.079  34.867  61.602  0.00  0.00    +0.000 C 
BRANCH  13  14
ATOM     14  O   UNL     1      51.921  34.681  62.320  0.00  0.00    +0.000 OA
ATOM     15  H   UNL     1      51.139  34.967  61.819  0.00  0.00    +0.000 HD
ENDBRANCH  13  14
BRANCH  13  16
ATOM     16  C   UNL     1      53.063  34.627  60.204  0.00  0.00    +0.000 C 
ATOM     17  C   UNL     1      53.048  34.423  59.021  0.00  0.00    +0.000 C 
BRANCH  17  18
ATOM     18  C   UNL     1      53.027  34.163  57.512  0.00  0.00    +0.000 C 
ATOM     19  C   UNL     1      53.010  33.959  56.329  0.00  0.00    +0.000 C 
BRANCH  19  20
ATOM     20  C   UNL     1      52.990  33.717  54.930  0.00  0.00    +0.000 C 
BRANCH  20  21
ATOM     21  C   UNL     1      53.244  32.441  54.354  0.00  0.00    +0.000 C 
ATOM     22  C   UNL     1      53.477  31.249  53.800  0.00  0.00    +0.000 C 
ENDBRANCH  20  21
BRANCH  20  23
ATOM     23  O   UNL     1      52.711  34.773  54.086  0.00  0.00    +0.000 OA
ATOM     24  H   UNL     1      53.106  35.604  54.404  0.00  0.00    +0.000 HD
ENDBRANCH  20  23
ENDBRANCH  19  20
ENDBRANCH  17  18
ENDBRANCH  13  16
ENDBRANCH   2  13
TORSDOF 12
ENDMDL
MODEL 5
REMARK VINA RESULT:      -4.3     16.254     22.504
REMARK  Name = 86311066_OplopantriolA.pdbqt.pdb
REMARK  12 active torsions:
REMARK  status: ('A' for Active; 'I' for Inactive)
REMARK    1  A    between atoms: C_1  and  C_3
REMARK    2  A    between atoms: C_2  and  C_13
REMARK    3  A    between atoms: C_4  and  C_5
REMARK    4  A    between atoms: C_6  and  C_7
REMARK    5  A    between atoms: C_8  and  C_9
REMARK    6  A    between atoms: C_10  and  O_11
REMARK    7  A    between atoms: C_13  and  O_14
REMARK    8  A    between atoms: C_13  and  C_16
REMARK    9  A    between atoms: C_17  and  C_18
REMARK   10  A    between atoms: C_19  and  C_20
REMARK   11  A    between atoms: C_20  and  C_21
REMARK   12  A    between atoms: C_20  and  O_23
REMARK                            x       y       z     vdW  Elec       q    Type
REMARK                         _______ _______ _______ _____ _____    ______ ____
ROOT
ATOM      1  C   UNL     1      54.995  35.472  62.627  0.00  0.00    +0.000 C 
ATOM      2  C   UNL     1      54.033  35.102  62.010  0.00  0.00    +0.000 C 
ENDROOT
BRANCH   1   3
ATOM      3  C   UNL     1      56.221  35.946  63.412  0.00  0.00    +0.000 C 
ATOM      4  C   UNL     1      57.448  36.419  64.198  0.00  0.00    +0.000 C 
BRANCH   4   5
ATOM      5  C   UNL     1      58.674  36.891  64.984  0.00  0.00    +0.000 C 
ATOM      6  C   UNL     1      59.902  37.362  65.769  0.00  0.00    +0.000 C 
BRANCH   6   7
ATOM      7  C   UNL     1      61.129  37.834  66.556  0.00  0.00    +0.000 C 
ATOM      8  C   UNL     1      62.356  38.305  67.342  0.00  0.00    +0.000 C 
BRANCH   8   9
ATOM      9  C   UNL     1      63.584  38.775  68.127  0.00  0.00    +0.000 C 
ATOM     10  C   UNL     1      64.813  39.245  68.912  0.00  0.00    +0.000 C 
BRANCH  10  11
ATOM     11  O   UNL     1      65.877  39.653  69.592  0.00  0.00    +0.000 OA
ATOM     12  H   UNL     1      65.767  40.577  69.872  0.00  0.00    +0.000 HD
ENDBRANCH  10  11
ENDBRANCH   8   9
ENDBRANCH   6   7
ENDBRANCH   4   5
ENDBRANCH   1   3
BRANCH   2  13
ATOM     13  C   UNL     1      52.900  34.663  61.283  0.00  0.00    +0.000 C 
BRANCH  13  14
ATOM     14  O   UNL     1      53.092  33.683  60.335  0.00  0.00    +0.000 OA
ATOM     15  H   UNL     1      52.290  33.532  59.809  0.00  0.00    +0.000 HD
ENDBRANCH  13  14
BRANCH  13  16
ATOM     16  C   UNL     1      51.592  35.176  61.479  0.00  0.00    +0.000 C 
ATOM     17  C   UNL     1      50.484  35.609  61.645  0.00  0.00    +0.000 C 
BRANCH  17  18
ATOM     18  C   UNL     1      49.072  36.160  61.855  0.00  0.00    +0.000 C 
ATOM     19  C   UNL     1      47.964  36.592  62.021  0.00  0.00    +0.000 C 
BRANCH  19  20
ATOM     20  C   UNL     1      46.653  37.103  62.218  0.00  0.00    +0.000 C 
BRANCH  20  21
ATOM     21  C   UNL     1      45.975  37.052  63.468  0.00  0.00    +0.000 C 
ATOM     22  C   UNL     1      45.332  36.990  64.636  0.00  0.00    +0.000 C 
ENDBRANCH  20  21
BRANCH  20  23
ATOM     23  O   UNL     1      46.005  37.676  61.142  0.00  0.00    +0.000 OA
ATOM     24  H   UNL     1      46.195  37.205  60.313  0.00  0.00    +0.000 HD
ENDBRANCH  20  23
ENDBRANCH  19  20
ENDBRANCH  17  18
ENDBRANCH  13  16
ENDBRANCH   2  13
TORSDOF 12
ENDMDL
MODEL 6
REMARK VINA RESULT:      -4.3      9.459     19.071
REMARK  Name = 86311066_OplopantriolA.pdbqt.pdb
REMARK  12 active torsions:
REMARK  status: ('A' for Active; 'I' for Inactive)
REMARK    1  A    between atoms: C_1  and  C_3
REMARK    2  A    between atoms: C_2  and  C_13
REMARK    3  A    between atoms: C_4  and  C_5
REMARK    4  A    between atoms: C_6  and  C_7
REMARK    5  A    between atoms: C_8  and  C_9
REMARK    6  A    between atoms: C_10  and  O_11
REMARK    7  A    between atoms: C_13  and  O_14
REMARK    8  A    between atoms: C_13  and  C_16
REMARK    9  A    between atoms: C_17  and  C_18
REMARK   10  A    between atoms: C_19  and  C_20
REMARK   11  A    between atoms: C_20  and  C_21
REMARK   12  A    between atoms: C_20  and  O_23
REMARK                            x       y       z     vdW  Elec       q    Type
REMARK                         _______ _______ _______ _____ _____    ______ ____
ROOT
ATOM      1  C   UNL     1      71.260  60.744  67.720  0.00  0.00    +0.000 C 
ATOM      2  C   UNL     1      70.557  60.126  66.967  0.00  0.00    +0.000 C 
ENDROOT
BRANCH   1   3
ATOM      3  C   UNL     1      72.157  61.529  68.680  0.00  0.00    +0.000 C 
ATOM      4  C   UNL     1      73.054  62.315  69.642  0.00  0.00    +0.000 C 
BRANCH   4   5
ATOM      5  C   UNL     1      73.950  63.102  70.603  0.00  0.00    +0.000 C 
ATOM      6  C   UNL     1      74.845  63.890  71.564  0.00  0.00    +0.000 C 
BRANCH   6   7
ATOM      7  C   UNL     1      75.742  64.678  72.524  0.00  0.00    +0.000 C 
ATOM      8  C   UNL     1      76.638  65.466  73.484  0.00  0.00    +0.000 C 
BRANCH   8   9
ATOM      9  C   UNL     1      77.533  66.253  74.446  0.00  0.00    +0.000 C 
ATOM     10  C   UNL     1      78.429  67.040  75.407  0.00  0.00    +0.000 C 
BRANCH  10  11
ATOM     11  O   UNL     1      79.205  67.723  76.240  0.00  0.00    +0.000 OA
ATOM     12  H   UNL     1      80.141  67.527  76.068  0.00  0.00    +0.000 HD
ENDBRANCH  10  11
ENDBRANCH   8   9
ENDBRANCH   6   7
ENDBRANCH   4   5
ENDBRANCH   1   3
BRANCH   2  13
ATOM     13  C   UNL     1      69.726  59.399  66.079  0.00  0.00    +0.000 C 
BRANCH  13  14
ATOM     14  O   UNL     1      68.717  60.087  65.444  0.00  0.00    +0.000 OA
ATOM     15  H   UNL     1      67.841  59.811  65.761  0.00  0.00    +0.000 HD
ENDBRANCH  13  14
BRANCH  13  16
ATOM     16  C   UNL     1      69.880  58.014  65.815  0.00  0.00    +0.000 C 
ATOM     17  C   UNL     1      70.010  56.841  65.593  0.00  0.00    +0.000 C 
BRANCH  17  18
ATOM     18  C   UNL     1      70.176  55.346  65.311  0.00  0.00    +0.000 C 
ATOM     19  C   UNL     1      70.306  54.173  65.090  0.00  0.00    +0.000 C 
BRANCH  19  20
ATOM     20  C   UNL     1      70.459  52.785  64.829  0.00  0.00    +0.000 C 
BRANCH  20  21
ATOM     21  C   UNL     1      69.739  52.097  63.814  0.00  0.00    +0.000 C 
ATOM     22  C   UNL     1      69.060  51.438  62.871  0.00  0.00    +0.000 C 
ENDBRANCH  20  21
BRANCH  20  23
ATOM     23  O   UNL     1      71.352  52.069  65.601  0.00  0.00    +0.000 OA
ATOM     24  H   UNL     1      72.031  51.633  65.058  0.00  0.00    +0.000 HD
ENDBRANCH  20  23
ENDBRANCH  19  20
ENDBRANCH  17  18
ENDBRANCH  13  16
ENDBRANCH   2  13
TORSDOF 12
ENDMDL
MODEL 7
REMARK VINA RESULT:      -4.2      7.707     11.935
REMARK  Name = 86311066_OplopantriolA.pdbqt.pdb
REMARK  12 active torsions:
REMARK  status: ('A' for Active; 'I' for Inactive)
REMARK    1  A    between atoms: C_1  and  C_3
REMARK    2  A    between atoms: C_2  and  C_13
REMARK    3  A    between atoms: C_4  and  C_5
REMARK    4  A    between atoms: C_6  and  C_7
REMARK    5  A    between atoms: C_8  and  C_9
REMARK    6  A    between atoms: C_10  and  O_11
REMARK    7  A    between atoms: C_13  and  O_14
REMARK    8  A    between atoms: C_13  and  C_16
REMARK    9  A    between atoms: C_17  and  C_18
REMARK   10  A    between atoms: C_19  and  C_20
REMARK   11  A    between atoms: C_20  and  C_21
REMARK   12  A    between atoms: C_20  and  O_23
REMARK                            x       y       z     vdW  Elec       q    Type
REMARK                         _______ _______ _______ _____ _____    ______ ____
ROOT
ATOM      1  C   UNL     1      62.028  53.741  60.079  0.00  0.00    +0.000 C 
ATOM      2  C   UNL     1      61.463  54.628  60.660  0.00  0.00    +0.000 C 
ENDROOT
BRANCH   1   3
ATOM      3  C   UNL     1      62.749  52.612  59.339  0.00  0.00    +0.000 C 
ATOM      4  C   UNL     1      63.470  51.482  58.598  0.00  0.00    +0.000 C 
BRANCH   4   5
ATOM      5  C   UNL     1      64.190  50.351  57.857  0.00  0.00    +0.000 C 
ATOM      6  C   UNL     1      64.911  49.219  57.118  0.00  0.00    +0.000 C 
BRANCH   6   7
ATOM      7  C   UNL     1      65.631  48.088  56.378  0.00  0.00    +0.000 C 
ATOM      8  C   UNL     1      66.352  46.957  55.638  0.00  0.00    +0.000 C 
BRANCH   8   9
ATOM      9  C   UNL     1      67.074  45.826  54.899  0.00  0.00    +0.000 C 
ATOM     10  C   UNL     1      67.795  44.696  54.159  0.00  0.00    +0.000 C 
BRANCH  10  11
ATOM     11  O   UNL     1      68.421  43.716  53.518  0.00  0.00    +0.000 OA
ATOM     12  H   UNL     1      68.329  42.880  54.005  0.00  0.00    +0.000 HD
ENDBRANCH  10  11
ENDBRANCH   8   9
ENDBRANCH   6   7
ENDBRANCH   4   5
ENDBRANCH   1   3
BRANCH   2  13
ATOM     13  C   UNL     1      60.796  55.674  61.343  0.00  0.00    +0.000 C 
BRANCH  13  14
ATOM     14  O   UNL     1      60.165  55.360  62.526  0.00  0.00    +0.000 OA
ATOM     15  H   UNL     1      60.716  54.785  63.083  0.00  0.00    +0.000 HD
ENDBRANCH  13  14
BRANCH  13  16
ATOM     16  C   UNL     1      60.745  57.013  60.876  0.00  0.00    +0.000 C 
ATOM     17  C   UNL     1      60.701  58.145  60.480  0.00  0.00    +0.000 C 
BRANCH  17  18
ATOM     18  C   UNL     1      60.645  59.589  59.973  0.00  0.00    +0.000 C 
ATOM     19  C   UNL     1      60.601  60.721  59.576  0.00  0.00    +0.000 C 
BRANCH  19  20
ATOM     20  C   UNL     1      60.550  62.060  59.106  0.00  0.00    +0.000 C 
BRANCH  20  21
ATOM     21  C   UNL     1      59.883  63.107  59.802  0.00  0.00    +0.000 C 
ATOM     22  C   UNL     1      59.244  64.084  60.449  0.00  0.00    +0.000 C 
ENDBRANCH  20  21
BRANCH  20  23
ATOM     23  O   UNL     1      61.177  62.361  57.914  0.00  0.00    +0.000 OA
ATOM     24  H   UNL     1      60.928  63.242  57.586  0.00  0.00    +0.000 HD
ENDBRANCH  20  23
ENDBRANCH  19  20
ENDBRANCH  17  18
ENDBRANCH  13  16
ENDBRANCH   2  13
TORSDOF 12
ENDMDL
MODEL 8
REMARK VINA RESULT:      -4.1     25.533     28.939
REMARK  Name = 86311066_OplopantriolA.pdbqt.pdb
REMARK  12 active torsions:
REMARK  status: ('A' for Active; 'I' for Inactive)
REMARK    1  A    between atoms: C_1  and  C_3
REMARK    2  A    between atoms: C_2  and  C_13
REMARK    3  A    between atoms: C_4  and  C_5
REMARK    4  A    between atoms: C_6  and  C_7
REMARK    5  A    between atoms: C_8  and  C_9
REMARK    6  A    between atoms: C_10  and  O_11
REMARK    7  A    between atoms: C_13  and  O_14
REMARK    8  A    between atoms: C_13  and  C_16
REMARK    9  A    between atoms: C_17  and  C_18
REMARK   10  A    between atoms: C_19  and  C_20
REMARK   11  A    between atoms: C_20  and  C_21
REMARK   12  A    between atoms: C_20  and  O_23
REMARK                            x       y       z     vdW  Elec       q    Type
REMARK                         _______ _______ _______ _____ _____    ______ ____
ROOT
ATOM      1  C   UNL     1      55.673  68.510  81.993  0.00  0.00    +0.000 C 
ATOM      2  C   UNL     1      55.259  67.564  82.608  0.00  0.00    +0.000 C 
ENDROOT
BRANCH   1   3
ATOM      3  C   UNL     1      56.199  69.714  81.208  0.00  0.00    +0.000 C 
ATOM      4  C   UNL     1      56.725  70.919  80.422  0.00  0.00    +0.000 C 
BRANCH   4   5
ATOM      5  C   UNL     1      57.252  72.124  79.636  0.00  0.00    +0.000 C 
ATOM      6  C   UNL     1      57.777  73.330  78.851  0.00  0.00    +0.000 C 
BRANCH   6   7
ATOM      7  C   UNL     1      58.302  74.535  78.065  0.00  0.00    +0.000 C 
ATOM      8  C   UNL     1      58.828  75.740  77.279  0.00  0.00    +0.000 C 
BRANCH   8   9
ATOM      9  C   UNL     1      59.352  76.945  76.492  0.00  0.00    +0.000 C 
ATOM     10  C   UNL     1      59.876  78.150  75.706  0.00  0.00    +0.000 C 
BRANCH  10  11
ATOM     11  O   UNL     1      60.331  79.194  75.024  0.00  0.00    +0.000 OA
ATOM     12  H   UNL     1      61.219  79.009  74.674  0.00  0.00    +0.000 HD
ENDBRANCH  10  11
ENDBRANCH   8   9
ENDBRANCH   6   7
ENDBRANCH   4   5
ENDBRANCH   1   3
BRANCH   2  13
ATOM     13  C   UNL     1      54.772  66.449  83.332  0.00  0.00    +0.000 C 
BRANCH  13  14
ATOM     14  O   UNL     1      54.110  66.697  84.513  0.00  0.00    +0.000 OA
ATOM     15  H   UNL     1      54.418  66.112  85.226  0.00  0.00    +0.000 HD
ENDBRANCH  13  14
BRANCH  13  16
ATOM     16  C   UNL     1      54.930  65.105  82.907  0.00  0.00    +0.000 C 
ATOM     17  C   UNL     1      55.063  63.967  82.546  0.00  0.00    +0.000 C 
BRANCH  17  18
ATOM     18  C   UNL     1      55.231  62.517  82.085  0.00  0.00    +0.000 C 
ATOM     19  C   UNL     1      55.363  61.380  81.724  0.00  0.00    +0.000 C 
BRANCH  19  20
ATOM     20  C   UNL     1      55.517  60.035  81.296  0.00  0.00    +0.000 C 
BRANCH  20  21
ATOM     21  C   UNL     1      55.952  58.987  82.154  0.00  0.00    +0.000 C 
ATOM     22  C   UNL     1      56.367  58.014  82.969  0.00  0.00    +0.000 C 
ENDBRANCH  20  21
BRANCH  20  23
ATOM     23  O   UNL     1      55.232  59.729  79.980  0.00  0.00    +0.000 OA
ATOM     24  H   UNL     1      55.911  59.154  79.587  0.00  0.00    +0.000 HD
ENDBRANCH  20  23
ENDBRANCH  19  20
ENDBRANCH  17  18
ENDBRANCH  13  16
ENDBRANCH   2  13
TORSDOF 12
ENDMDL
MODEL 9
REMARK VINA RESULT:      -4.1     15.068     24.162
REMARK  Name = 86311066_OplopantriolA.pdbqt.pdb
REMARK  12 active torsions:
REMARK  status: ('A' for Active; 'I' for Inactive)
REMARK    1  A    between atoms: C_1  and  C_3
REMARK    2  A    between atoms: C_2  and  C_13
REMARK    3  A    between atoms: C_4  and  C_5
REMARK    4  A    between atoms: C_6  and  C_7
REMARK    5  A    between atoms: C_8  and  C_9
REMARK    6  A    between atoms: C_10  and  O_11
REMARK    7  A    between atoms: C_13  and  O_14
REMARK    8  A    between atoms: C_13  and  C_16
REMARK    9  A    between atoms: C_17  and  C_18
REMARK   10  A    between atoms: C_19  and  C_20
REMARK   11  A    between atoms: C_20  and  C_21
REMARK   12  A    between atoms: C_20  and  O_23
REMARK                            x       y       z     vdW  Elec       q    Type
REMARK                         _______ _______ _______ _____ _____    ______ ____
ROOT
ATOM      1  C   UNL     1      75.236  64.911  71.741  0.00  0.00    +0.000 C 
ATOM      2  C   UNL     1      74.830  63.797  71.545  0.00  0.00    +0.000 C 
ENDROOT
BRANCH   1   3
ATOM      3  C   UNL     1      75.752  66.330  71.991  0.00  0.00    +0.000 C 
ATOM      4  C   UNL     1      76.269  67.750  72.242  0.00  0.00    +0.000 C 
BRANCH   4   5
ATOM      5  C   UNL     1      76.784  69.171  72.493  0.00  0.00    +0.000 C 
ATOM      6  C   UNL     1      77.300  70.591  72.742  0.00  0.00    +0.000 C 
BRANCH   6   7
ATOM      7  C   UNL     1      77.816  72.011  72.992  0.00  0.00    +0.000 C 
ATOM      8  C   UNL     1      78.333  73.431  73.242  0.00  0.00    +0.000 C 
BRANCH   8   9
ATOM      9  C   UNL     1      78.848  74.852  73.492  0.00  0.00    +0.000 C 
ATOM     10  C   UNL     1      79.362  76.273  73.741  0.00  0.00    +0.000 C 
BRANCH  10  11
ATOM     11  O   UNL     1      79.809  77.504  73.957  0.00  0.00    +0.000 OA
ATOM     12  H   UNL     1      79.736  78.038  73.148  0.00  0.00    +0.000 HD
ENDBRANCH  10  11
ENDBRANCH   8   9
ENDBRANCH   6   7
ENDBRANCH   4   5
ENDBRANCH   1   3
BRANCH   2  13
ATOM     13  C   UNL     1      74.352  62.484  71.313  0.00  0.00    +0.000 C 
BRANCH  13  14
ATOM     14  O   UNL     1      74.898  61.467  72.061  0.00  0.00    +0.000 OA
ATOM     15  H   UNL     1      74.442  60.623  71.906  0.00  0.00    +0.000 HD
ENDBRANCH  13  14
BRANCH  13  16
ATOM     16  C   UNL     1      73.350  62.169  70.359  0.00  0.00    +0.000 C 
ATOM     17  C   UNL     1      72.502  61.902  69.553  0.00  0.00    +0.000 C 
BRANCH  17  18
ATOM     18  C   UNL     1      71.420  61.559  68.525  0.00  0.00    +0.000 C 
ATOM     19  C   UNL     1      70.572  61.289  67.719  0.00  0.00    +0.000 C 
BRANCH  19  20
ATOM     20  C   UNL     1      69.569  60.970  66.765  0.00  0.00    +0.000 C 
BRANCH  20  21
ATOM     21  C   UNL     1      69.515  59.727  66.075  0.00  0.00    +0.000 C 
ATOM     22  C   UNL     1      69.458  58.554  65.441  0.00  0.00    +0.000 C 
ENDBRANCH  20  21
BRANCH  20  23
ATOM     23  O   UNL     1      68.599  61.914  66.494  0.00  0.00    +0.000 OA
ATOM     24  H   UNL     1      68.676  62.261  65.589  0.00  0.00    +0.000 HD
ENDBRANCH  20  23
ENDBRANCH  19  20
ENDBRANCH  17  18
ENDBRANCH  13  16
ENDBRANCH   2  13
TORSDOF 12
ENDMDL
