MODEL 1
REMARK VINA RESULT:      -7.7      0.000      0.000
REMARK  Name = 91746246_sitosterol.pdbqt.pdb
REMARK  10 active torsions:
REMARK  status: ('A' for Active; 'I' for Inactive)
REMARK    1  A    between atoms: C_5  and  C_20
REMARK    2  A    between atoms: C_19  and  O_30
REMARK    3  A    between atoms: C_20  and  C_22
REMARK    4  A    between atoms: C_23  and  C_24
REMARK    5  A    between atoms: C_24  and  C_28
REMARK    6  A    between atoms: O_30  and  C_32
REMARK    7  A    between atoms: C_32  and  C_33
REMARK    8  A    between atoms: C_34  and  C_35
REMARK    9  A    between atoms: C_38  and  O_41
REMARK   10  A    between atoms: C_40  and  O_43
REMARK                            x       y       z     vdW  Elec       q    Type
REMARK                         _______ _______ _______ _____ _____    ______ ____
ROOT
ATOM      1  C   UNL     1      66.126  69.748  67.085  0.00  0.00    +0.000 C 
ATOM      2  C   UNL     1      64.942  70.705  67.640  0.00  0.00    +0.000 C 
ATOM      3  C   UNL     1      63.569  70.211  67.867  0.00  0.00    +0.000 C 
ATOM      4  C   UNL     1      63.138  68.765  67.875  0.00  0.00    +0.000 C 
ATOM      5  C   UNL     1      67.315  70.131  67.956  0.00  0.00    +0.000 C 
ATOM      6  C   UNL     1      65.625  68.389  67.285  0.00  0.00    +0.000 C 
ATOM      7  C   UNL     1      61.669  68.306  68.065  0.00  0.00    +0.000 C 
ATOM      8  C   UNL     1      65.536  71.627  68.558  0.00  0.00    +0.000 C 
ATOM      9  C   UNL     1      64.238  67.902  67.625  0.00  0.00    +0.000 C 
ATOM     10  C   UNL     1      66.978  71.254  68.769  0.00  0.00    +0.000 C 
ATOM     11  C   UNL     1      62.532  71.091  68.263  0.00  0.00    +0.000 C 
ATOM     12  C   UNL     1      66.366  70.139  65.602  0.00  0.00    +0.000 C 
ATOM     13  C   UNL     1      60.682  69.462  68.708  0.00  0.00    +0.000 C 
ATOM     14  C   UNL     1      61.596  67.190  69.055  0.00  0.00    +0.000 C 
ATOM     15  C   UNL     1      61.148  70.673  68.663  0.00  0.00    +0.000 C 
ATOM     16  C   UNL     1      61.072  67.906  66.685  0.00  0.00    +0.000 C 
ATOM     17  C   UNL     1      59.957  69.067  69.895  0.00  0.00    +0.000 C 
ATOM     18  C   UNL     1      60.781  66.954  70.337  0.00  0.00    +0.000 C 
ATOM     19  C   UNL     1      59.870  67.959  70.809  0.00  0.00    +0.000 C 
ENDROOT
BRANCH   5  20
ATOM     20  C   UNL     1      68.635  69.613  67.788  0.00  0.00    +0.000 C 
ATOM     21  C   UNL     1      68.923  68.136  67.772  0.00  0.00    +0.000 C 
BRANCH  20  22
ATOM     22  C   UNL     1      69.772  70.462  67.878  0.00  0.00    +0.000 C 
ATOM     23  C   UNL     1      71.001  71.380  67.973  0.00  0.00    +0.000 C 
BRANCH  23  24
ATOM     24  C   UNL     1      72.148  72.227  68.046  0.00  0.00    +0.000 C 
ATOM     25  C   UNL     1      73.453  71.759  67.630  0.00  0.00    +0.000 C 
ATOM     26  C   UNL     1      74.707  72.600  67.724  0.00  0.00    +0.000 C 
ATOM     27  C   UNL     1      73.681  70.377  67.055  0.00  0.00    +0.000 C 
BRANCH  24  28
ATOM     28  C   UNL     1      72.007  73.553  68.537  0.00  0.00    +0.000 C 
ATOM     29  C   UNL     1      71.796  74.965  69.096  0.00  0.00    +0.000 C 
ENDBRANCH  24  28
ENDBRANCH  23  24
ENDBRANCH  20  22
ENDBRANCH   5  20
BRANCH  19  30
ATOM     30  O   UNL     1      58.618  67.608  71.305  0.00  0.00    +0.000 OA
BRANCH  30  32
ATOM     31  O   UNL     1      56.816  68.729  70.356  0.00  0.00    +0.000 OA
ATOM     32  C   UNL     1      57.634  67.822  70.384  0.00  0.00    +0.000 C 
BRANCH  32  33
ATOM     33  C   UNL     1      57.659  66.826  69.342  0.00  0.00    +0.000 C 
ATOM     34  C   UNL     1      57.687  65.984  68.486  0.00  0.00    +0.000 C 
BRANCH  34  35
ATOM     35  C   UNL     1      57.730  64.972  67.482  0.00  0.00    +0.000 A 
ATOM     36  C   UNL     1      56.544  64.398  67.027  0.00  0.00    +0.000 A 
ATOM     37  C   UNL     1      58.953  64.554  66.963  0.00  0.00    +0.000 A 
ATOM     38  C   UNL     1      56.564  63.402  66.047  0.00  0.00    +0.000 A 
ATOM     39  C   UNL     1      58.988  63.561  65.987  0.00  0.00    +0.000 A 
ATOM     40  C   UNL     1      57.798  62.991  65.536  0.00  0.00    +0.000 A 
BRANCH  38  41
ATOM     41  O   UNL     1      55.444  62.785  65.546  0.00  0.00    +0.000 OA
ATOM     42  C   UNL     1      54.655  63.567  64.687  0.00  0.00    +0.000 C 
ENDBRANCH  38  41
BRANCH  40  43
ATOM     43  O   UNL     1      57.840  62.015  64.579  0.00  0.00    +0.000 OA
ATOM     44  H   UNL     1      57.793  61.144  65.017  0.00  0.00    +0.000 HD
ENDBRANCH  40  43
ENDBRANCH  34  35
ENDBRANCH  32  33
ENDBRANCH  30  32
ENDBRANCH  19  30
TORSDOF 10
ENDMDL
MODEL 2
REMARK VINA RESULT:      -7.6     33.343     39.067
REMARK  Name = 91746246_sitosterol.pdbqt.pdb
REMARK  10 active torsions:
REMARK  status: ('A' for Active; 'I' for Inactive)
REMARK    1  A    between atoms: C_5  and  C_20
REMARK    2  A    between atoms: C_19  and  O_30
REMARK    3  A    between atoms: C_20  and  C_22
REMARK    4  A    between atoms: C_23  and  C_24
REMARK    5  A    between atoms: C_24  and  C_28
REMARK    6  A    between atoms: O_30  and  C_32
REMARK    7  A    between atoms: C_32  and  C_33
REMARK    8  A    between atoms: C_34  and  C_35
REMARK    9  A    between atoms: C_38  and  O_41
REMARK   10  A    between atoms: C_40  and  O_43
REMARK                            x       y       z     vdW  Elec       q    Type
REMARK                         _______ _______ _______ _____ _____    ______ ____
ROOT
ATOM      1  C   UNL     1      51.658  33.581  57.972  0.00  0.00    +0.000 C 
ATOM      2  C   UNL     1      52.726  32.430  58.373  0.00  0.00    +0.000 C 
ATOM      3  C   UNL     1      53.609  31.791  57.375  0.00  0.00    +0.000 C 
ATOM      4  C   UNL     1      53.836  32.265  55.961  0.00  0.00    +0.000 C 
ATOM      5  C   UNL     1      51.820  34.604  59.090  0.00  0.00    +0.000 C 
ATOM      6  C   UNL     1      52.087  34.037  56.650  0.00  0.00    +0.000 C 
ATOM      7  C   UNL     1      54.735  31.522  54.939  0.00  0.00    +0.000 C 
ATOM      8  C   UNL     1      53.223  32.746  59.676  0.00  0.00    +0.000 C 
ATOM      9  C   UNL     1      53.075  33.431  55.684  0.00  0.00    +0.000 C 
ATOM     10  C   UNL     1      52.688  34.088  60.096  0.00  0.00    +0.000 C 
ATOM     11  C   UNL     1      54.467  30.723  57.737  0.00  0.00    +0.000 C 
ATOM     12  C   UNL     1      50.252  32.926  58.008  0.00  0.00    +0.000 C 
ATOM     13  C   UNL     1      55.780  30.443  55.623  0.00  0.00    +0.000 C 
ATOM     14  C   UNL     1      55.633  32.486  54.237  0.00  0.00    +0.000 C 
ATOM     15  C   UNL     1      55.504  30.108  56.846  0.00  0.00    +0.000 C 
ATOM     16  C   UNL     1      53.837  30.727  53.946  0.00  0.00    +0.000 C 
ATOM     17  C   UNL     1      57.172  30.623  55.275  0.00  0.00    +0.000 C 
ATOM     18  C   UNL     1      57.151  32.555  54.007  0.00  0.00    +0.000 C 
ATOM     19  C   UNL     1      58.011  31.542  54.553  0.00  0.00    +0.000 C 
ENDROOT
BRANCH   5  20
ATOM     20  C   UNL     1      51.018  35.777  59.227  0.00  0.00    +0.000 C 
ATOM     21  C   UNL     1      51.343  37.061  58.511  0.00  0.00    +0.000 C 
BRANCH  20  22
ATOM     22  C   UNL     1      50.021  35.869  60.237  0.00  0.00    +0.000 C 
ATOM     23  C   UNL     1      48.943  35.965  61.327  0.00  0.00    +0.000 C 
BRANCH  23  24
ATOM     24  C   UNL     1      47.930  36.045  62.330  0.00  0.00    +0.000 C 
ATOM     25  C   UNL     1      46.972  34.976  62.516  0.00  0.00    +0.000 C 
ATOM     26  C   UNL     1      45.855  35.027  63.535  0.00  0.00    +0.000 C 
ATOM     27  C   UNL     1      47.006  33.698  61.703  0.00  0.00    +0.000 C 
BRANCH  24  28
ATOM     28  C   UNL     1      47.859  37.195  63.161  0.00  0.00    +0.000 C 
ATOM     29  C   UNL     1      47.758  38.396  64.109  0.00  0.00    +0.000 C 
ENDBRANCH  24  28
ENDBRANCH  23  24
ENDBRANCH  20  22
ENDBRANCH   5  20
BRANCH  19  30
ATOM     30  O   UNL     1      59.067  31.027  53.806  0.00  0.00    +0.000 OA
BRANCH  30  32
ATOM     31  O   UNL     1      60.302  29.477  55.022  0.00  0.00    +0.000 OA
ATOM     32  C   UNL     1      60.090  30.606  54.605  0.00  0.00    +0.000 C 
BRANCH  32  33
ATOM     33  C   UNL     1      60.993  31.685  54.919  0.00  0.00    +0.000 C 
ATOM     34  C   UNL     1      61.735  32.589  55.195  0.00  0.00    +0.000 C 
BRANCH  34  35
ATOM     35  C   UNL     1      62.602  33.669  55.535  0.00  0.00    +0.000 A 
ATOM     36  C   UNL     1      62.075  34.825  56.108  0.00  0.00    +0.000 A 
ATOM     37  C   UNL     1      63.969  33.571  55.290  0.00  0.00    +0.000 A 
ATOM     38  C   UNL     1      62.907  35.897  56.444  0.00  0.00    +0.000 A 
ATOM     39  C   UNL     1      64.810  34.631  55.619  0.00  0.00    +0.000 A 
ATOM     40  C   UNL     1      64.277  35.785  56.191  0.00  0.00    +0.000 A 
BRANCH  38  41
ATOM     41  O   UNL     1      62.469  37.070  57.008  0.00  0.00    +0.000 OA
ATOM     42  C   UNL     1      61.248  37.558  56.518  0.00  0.00    +0.000 C 
ENDBRANCH  38  41
BRANCH  40  43
ATOM     43  O   UNL     1      65.108  36.823  56.510  0.00  0.00    +0.000 OA
ATOM     44  H   UNL     1      64.574  37.635  56.602  0.00  0.00    +0.000 HD
ENDBRANCH  40  43
ENDBRANCH  34  35
ENDBRANCH  32  33
ENDBRANCH  30  32
ENDBRANCH  19  30
TORSDOF 10
ENDMDL
MODEL 3
REMARK VINA RESULT:      -7.5      8.451     14.478
REMARK  Name = 91746246_sitosterol.pdbqt.pdb
REMARK  10 active torsions:
REMARK  status: ('A' for Active; 'I' for Inactive)
REMARK    1  A    between atoms: C_5  and  C_20
REMARK    2  A    between atoms: C_19  and  O_30
REMARK    3  A    between atoms: C_20  and  C_22
REMARK    4  A    between atoms: C_23  and  C_24
REMARK    5  A    between atoms: C_24  and  C_28
REMARK    6  A    between atoms: O_30  and  C_32
REMARK    7  A    between atoms: C_32  and  C_33
REMARK    8  A    between atoms: C_34  and  C_35
REMARK    9  A    between atoms: C_38  and  O_41
REMARK   10  A    between atoms: C_40  and  O_43
REMARK                            x       y       z     vdW  Elec       q    Type
REMARK                         _______ _______ _______ _____ _____    ______ ____
ROOT
ATOM      1  C   UNL     1      61.549  57.552  59.716  0.00  0.00    +0.000 C 
ATOM      2  C   UNL     1      62.263  58.919  59.218  0.00  0.00    +0.000 C 
ATOM      3  C   UNL     1      61.523  60.190  59.080  0.00  0.00    +0.000 C 
ATOM      4  C   UNL     1      60.136  60.469  59.602  0.00  0.00    +0.000 C 
ATOM      5  C   UNL     1      62.564  56.971  60.692  0.00  0.00    +0.000 C 
ATOM      6  C   UNL     1      60.293  57.992  60.320  0.00  0.00    +0.000 C 
ATOM      7  C   UNL     1      59.386  61.808  59.380  0.00  0.00    +0.000 C 
ATOM      8  C   UNL     1      63.597  58.916  59.735  0.00  0.00    +0.000 C 
ATOM      9  C   UNL     1      59.599  59.331  60.261  0.00  0.00    +0.000 C 
ATOM     10  C   UNL     1      63.766  57.738  60.657  0.00  0.00    +0.000 C 
ATOM     11  C   UNL     1      62.150  61.347  58.553  0.00  0.00    +0.000 C 
ATOM     12  C   UNL     1      61.387  56.645  58.468  0.00  0.00    +0.000 C 
ATOM     13  C   UNL     1      60.364  63.060  58.935  0.00  0.00    +0.000 C 
ATOM     14  C   UNL     1      58.770  62.278  60.657  0.00  0.00    +0.000 C 
ATOM     15  C   UNL     1      61.541  62.716  58.510  0.00  0.00    +0.000 C 
ATOM     16  C   UNL     1      58.329  61.624  58.252  0.00  0.00    +0.000 C 
ATOM     17  C   UNL     1      60.269  64.244  59.760  0.00  0.00    +0.000 C 
ATOM     18  C   UNL     1      58.825  63.597  61.444  0.00  0.00    +0.000 C 
ATOM     19  C   UNL     1      59.627  64.690  60.968  0.00  0.00    +0.000 C 
ENDROOT
BRANCH   5  20
ATOM     20  C   UNL     1      62.424  55.705  61.338  0.00  0.00    +0.000 C 
ATOM     21  C   UNL     1      62.090  55.581  62.801  0.00  0.00    +0.000 C 
BRANCH  20  22
ATOM     22  C   UNL     1      62.837  54.505  60.696  0.00  0.00    +0.000 C 
ATOM     23  C   UNL     1      63.283  53.207  60.004  0.00  0.00    +0.000 C 
BRANCH  23  24
ATOM     24  C   UNL     1      63.710  52.000  59.374  0.00  0.00    +0.000 C 
ATOM     25  C   UNL     1      62.757  50.988  58.968  0.00  0.00    +0.000 C 
ATOM     26  C   UNL     1      63.158  49.674  58.335  0.00  0.00    +0.000 C 
ATOM     27  C   UNL     1      61.261  51.158  59.140  0.00  0.00    +0.000 C 
BRANCH  24  28
ATOM     28  C   UNL     1      65.094  51.785  59.141  0.00  0.00    +0.000 C 
ATOM     29  C   UNL     1      66.573  51.492  58.859  0.00  0.00    +0.000 C 
ENDBRANCH  24  28
ENDBRANCH  23  24
ENDBRANCH  20  22
ENDBRANCH   5  20
BRANCH  19  30
ATOM     30  O   UNL     1      59.152  65.997  61.021  0.00  0.00    +0.000 OA
BRANCH  30  32
ATOM     31  O   UNL     1      60.589  67.791  61.370  0.00  0.00    +0.000 OA
ATOM     32  C   UNL     1      59.978  66.803  61.749  0.00  0.00    +0.000 C 
BRANCH  32  33
ATOM     33  C   UNL     1      60.053  66.379  63.125  0.00  0.00    +0.000 C 
ATOM     34  C   UNL     1      60.109  66.043  64.277  0.00  0.00    +0.000 C 
BRANCH  34  35
ATOM     35  C   UNL     1      60.172  65.662  65.650  0.00  0.00    +0.000 A 
ATOM     36  C   UNL     1      60.748  66.524  66.581  0.00  0.00    +0.000 A 
ATOM     37  C   UNL     1      59.665  64.430  66.056  0.00  0.00    +0.000 A 
ATOM     38  C   UNL     1      60.824  66.166  67.930  0.00  0.00    +0.000 A 
ATOM     39  C   UNL     1      59.734  64.061  67.398  0.00  0.00    +0.000 A 
ATOM     40  C   UNL     1      60.313  64.927  68.324  0.00  0.00    +0.000 A 
BRANCH  38  41
ATOM     41  O   UNL     1      61.377  66.955  68.910  0.00  0.00    +0.000 OA
ATOM     42  C   UNL     1      61.510  68.315  68.589  0.00  0.00    +0.000 C 
ENDBRANCH  38  41
BRANCH  40  43
ATOM     43  O   UNL     1      60.379  64.558  69.640  0.00  0.00    +0.000 OA
ATOM     44  H   UNL     1      61.140  63.958  69.758  0.00  0.00    +0.000 HD
ENDBRANCH  40  43
ENDBRANCH  34  35
ENDBRANCH  32  33
ENDBRANCH  30  32
ENDBRANCH  19  30
TORSDOF 10
ENDMDL
MODEL 4
REMARK VINA RESULT:      -7.5     15.285     18.669
REMARK  Name = 91746246_sitosterol.pdbqt.pdb
REMARK  10 active torsions:
REMARK  status: ('A' for Active; 'I' for Inactive)
REMARK    1  A    between atoms: C_5  and  C_20
REMARK    2  A    between atoms: C_19  and  O_30
REMARK    3  A    between atoms: C_20  and  C_22
REMARK    4  A    between atoms: C_23  and  C_24
REMARK    5  A    between atoms: C_24  and  C_28
REMARK    6  A    between atoms: O_30  and  C_32
REMARK    7  A    between atoms: C_32  and  C_33
REMARK    8  A    between atoms: C_34  and  C_35
REMARK    9  A    between atoms: C_38  and  O_41
REMARK   10  A    between atoms: C_40  and  O_43
REMARK                            x       y       z     vdW  Elec       q    Type
REMARK                         _______ _______ _______ _____ _____    ______ ____
ROOT
ATOM      1  C   UNL     1      75.348  54.523  74.221  0.00  0.00    +0.000 C 
ATOM      2  C   UNL     1      74.741  55.576  73.148  0.00  0.00    +0.000 C 
ATOM      3  C   UNL     1      74.711  55.296  71.699  0.00  0.00    +0.000 C 
ATOM      4  C   UNL     1      74.977  53.961  71.048  0.00  0.00    +0.000 C 
ATOM      5  C   UNL     1      74.332  54.562  75.355  0.00  0.00    +0.000 C 
ATOM      6  C   UNL     1      75.416  53.256  73.495  0.00  0.00    +0.000 C 
ATOM      7  C   UNL     1      74.984  53.738  69.514  0.00  0.00    +0.000 C 
ATOM      8  C   UNL     1      73.638  56.234  73.777  0.00  0.00    +0.000 C 
ATOM      9  C   UNL     1      75.275  52.969  72.020  0.00  0.00    +0.000 C 
ATOM     10  C   UNL     1      73.375  55.592  75.112  0.00  0.00    +0.000 C 
ATOM     11  C   UNL     1      74.260  56.272  70.775  0.00  0.00    +0.000 C 
ATOM     12  C   UNL     1      76.722  55.084  74.677  0.00  0.00    +0.000 C 
ATOM     13  C   UNL     1      74.242  54.937  68.657  0.00  0.00    +0.000 C 
ATOM     14  C   UNL     1      74.202  52.516  69.161  0.00  0.00    +0.000 C 
ATOM     15  C   UNL     1      74.048  56.043  69.309  0.00  0.00    +0.000 C 
ATOM     16  C   UNL     1      76.456  53.657  69.013  0.00  0.00    +0.000 C 
ATOM     17  C   UNL     1      73.199  54.500  67.756  0.00  0.00    +0.000 C 
ATOM     18  C   UNL     1      73.047  52.234  68.186  0.00  0.00    +0.000 C 
ATOM     19  C   UNL     1      72.491  53.299  67.398  0.00  0.00    +0.000 C 
ENDROOT
BRANCH   5  20
ATOM     20  C   UNL     1      74.475  53.856  76.587  0.00  0.00    +0.000 C 
ATOM     21  C   UNL     1      75.259  52.575  76.694  0.00  0.00    +0.000 C 
BRANCH  20  22
ATOM     22  C   UNL     1      73.681  54.189  77.719  0.00  0.00    +0.000 C 
ATOM     23  C   UNL     1      72.826  54.549  78.944  0.00  0.00    +0.000 C 
BRANCH  23  24
ATOM     24  C   UNL     1      72.037  54.870  80.090  0.00  0.00    +0.000 C 
ATOM     25  C   UNL     1      71.096  53.919  80.642  0.00  0.00    +0.000 C 
ATOM     26  C   UNL     1      70.207  54.221  81.829  0.00  0.00    +0.000 C 
ATOM     27  C   UNL     1      70.917  52.524  80.079  0.00  0.00    +0.000 C 
BRANCH  24  28
ATOM     28  C   UNL     1      72.178  56.145  80.700  0.00  0.00    +0.000 C 
ATOM     29  C   UNL     1      72.393  57.502  81.380  0.00  0.00    +0.000 C 
ENDBRANCH  24  28
ENDBRANCH  23  24
ENDBRANCH  20  22
ENDBRANCH   5  20
BRANCH  19  30
ATOM     30  O   UNL     1      72.163  53.097  66.061  0.00  0.00    +0.000 OA
BRANCH  30  32
ATOM     31  O   UNL     1      69.955  52.438  65.747  0.00  0.00    +0.000 OA
ATOM     32  C   UNL     1      70.830  53.286  65.836  0.00  0.00    +0.000 C 
BRANCH  32  33
ATOM     33  C   UNL     1      70.504  54.688  65.736  0.00  0.00    +0.000 C 
ATOM     34  C   UNL     1      70.225  55.855  65.669  0.00  0.00    +0.000 C 
BRANCH  34  35
ATOM     35  C   UNL     1      69.886  57.238  65.608  0.00  0.00    +0.000 A 
ATOM     36  C   UNL     1      69.449  57.790  64.405  0.00  0.00    +0.000 A 
ATOM     37  C   UNL     1      69.999  58.036  66.743  0.00  0.00    +0.000 A 
ATOM     38  C   UNL     1      69.116  59.145  64.323  0.00  0.00    +0.000 A 
ATOM     39  C   UNL     1      69.671  59.388  66.676  0.00  0.00    +0.000 A 
ATOM     40  C   UNL     1      69.235  59.934  65.470  0.00  0.00    +0.000 A 
BRANCH  38  41
ATOM     41  O   UNL     1      68.680  59.768  63.179  0.00  0.00    +0.000 OA
ATOM     42  C   UNL     1      69.636  59.899  62.159  0.00  0.00    +0.000 C 
ENDBRANCH  38  41
BRANCH  40  43
ATOM     43  O   UNL     1      68.917  61.264  65.409  0.00  0.00    +0.000 OA
ATOM     44  H   UNL     1      67.946  61.351  65.359  0.00  0.00    +0.000 HD
ENDBRANCH  40  43
ENDBRANCH  34  35
ENDBRANCH  32  33
ENDBRANCH  30  32
ENDBRANCH  19  30
TORSDOF 10
ENDMDL
MODEL 5
REMARK VINA RESULT:      -7.4     21.613     26.678
REMARK  Name = 91746246_sitosterol.pdbqt.pdb
REMARK  10 active torsions:
REMARK  status: ('A' for Active; 'I' for Inactive)
REMARK    1  A    between atoms: C_5  and  C_20
REMARK    2  A    between atoms: C_19  and  O_30
REMARK    3  A    between atoms: C_20  and  C_22
REMARK    4  A    between atoms: C_23  and  C_24
REMARK    5  A    between atoms: C_24  and  C_28
REMARK    6  A    between atoms: O_30  and  C_32
REMARK    7  A    between atoms: C_32  and  C_33
REMARK    8  A    between atoms: C_34  and  C_35
REMARK    9  A    between atoms: C_38  and  O_41
REMARK   10  A    between atoms: C_40  and  O_43
REMARK                            x       y       z     vdW  Elec       q    Type
REMARK                         _______ _______ _______ _____ _____    ______ ____
ROOT
ATOM      1  C   UNL     1      64.463  49.630  56.207  0.00  0.00    +0.000 C 
ATOM      2  C   UNL     1      63.086  49.374  55.392  0.00  0.00    +0.000 C 
ATOM      3  C   UNL     1      62.912  48.228  54.476  0.00  0.00    +0.000 C 
ATOM      4  C   UNL     1      63.831  47.038  54.363  0.00  0.00    +0.000 C 
ATOM      5  C   UNL     1      63.973  50.009  57.599  0.00  0.00    +0.000 C 
ATOM      6  C   UNL     1      65.178  48.357  56.130  0.00  0.00    +0.000 C 
ATOM      7  C   UNL     1      63.628  45.887  53.343  0.00  0.00    +0.000 C 
ATOM      8  C   UNL     1      62.008  49.790  56.236  0.00  0.00    +0.000 C 
ATOM      9  C   UNL     1      64.924  47.147  55.264  0.00  0.00    +0.000 C 
ATOM     10  C   UNL     1      62.554  50.150  57.592  0.00  0.00    +0.000 C 
ATOM     11  C   UNL     1      61.732  48.081  53.706  0.00  0.00    +0.000 C 
ATOM     12  C   UNL     1      65.182  50.821  55.520  0.00  0.00    +0.000 C 
ATOM     13  C   UNL     1      62.107  45.816  52.706  0.00  0.00    +0.000 C 
ATOM     14  C   UNL     1      63.792  44.563  54.012  0.00  0.00    +0.000 C 
ATOM     15  C   UNL     1      61.391  46.887  52.865  0.00  0.00    +0.000 C 
ATOM     16  C   UNL     1      64.618  46.071  52.156  0.00  0.00    +0.000 C 
ATOM     17  C   UNL     1      61.441  44.540  52.834  0.00  0.00    +0.000 C 
ATOM     18  C   UNL     1      62.925  43.295  54.094  0.00  0.00    +0.000 C 
ATOM     19  C   UNL     1      61.643  43.254  53.449  0.00  0.00    +0.000 C 
ENDROOT
BRANCH   5  20
ATOM     20  C   UNL     1      64.828  50.416  58.668  0.00  0.00    +0.000 C 
ATOM     21  C   UNL     1      65.618  49.431  59.486  0.00  0.00    +0.000 C 
BRANCH  20  22
ATOM     22  C   UNL     1      64.784  51.745  59.175  0.00  0.00    +0.000 C 
ATOM     23  C   UNL     1      64.738  53.179  59.726  0.00  0.00    +0.000 C 
BRANCH  23  24
ATOM     24  C   UNL     1      64.687  54.505  60.252  0.00  0.00    +0.000 C 
ATOM     25  C   UNL     1      63.434  55.101  60.664  0.00  0.00    +0.000 C 
ATOM     26  C   UNL     1      63.318  56.515  61.189  0.00  0.00    +0.000 C 
ATOM     27  C   UNL     1      62.117  54.355  60.609  0.00  0.00    +0.000 C 
BRANCH  24  28
ATOM     28  C   UNL     1      65.888  55.255  60.373  0.00  0.00    +0.000 C 
ATOM     29  C   UNL     1      67.145  56.118  60.527  0.00  0.00    +0.000 C 
ENDBRANCH  24  28
ENDBRANCH  23  24
ENDBRANCH  20  22
ENDBRANCH   5  20
BRANCH  19  30
ATOM     30  O   UNL     1      61.231  42.119  52.758  0.00  0.00    +0.000 OA
BRANCH  30  32
ATOM     31  O   UNL     1      63.075  41.570  51.451  0.00  0.00    +0.000 OA
ATOM     32  C   UNL     1      62.292  41.356  52.365  0.00  0.00    +0.000 C 
BRANCH  32  33
ATOM     33  C   UNL     1      62.449  40.195  53.206  0.00  0.00    +0.000 C 
ATOM     34  C   UNL     1      62.572  39.217  53.893  0.00  0.00    +0.000 C 
BRANCH  34  35
ATOM     35  C   UNL     1      62.710  38.045  54.695  0.00  0.00    +0.000 A 
ATOM     36  C   UNL     1      63.817  37.216  54.522  0.00  0.00    +0.000 A 
ATOM     37  C   UNL     1      61.739  37.728  55.641  0.00  0.00    +0.000 A 
ATOM     38  C   UNL     1      63.968  36.061  55.294  0.00  0.00    +0.000 A 
ATOM     39  C   UNL     1      61.876  36.579  56.416  0.00  0.00    +0.000 A 
ATOM     40  C   UNL     1      62.986  35.753  56.239  0.00  0.00    +0.000 A 
BRANCH  38  41
ATOM     41  O   UNL     1      65.026  35.191  55.186  0.00  0.00    +0.000 OA
ATOM     42  C   UNL     1      66.178  35.546  55.906  0.00  0.00    +0.000 C 
ENDBRANCH  38  41
BRANCH  40  43
ATOM     43  O   UNL     1      63.114  34.626  57.002  0.00  0.00    +0.000 OA
ATOM     44  H   UNL     1      62.224  34.309  57.244  0.00  0.00    +0.000 HD
ENDBRANCH  40  43
ENDBRANCH  34  35
ENDBRANCH  32  33
ENDBRANCH  30  32
ENDBRANCH  19  30
TORSDOF 10
ENDMDL
MODEL 6
REMARK VINA RESULT:      -7.2      1.935      3.746
REMARK  Name = 91746246_sitosterol.pdbqt.pdb
REMARK  10 active torsions:
REMARK  status: ('A' for Active; 'I' for Inactive)
REMARK    1  A    between atoms: C_5  and  C_20
REMARK    2  A    between atoms: C_19  and  O_30
REMARK    3  A    between atoms: C_20  and  C_22
REMARK    4  A    between atoms: C_23  and  C_24
REMARK    5  A    between atoms: C_24  and  C_28
REMARK    6  A    between atoms: O_30  and  C_32
REMARK    7  A    between atoms: C_32  and  C_33
REMARK    8  A    between atoms: C_34  and  C_35
REMARK    9  A    between atoms: C_38  and  O_41
REMARK   10  A    between atoms: C_40  and  O_43
REMARK                            x       y       z     vdW  Elec       q    Type
REMARK                         _______ _______ _______ _____ _____    ______ ____
ROOT
ATOM      1  C   UNL     1      66.119  69.490  66.902  0.00  0.00    +0.000 C 
ATOM      2  C   UNL     1      64.986  70.473  67.515  0.00  0.00    +0.000 C 
ATOM      3  C   UNL     1      63.613  70.012  67.803  0.00  0.00    +0.000 C 
ATOM      4  C   UNL     1      63.146  68.578  67.824  0.00  0.00    +0.000 C 
ATOM      5  C   UNL     1      67.356  69.838  67.720  0.00  0.00    +0.000 C 
ATOM      6  C   UNL     1      65.593  68.142  67.119  0.00  0.00    +0.000 C 
ATOM      7  C   UNL     1      61.676  68.155  68.079  0.00  0.00    +0.000 C 
ATOM      8  C   UNL     1      65.644  71.375  68.409  0.00  0.00    +0.000 C 
ATOM      9  C   UNL     1      64.211  67.689  67.520  0.00  0.00    +0.000 C 
ATOM     10  C   UNL     1      67.085  70.964  68.552  0.00  0.00    +0.000 C 
ATOM     11  C   UNL     1      62.617  70.916  68.250  0.00  0.00    +0.000 C 
ATOM     12  C   UNL     1      66.301  69.882  65.412  0.00  0.00    +0.000 C 
ATOM     13  C   UNL     1      60.749  69.332  68.772  0.00  0.00    +0.000 C 
ATOM     14  C   UNL     1      61.620  67.036  69.066  0.00  0.00    +0.000 C 
ATOM     15  C   UNL     1      61.244  70.531  68.711  0.00  0.00    +0.000 C 
ATOM     16  C   UNL     1      61.006  67.778  66.725  0.00  0.00    +0.000 C 
ATOM     17  C   UNL     1      60.069  68.949  69.989  0.00  0.00    +0.000 C 
ATOM     18  C   UNL     1      60.859  66.813  70.383  0.00  0.00    +0.000 C 
ATOM     19  C   UNL     1      59.996  67.838  70.901  0.00  0.00    +0.000 C 
ENDROOT
BRANCH   5  20
ATOM     20  C   UNL     1      68.653  69.287  67.489  0.00  0.00    +0.000 C 
ATOM     21  C   UNL     1      69.910  69.958  67.975  0.00  0.00    +0.000 C 
BRANCH  20  22
ATOM     22  C   UNL     1      68.840  68.212  66.576  0.00  0.00    +0.000 C 
ATOM     23  C   UNL     1      69.040  67.051  65.591  0.00  0.00    +0.000 C 
BRANCH  23  24
ATOM     24  C   UNL     1      69.219  65.960  64.687  0.00  0.00    +0.000 C 
ATOM     25  C   UNL     1      68.261  64.878  64.620  0.00  0.00    +0.000 C 
ATOM     26  C   UNL     1      68.422  63.679  63.711  0.00  0.00    +0.000 C 
ATOM     27  C   UNL     1      66.999  64.849  65.457  0.00  0.00    +0.000 C 
BRANCH  24  28
ATOM     28  C   UNL     1      70.358  65.936  63.838  0.00  0.00    +0.000 C 
ATOM     29  C   UNL     1      71.583  65.979  62.918  0.00  0.00    +0.000 C 
ENDBRANCH  24  28
ENDBRANCH  23  24
ENDBRANCH  20  22
ENDBRANCH   5  20
BRANCH  19  30
ATOM     30  O   UNL     1      58.759  67.515  71.452  0.00  0.00    +0.000 OA
BRANCH  30  32
ATOM     31  O   UNL     1      56.909  68.609  70.565  0.00  0.00    +0.000 OA
ATOM     32  C   UNL     1      57.744  67.717  70.563  0.00  0.00    +0.000 C 
BRANCH  32  33
ATOM     33  C   UNL     1      57.756  66.728  69.514  0.00  0.00    +0.000 C 
ATOM     34  C   UNL     1      57.782  65.897  68.646  0.00  0.00    +0.000 C 
BRANCH  34  35
ATOM     35  C   UNL     1      57.831  64.906  67.622  0.00  0.00    +0.000 A 
ATOM     36  C   UNL     1      56.692  64.157  67.329  0.00  0.00    +0.000 A 
ATOM     37  C   UNL     1      59.013  64.683  66.921  0.00  0.00    +0.000 A 
ATOM     38  C   UNL     1      56.721  63.177  66.333  0.00  0.00    +0.000 A 
ATOM     39  C   UNL     1      59.057  63.710  65.926  0.00  0.00    +0.000 A 
ATOM     40  C   UNL     1      57.915  62.963  65.639  0.00  0.00    +0.000 A 
BRANCH  38  41
ATOM     41  O   UNL     1      55.647  62.395  65.985  0.00  0.00    +0.000 OA
ATOM     42  C   UNL     1      54.392  62.873  66.395  0.00  0.00    +0.000 C 
ENDBRANCH  38  41
BRANCH  40  43
ATOM     43  O   UNL     1      57.964  62.007  64.662  0.00  0.00    +0.000 OA
ATOM     44  H   UNL     1      58.889  61.714  64.558  0.00  0.00    +0.000 HD
ENDBRANCH  40  43
ENDBRANCH  34  35
ENDBRANCH  32  33
ENDBRANCH  30  32
ENDBRANCH  19  30
TORSDOF 10
ENDMDL
MODEL 7
REMARK VINA RESULT:      -7.2     20.479     24.061
REMARK  Name = 91746246_sitosterol.pdbqt.pdb
REMARK  10 active torsions:
REMARK  status: ('A' for Active; 'I' for Inactive)
REMARK    1  A    between atoms: C_5  and  C_20
REMARK    2  A    between atoms: C_19  and  O_30
REMARK    3  A    between atoms: C_20  and  C_22
REMARK    4  A    between atoms: C_23  and  C_24
REMARK    5  A    between atoms: C_24  and  C_28
REMARK    6  A    between atoms: O_30  and  C_32
REMARK    7  A    between atoms: C_32  and  C_33
REMARK    8  A    between atoms: C_34  and  C_35
REMARK    9  A    between atoms: C_38  and  O_41
REMARK   10  A    between atoms: C_40  and  O_43
REMARK                            x       y       z     vdW  Elec       q    Type
REMARK                         _______ _______ _______ _____ _____    ______ ____
ROOT
ATOM      1  C   UNL     1      61.608  51.136  56.841  0.00  0.00    +0.000 C 
ATOM      2  C   UNL     1      60.576  51.439  58.053  0.00  0.00    +0.000 C 
ATOM      3  C   UNL     1      59.111  51.350  57.883  0.00  0.00    +0.000 C 
ATOM      4  C   UNL     1      58.392  50.741  56.706  0.00  0.00    +0.000 C 
ATOM      5  C   UNL     1      62.690  50.299  57.513  0.00  0.00    +0.000 C 
ATOM      6  C   UNL     1      60.807  50.425  55.845  0.00  0.00    +0.000 C 
ATOM      7  C   UNL     1      56.848  50.724  56.556  0.00  0.00    +0.000 C 
ATOM      8  C   UNL     1      61.189  50.978  59.260  0.00  0.00    +0.000 C 
ATOM      9  C   UNL     1      59.312  50.250  55.742  0.00  0.00    +0.000 C 
ATOM     10  C   UNL     1      62.466  50.258  58.920  0.00  0.00    +0.000 C 
ATOM     11  C   UNL     1      58.231  51.712  58.933  0.00  0.00    +0.000 C 
ATOM     12  C   UNL     1      62.167  52.504  56.369  0.00  0.00    +0.000 C 
ATOM     13  C   UNL     1      56.033  51.003  57.964  0.00  0.00    +0.000 C 
ATOM     14  C   UNL     1      56.380  49.369  56.140  0.00  0.00    +0.000 C 
ATOM     15  C   UNL     1      56.744  51.519  58.919  0.00  0.00    +0.000 C 
ATOM     16  C   UNL     1      56.417  51.829  55.547  0.00  0.00    +0.000 C 
ATOM     17  C   UNL     1      55.055  50.001  58.322  0.00  0.00    +0.000 C 
ATOM     18  C   UNL     1      55.333  48.388  56.691  0.00  0.00    +0.000 C 
ATOM     19  C   UNL     1      54.587  48.716  57.874  0.00  0.00    +0.000 C 
ENDROOT
BRANCH   5  20
ATOM     20  C   UNL     1      63.880  49.854  56.862  0.00  0.00    +0.000 C 
ATOM     21  C   UNL     1      65.076  50.749  56.672  0.00  0.00    +0.000 C 
BRANCH  20  22
ATOM     22  C   UNL     1      63.907  48.628  56.141  0.00  0.00    +0.000 C 
ATOM     23  C   UNL     1      63.933  47.303  55.363  0.00  0.00    +0.000 C 
BRANCH  23  24
ATOM     24  C   UNL     1      63.948  46.065  54.653  0.00  0.00    +0.000 C 
ATOM     25  C   UNL     1      65.171  45.307  54.494  0.00  0.00    +0.000 C 
ATOM     26  C   UNL     1      65.252  44.012  53.718  0.00  0.00    +0.000 C 
ATOM     27  C   UNL     1      66.490  45.746  55.099  0.00  0.00    +0.000 C 
BRANCH  24  28
ATOM     28  C   UNL     1      62.742  45.566  54.092  0.00  0.00    +0.000 C 
ATOM     29  C   UNL     1      61.417  45.017  53.551  0.00  0.00    +0.000 C 
ENDBRANCH  24  28
ENDBRANCH  23  24
ENDBRANCH  20  22
ENDBRANCH   5  20
BRANCH  19  30
ATOM     30  O   UNL     1      53.225  48.442  57.955  0.00  0.00    +0.000 OA
BRANCH  30  32
ATOM     31  O   UNL     1      52.910  50.101  56.356  0.00  0.00    +0.000 OA
ATOM     32  C   UNL     1      52.508  49.197  57.073  0.00  0.00    +0.000 C 
BRANCH  32  33
ATOM     33  C   UNL     1      51.126  48.786  57.028  0.00  0.00    +0.000 C 
ATOM     34  C   UNL     1      49.979  48.430  56.978  0.00  0.00    +0.000 C 
BRANCH  34  35
ATOM     35  C   UNL     1      48.623  47.995  56.905  0.00  0.00    +0.000 A 
ATOM     36  C   UNL     1      48.340  46.640  56.738  0.00  0.00    +0.000 A 
ATOM     37  C   UNL     1      47.587  48.920  56.994  0.00  0.00    +0.000 A 
ATOM     38  C   UNL     1      47.018  46.193  56.659  0.00  0.00    +0.000 A 
ATOM     39  C   UNL     1      46.265  48.489  56.917  0.00  0.00    +0.000 A 
ATOM     40  C   UNL     1      45.988  47.133  56.749  0.00  0.00    +0.000 A 
BRANCH  38  41
ATOM     41  O   UNL     1      46.653  44.880  56.493  0.00  0.00    +0.000 OA
ATOM     42  C   UNL     1      46.704  44.399  55.175  0.00  0.00    +0.000 C 
ENDBRANCH  38  41
BRANCH  40  43
ATOM     43  O   UNL     1      44.687  46.716  56.672  0.00  0.00    +0.000 OA
ATOM     44  H   UNL     1      44.122  47.369  57.126  0.00  0.00    +0.000 HD
ENDBRANCH  40  43
ENDBRANCH  34  35
ENDBRANCH  32  33
ENDBRANCH  30  32
ENDBRANCH  19  30
TORSDOF 10
ENDMDL
MODEL 8
REMARK VINA RESULT:      -7.2     24.899     29.261
REMARK  Name = 91746246_sitosterol.pdbqt.pdb
REMARK  10 active torsions:
REMARK  status: ('A' for Active; 'I' for Inactive)
REMARK    1  A    between atoms: C_5  and  C_20
REMARK    2  A    between atoms: C_19  and  O_30
REMARK    3  A    between atoms: C_20  and  C_22
REMARK    4  A    between atoms: C_23  and  C_24
REMARK    5  A    between atoms: C_24  and  C_28
REMARK    6  A    between atoms: O_30  and  C_32
REMARK    7  A    between atoms: C_32  and  C_33
REMARK    8  A    between atoms: C_34  and  C_35
REMARK    9  A    between atoms: C_38  and  O_41
REMARK   10  A    between atoms: C_40  and  O_43
REMARK                            x       y       z     vdW  Elec       q    Type
REMARK                         _______ _______ _______ _____ _____    ______ ____
ROOT
ATOM      1  C   UNL     1      67.723  46.578  54.813  0.00  0.00    +0.000 C 
ATOM      2  C   UNL     1      66.115  46.743  54.926  0.00  0.00    +0.000 C 
ATOM      3  C   UNL     1      65.178  45.739  54.382  0.00  0.00    +0.000 C 
ATOM      4  C   UNL     1      65.543  44.355  53.903  0.00  0.00    +0.000 C 
ATOM      5  C   UNL     1      68.209  46.994  56.195  0.00  0.00    +0.000 C 
ATOM      6  C   UNL     1      67.926  45.168  54.485  0.00  0.00    +0.000 C 
ATOM      7  C   UNL     1      64.524  43.360  53.291  0.00  0.00    +0.000 C 
ATOM      8  C   UNL     1      65.839  47.381  56.176  0.00  0.00    +0.000 C 
ATOM      9  C   UNL     1      66.938  44.120  54.033  0.00  0.00    +0.000 C 
ATOM     10  C   UNL     1      67.118  47.506  56.959  0.00  0.00    +0.000 C 
ATOM     11  C   UNL     1      63.778  45.953  54.411  0.00  0.00    +0.000 C 
ATOM     12  C   UNL     1      68.205  47.573  53.724  0.00  0.00    +0.000 C 
ATOM     13  C   UNL     1      62.948  43.731  53.610  0.00  0.00    +0.000 C 
ATOM     14  C   UNL     1      64.695  42.004  53.890  0.00  0.00    +0.000 C 
ATOM     15  C   UNL     1      62.740  44.943  54.027  0.00  0.00    +0.000 C 
ATOM     16  C   UNL     1      64.689  43.343  51.742  0.00  0.00    +0.000 C 
ATOM     17  C   UNL     1      62.173  42.672  54.216  0.00  0.00    +0.000 C 
ATOM     18  C   UNL     1      63.738  41.009  54.567  0.00  0.00    +0.000 C 
ATOM     19  C   UNL     1      62.354  41.346  54.746  0.00  0.00    +0.000 C 
ENDROOT
BRANCH   5  20
ATOM     20  C   UNL     1      69.584  47.098  56.566  0.00  0.00    +0.000 C 
ATOM     21  C   UNL     1      70.666  47.403  55.565  0.00  0.00    +0.000 C 
BRANCH  20  22
ATOM     22  C   UNL     1      70.031  46.674  57.848  0.00  0.00    +0.000 C 
ATOM     23  C   UNL     1      70.515  46.213  59.232  0.00  0.00    +0.000 C 
BRANCH  23  24
ATOM     24  C   UNL     1      70.953  45.772  60.517  0.00  0.00    +0.000 C 
ATOM     25  C   UNL     1      71.782  46.611  61.355  0.00  0.00    +0.000 C 
ATOM     26  C   UNL     1      72.307  46.178  62.706  0.00  0.00    +0.000 C 
ATOM     27  C   UNL     1      72.199  48.011  60.954  0.00  0.00    +0.000 C 
BRANCH  24  28
ATOM     28  C   UNL     1      70.569  44.486  60.982  0.00  0.00    +0.000 C 
ATOM     29  C   UNL     1      70.218  43.091  61.514  0.00  0.00    +0.000 C 
ENDBRANCH  24  28
ENDBRANCH  23  24
ENDBRANCH  20  22
ENDBRANCH   5  20
BRANCH  19  30
ATOM     30  O   UNL     1      61.357  40.401  54.519  0.00  0.00    +0.000 OA
BRANCH  30  32
ATOM     31  O   UNL     1      60.367  39.723  56.511  0.00  0.00    +0.000 OA
ATOM     32  C   UNL     1      61.175  39.592  55.603  0.00  0.00    +0.000 C 
BRANCH  32  33
ATOM     33  C   UNL     1      62.065  38.458  55.572  0.00  0.00    +0.000 C 
ATOM     34  C   UNL     1      62.819  37.523  55.535  0.00  0.00    +0.000 C 
BRANCH  34  35
ATOM     35  C   UNL     1      63.724  36.423  55.478  0.00  0.00    +0.000 A 
ATOM     36  C   UNL     1      63.270  35.174  55.056  0.00  0.00    +0.000 A 
ATOM     37  C   UNL     1      65.055  36.594  55.850  0.00  0.00    +0.000 A 
ATOM     38  C   UNL     1      64.140  34.082  54.999  0.00  0.00    +0.000 A 
ATOM     39  C   UNL     1      65.933  35.514  55.798  0.00  0.00    +0.000 A 
ATOM     40  C   UNL     1      65.473  34.268  55.376  0.00  0.00    +0.000 A 
BRANCH  38  41
ATOM     41  O   UNL     1      63.774  32.821  54.597  0.00  0.00    +0.000 OA
ATOM     42  C   UNL     1      63.003  32.093  55.517  0.00  0.00    +0.000 C 
ENDBRANCH  38  41
BRANCH  40  43
ATOM     43  O   UNL     1      66.340  33.211  55.329  0.00  0.00    +0.000 OA
ATOM     44  H   UNL     1      65.913  32.437  55.743  0.00  0.00    +0.000 HD
ENDBRANCH  40  43
ENDBRANCH  34  35
ENDBRANCH  32  33
ENDBRANCH  30  32
ENDBRANCH  19  30
TORSDOF 10
ENDMDL
MODEL 9
REMARK VINA RESULT:      -7.1     17.844     23.252
REMARK  Name = 91746246_sitosterol.pdbqt.pdb
REMARK  10 active torsions:
REMARK  status: ('A' for Active; 'I' for Inactive)
REMARK    1  A    between atoms: C_5  and  C_20
REMARK    2  A    between atoms: C_19  and  O_30
REMARK    3  A    between atoms: C_20  and  C_22
REMARK    4  A    between atoms: C_23  and  C_24
REMARK    5  A    between atoms: C_24  and  C_28
REMARK    6  A    between atoms: O_30  and  C_32
REMARK    7  A    between atoms: C_32  and  C_33
REMARK    8  A    between atoms: C_34  and  C_35
REMARK    9  A    between atoms: C_38  and  O_41
REMARK   10  A    between atoms: C_40  and  O_43
REMARK                            x       y       z     vdW  Elec       q    Type
REMARK                         _______ _______ _______ _____ _____    ______ ____
ROOT
ATOM      1  C   UNL     1      63.361  52.263  58.521  0.00  0.00    +0.000 C 
ATOM      2  C   UNL     1      64.361  50.991  58.625  0.00  0.00    +0.000 C 
ATOM      3  C   UNL     1      65.770  51.128  59.046  0.00  0.00    +0.000 C 
ATOM      4  C   UNL     1      66.394  52.354  59.667  0.00  0.00    +0.000 C 
ATOM      5  C   UNL     1      62.073  51.738  59.142  0.00  0.00    +0.000 C 
ATOM      6  C   UNL     1      64.028  53.319  59.280  0.00  0.00    +0.000 C 
ATOM      7  C   UNL     1      67.895  52.459  60.041  0.00  0.00    +0.000 C 
ATOM      8  C   UNL     1      63.584  49.874  59.064  0.00  0.00    +0.000 C 
ATOM      9  C   UNL     1      65.443  53.400  59.801  0.00  0.00    +0.000 C 
ATOM     10  C   UNL     1      62.195  50.342  59.405  0.00  0.00    +0.000 C 
ATOM     11  C   UNL     1      66.647  50.015  59.038  0.00  0.00    +0.000 C 
ATOM     12  C   UNL     1      63.173  52.568  57.011  0.00  0.00    +0.000 C 
ATOM     13  C   UNL     1      68.667  51.004  60.139  0.00  0.00    +0.000 C 
ATOM     14  C   UNL     1      68.051  53.035  61.409  0.00  0.00    +0.000 C 
ATOM     15  C   UNL     1      68.043  50.010  59.584  0.00  0.00    +0.000 C 
ATOM     16  C   UNL     1      68.636  53.302  58.962  0.00  0.00    +0.000 C 
ATOM     17  C   UNL     1      69.355  50.751  61.385  0.00  0.00    +0.000 C 
ATOM     18  C   UNL     1      68.800  52.586  62.675  0.00  0.00    +0.000 C 
ATOM     19  C   UNL     1      69.530  51.349  62.682  0.00  0.00    +0.000 C 
ENDROOT
BRANCH   5  20
ATOM     20  C   UNL     1      60.852  52.475  59.203  0.00  0.00    +0.000 C 
ATOM     21  C   UNL     1      60.710  53.731  60.022  0.00  0.00    +0.000 C 
BRANCH  20  22
ATOM     22  C   UNL     1      59.640  51.929  58.697  0.00  0.00    +0.000 C 
ATOM     23  C   UNL     1      58.332  51.337  58.148  0.00  0.00    +0.000 C 
BRANCH  23  24
ATOM     24  C   UNL     1      57.120  50.797  57.623  0.00  0.00    +0.000 C 
ATOM     25  C   UNL     1      55.830  51.272  58.076  0.00  0.00    +0.000 C 
ATOM     26  C   UNL     1      54.516  50.706  57.584  0.00  0.00    +0.000 C 
ATOM     27  C   UNL     1      55.678  52.388  59.088  0.00  0.00    +0.000 C 
BRANCH  24  28
ATOM     28  C   UNL     1      57.179  49.774  56.639  0.00  0.00    +0.000 C 
ATOM     29  C   UNL     1      57.211  48.714  55.532  0.00  0.00    +0.000 C 
ENDBRANCH  24  28
ENDBRANCH  23  24
ENDBRANCH  20  22
ENDBRANCH   5  20
BRANCH  19  30
ATOM     30  O   UNL     1      70.781  51.264  63.287  0.00  0.00    +0.000 OA
BRANCH  30  32
ATOM     31  O   UNL     1      72.623  51.468  61.882  0.00  0.00    +0.000 OA
ATOM     32  C   UNL     1      71.732  50.822  62.413  0.00  0.00    +0.000 C 
BRANCH  32  33
ATOM     33  C   UNL     1      71.611  49.405  62.171  0.00  0.00    +0.000 C 
ATOM     34  C   UNL     1      71.527  48.225  61.962  0.00  0.00    +0.000 C 
BRANCH  34  35
ATOM     35  C   UNL     1      71.444  46.825  61.705  0.00  0.00    +0.000 A 
ATOM     36  C   UNL     1      71.743  45.917  62.719  0.00  0.00    +0.000 A 
ATOM     37  C   UNL     1      71.073  46.367  60.443  0.00  0.00    +0.000 A 
ATOM     38  C   UNL     1      71.674  44.541  62.486  0.00  0.00    +0.000 A 
ATOM     39  C   UNL     1      71.000  44.999  60.196  0.00  0.00    +0.000 A 
ATOM     40  C   UNL     1      71.301  44.095  61.215  0.00  0.00    +0.000 A 
BRANCH  38  41
ATOM     41  O   UNL     1      71.953  43.580  63.427  0.00  0.00    +0.000 OA
ATOM     42  C   UNL     1      70.993  43.428  64.440  0.00  0.00    +0.000 C 
ENDBRANCH  38  41
BRANCH  40  43
ATOM     43  O   UNL     1      71.229  42.752  60.965  0.00  0.00    +0.000 OA
ATOM     44  H   UNL     1      71.126  42.282  61.814  0.00  0.00    +0.000 HD
ENDBRANCH  40  43
ENDBRANCH  34  35
ENDBRANCH  32  33
ENDBRANCH  30  32
ENDBRANCH  19  30
TORSDOF 10
ENDMDL
