MODEL 1
REMARK VINA RESULT:      -3.9      0.000      0.000
REMARK  Name = 92041_2Ethoxy5fluorouracil.pdbqt.pdb
REMARK  2 active torsions:
REMARK  status: ('A' for Active; 'I' for Inactive)
REMARK    1  A    between atoms: C_5  and  O_10
REMARK    2  A    between atoms: O_10  and  C_11
REMARK                            x       y       z     vdW  Elec       q    Type
REMARK                         _______ _______ _______ _____ _____    ______ ____
ROOT
ATOM      1  F   UNL     1      65.632  35.381  53.638  0.00  0.00    +0.000 F 
ATOM      2  O   UNL     1      66.095  35.496  56.450  0.00  0.00    +0.000 OA
ATOM      3  N   UNL     1      64.210  36.796  56.643  0.00  0.00    +0.000 N 
ATOM      4  N   UNL     1      62.776  37.276  54.825  0.00  0.00    +0.000 NA
ATOM      5  C   UNL     1      63.108  37.430  56.076  0.00  0.00    +0.000 C 
ATOM      6  C   UNL     1      65.086  35.965  55.941  0.00  0.00    +0.000 C 
ATOM      7  C   UNL     1      64.680  35.731  54.519  0.00  0.00    +0.000 C 
ATOM      8  C   UNL     1      63.639  36.441  54.234  0.00  0.00    +0.000 C 
ATOM      9  H   UNL     1      64.446  36.981  57.607  0.00  0.00    +0.000 HD
ENDROOT
BRANCH   5  10
ATOM     10  O   UNL     1      62.442  38.207  56.962  0.00  0.00    +0.000 OA
BRANCH  10  11
ATOM     11  C   UNL     1      62.109  39.423  56.539  0.00  0.00    +0.000 C 
ATOM     12  C   UNL     1      61.709  40.838  56.111  0.00  0.00    +0.000 C 
ENDBRANCH  10  11
ENDBRANCH   5  10
TORSDOF 2
ENDMDL
MODEL 2
REMARK VINA RESULT:      -3.8      3.059      4.526
REMARK  Name = 92041_2Ethoxy5fluorouracil.pdbqt.pdb
REMARK  2 active torsions:
REMARK  status: ('A' for Active; 'I' for Inactive)
REMARK    1  A    between atoms: C_5  and  O_10
REMARK    2  A    between atoms: O_10  and  C_11
REMARK                            x       y       z     vdW  Elec       q    Type
REMARK                         _______ _______ _______ _____ _____    ______ ____
ROOT
ATOM      1  F   UNL     1      63.240  42.210  54.143  0.00  0.00    +0.000 F 
ATOM      2  O   UNL     1      64.032  39.588  53.350  0.00  0.00    +0.000 OA
ATOM      3  N   UNL     1      62.918  38.765  55.184  0.00  0.00    +0.000 N 
ATOM      4  N   UNL     1      61.624  40.119  56.628  0.00  0.00    +0.000 NA
ATOM      5  C   UNL     1      62.134  38.961  56.317  0.00  0.00    +0.000 C 
ATOM      6  C   UNL     1      63.268  39.777  54.287  0.00  0.00    +0.000 C 
ATOM      7  C   UNL     1      62.637  41.099  54.598  0.00  0.00    +0.000 C 
ATOM      8  C   UNL     1      61.973  41.023  55.703  0.00  0.00    +0.000 C 
ATOM      9  H   UNL     1      63.321  37.856  55.012  0.00  0.00    +0.000 HD
ENDROOT
BRANCH   5  10
ATOM     10  O   UNL     1      61.971  37.827  57.039  0.00  0.00    +0.000 OA
BRANCH  10  11
ATOM     11  C   UNL     1      62.342  36.698  56.445  0.00  0.00    +0.000 C 
ATOM     12  C   UNL     1      62.796  35.377  55.814  0.00  0.00    +0.000 C 
ENDBRANCH  10  11
ENDBRANCH   5  10
TORSDOF 2
ENDMDL
MODEL 3
REMARK VINA RESULT:      -3.7     18.485     19.524
REMARK  Name = 92041_2Ethoxy5fluorouracil.pdbqt.pdb
REMARK  2 active torsions:
REMARK  status: ('A' for Active; 'I' for Inactive)
REMARK    1  A    between atoms: C_5  and  O_10
REMARK    2  A    between atoms: O_10  and  C_11
REMARK                            x       y       z     vdW  Elec       q    Type
REMARK                         _______ _______ _______ _____ _____    ______ ____
ROOT
ATOM      1  F   UNL     1      63.576  57.010  62.245  0.00  0.00    +0.000 F 
ATOM      2  O   UNL     1      61.980  55.229  63.799  0.00  0.00    +0.000 OA
ATOM      3  N   UNL     1      60.519  55.096  62.030  0.00  0.00    +0.000 N 
ATOM      4  N   UNL     1      60.922  56.121  59.937  0.00  0.00    +0.000 NA
ATOM      5  C   UNL     1      60.149  55.437  60.732  0.00  0.00    +0.000 C 
ATOM      6  C   UNL     1      61.726  55.470  62.626  0.00  0.00    +0.000 C 
ATOM      7  C   UNL     1      62.649  56.203  61.703  0.00  0.00    +0.000 C 
ATOM      8  C   UNL     1      62.068  56.408  60.568  0.00  0.00    +0.000 C 
ATOM      9  H   UNL     1      59.866  54.598  62.617  0.00  0.00    +0.000 HD
ENDROOT
BRANCH   5  10
ATOM     10  O   UNL     1      58.916  54.982  60.407  0.00  0.00    +0.000 OA
BRANCH  10  11
ATOM     11  C   UNL     1      58.831  54.272  59.287  0.00  0.00    +0.000 C 
ATOM     12  C   UNL     1      58.761  53.501  57.965  0.00  0.00    +0.000 C 
ENDBRANCH  10  11
ENDBRANCH   5  10
TORSDOF 2
ENDMDL
MODEL 4
REMARK VINA RESULT:      -3.7     13.619     14.636
REMARK  Name = 92041_2Ethoxy5fluorouracil.pdbqt.pdb
REMARK  2 active torsions:
REMARK  status: ('A' for Active; 'I' for Inactive)
REMARK    1  A    between atoms: C_5  and  O_10
REMARK    2  A    between atoms: O_10  and  C_11
REMARK                            x       y       z     vdW  Elec       q    Type
REMARK                         _______ _______ _______ _____ _____    ______ ____
ROOT
ATOM      1  F   UNL     1      59.214  38.826  68.183  0.00  0.00    +0.000 F 
ATOM      2  O   UNL     1      59.509  39.467  70.946  0.00  0.00    +0.000 OA
ATOM      3  N   UNL     1      61.600  40.291  70.467  0.00  0.00    +0.000 N 
ATOM      4  N   UNL     1      62.457  40.449  68.268  0.00  0.00    +0.000 NA
ATOM      5  C   UNL     1      62.611  40.584  69.555  0.00  0.00    +0.000 C 
ATOM      6  C   UNL     1      60.342  39.798  70.113  0.00  0.00    +0.000 C 
ATOM      7  C   UNL     1      60.131  39.698  68.634  0.00  0.00    +0.000 C 
ATOM      8  C   UNL     1      61.219  40.010  68.010  0.00  0.00    +0.000 C 
ATOM      9  H   UNL     1      61.785  40.376  71.455  0.00  0.00    +0.000 HD
ENDROOT
BRANCH   5  10
ATOM     10  O   UNL     1      63.745  41.014  70.157  0.00  0.00    +0.000 OA
BRANCH  10  11
ATOM     11  C   UNL     1      64.887  40.632  69.593  0.00  0.00    +0.000 C 
ATOM     12  C   UNL     1      66.202  40.246  68.910  0.00  0.00    +0.000 C 
ENDBRANCH  10  11
ENDBRANCH   5  10
TORSDOF 2
ENDMDL
MODEL 5
REMARK VINA RESULT:      -3.7     20.053     20.822
REMARK  Name = 92041_2Ethoxy5fluorouracil.pdbqt.pdb
REMARK  2 active torsions:
REMARK  status: ('A' for Active; 'I' for Inactive)
REMARK    1  A    between atoms: C_5  and  O_10
REMARK    2  A    between atoms: O_10  and  C_11
REMARK                            x       y       z     vdW  Elec       q    Type
REMARK                         _______ _______ _______ _____ _____    ______ ____
ROOT
ATOM      1  F   UNL     1      63.202  54.730  63.084  0.00  0.00    +0.000 F 
ATOM      2  O   UNL     1      63.949  56.904  61.396  0.00  0.00    +0.000 OA
ATOM      3  N   UNL     1      61.726  57.191  60.889  0.00  0.00    +0.000 N 
ATOM      4  N   UNL     1      59.993  55.953  61.916  0.00  0.00    +0.000 NA
ATOM      5  C   UNL     1      60.389  56.834  61.042  0.00  0.00    +0.000 C 
ATOM      6  C   UNL     1      62.777  56.631  61.619  0.00  0.00    +0.000 C 
ATOM      7  C   UNL     1      62.329  55.662  62.669  0.00  0.00    +0.000 C 
ATOM      8  C   UNL     1      61.050  55.493  62.597  0.00  0.00    +0.000 C 
ATOM      9  H   UNL     1      61.983  57.851  60.170  0.00  0.00    +0.000 HD
ENDROOT
BRANCH   5  10
ATOM     10  O   UNL     1      59.573  57.499  60.191  0.00  0.00    +0.000 OA
BRANCH  10  11
ATOM     11  C   UNL     1      59.742  58.816  60.128  0.00  0.00    +0.000 C 
ATOM     12  C   UNL     1      59.978  60.325  60.011  0.00  0.00    +0.000 C 
ENDBRANCH  10  11
ENDBRANCH   5  10
TORSDOF 2
ENDMDL
MODEL 6
REMARK VINA RESULT:      -3.4     51.406     51.981
REMARK  Name = 92041_2Ethoxy5fluorouracil.pdbqt.pdb
REMARK  2 active torsions:
REMARK  status: ('A' for Active; 'I' for Inactive)
REMARK    1  A    between atoms: C_5  and  O_10
REMARK    2  A    between atoms: O_10  and  C_11
REMARK                            x       y       z     vdW  Elec       q    Type
REMARK                         _______ _______ _______ _____ _____    ______ ____
ROOT
ATOM      1  F   UNL     1      77.699  81.131  78.877  0.00  0.00    +0.000 F 
ATOM      2  O   UNL     1      79.501  79.208  79.968  0.00  0.00    +0.000 OA
ATOM      3  N   UNL     1      78.243  79.213  81.891  0.00  0.00    +0.000 N 
ATOM      4  N   UNL     1      76.220  80.418  82.112  0.00  0.00    +0.000 NA
ATOM      5  C   UNL     1      77.149  79.661  82.625  0.00  0.00    +0.000 C 
ATOM      6  C   UNL     1      78.483  79.546  80.556  0.00  0.00    +0.000 C 
ATOM      7  C   UNL     1      77.392  80.364  79.936  0.00  0.00    +0.000 C 
ATOM      8  C   UNL     1      76.503  80.660  80.826  0.00  0.00    +0.000 C 
ATOM      9  H   UNL     1      78.954  78.661  82.348  0.00  0.00    +0.000 HD
ENDROOT
BRANCH   5  10
ATOM     10  O   UNL     1      77.168  79.224  83.906  0.00  0.00    +0.000 OA
BRANCH  10  11
ATOM     11  C   UNL     1      76.108  79.534  84.646  0.00  0.00    +0.000 C 
ATOM     12  C   UNL     1      74.887  79.947  85.473  0.00  0.00    +0.000 C 
ENDBRANCH  10  11
ENDBRANCH   5  10
TORSDOF 2
ENDMDL
MODEL 7
REMARK VINA RESULT:      -3.4     29.664     31.197
REMARK  Name = 92041_2Ethoxy5fluorouracil.pdbqt.pdb
REMARK  2 active torsions:
REMARK  status: ('A' for Active; 'I' for Inactive)
REMARK    1  A    between atoms: C_5  and  O_10
REMARK    2  A    between atoms: O_10  and  C_11
REMARK                            x       y       z     vdW  Elec       q    Type
REMARK                         _______ _______ _______ _____ _____    ______ ____
ROOT
ATOM      1  F   UNL     1      60.241  63.293  66.242  0.00  0.00    +0.000 F 
ATOM      2  O   UNL     1      57.390  63.320  66.179  0.00  0.00    +0.000 OA
ATOM      3  N   UNL     1      57.422  64.579  68.101  0.00  0.00    +0.000 N 
ATOM      4  N   UNL     1      59.414  65.386  69.087  0.00  0.00    +0.000 NA
ATOM      5  C   UNL     1      58.119  65.244  69.106  0.00  0.00    +0.000 C 
ATOM      6  C   UNL     1      58.025  63.972  66.996  0.00  0.00    +0.000 C 
ATOM      7  C   UNL     1      59.506  64.182  66.931  0.00  0.00    +0.000 C 
ATOM      8  C   UNL     1      59.910  64.812  67.984  0.00  0.00    +0.000 C 
ATOM      9  H   UNL     1      56.423  64.464  68.184  0.00  0.00    +0.000 HD
ENDROOT
BRANCH   5  10
ATOM     10  O   UNL     1      57.305  65.712  70.080  0.00  0.00    +0.000 OA
BRANCH  10  11
ATOM     11  C   UNL     1      57.661  66.866  70.637  0.00  0.00    +0.000 C 
ATOM     12  C   UNL     1      58.127  68.170  71.292  0.00  0.00    +0.000 C 
ENDBRANCH  10  11
ENDBRANCH   5  10
TORSDOF 2
ENDMDL
MODEL 8
REMARK VINA RESULT:      -3.4     11.334     12.539
REMARK  Name = 92041_2Ethoxy5fluorouracil.pdbqt.pdb
REMARK  2 active torsions:
REMARK  status: ('A' for Active; 'I' for Inactive)
REMARK    1  A    between atoms: C_5  and  O_10
REMARK    2  A    between atoms: O_10  and  C_11
REMARK                            x       y       z     vdW  Elec       q    Type
REMARK                         _______ _______ _______ _____ _____    ______ ____
ROOT
ATOM      1  F   UNL     1      61.280  41.366  67.497  0.00  0.00    +0.000 F 
ATOM      2  O   UNL     1      59.233  40.233  69.128  0.00  0.00    +0.000 OA
ATOM      3  N   UNL     1      59.246  38.391  67.754  0.00  0.00    +0.000 N 
ATOM      4  N   UNL     1      60.790  38.105  65.985  0.00  0.00    +0.000 NA
ATOM      5  C   UNL     1      59.754  37.694  66.661  0.00  0.00    +0.000 C 
ATOM      6  C   UNL     1      59.760  39.603  68.220  0.00  0.00    +0.000 C 
ATOM      7  C   UNL     1      60.987  40.055  67.491  0.00  0.00    +0.000 C 
ATOM      8  C   UNL     1      61.243  39.249  66.515  0.00  0.00    +0.000 C 
ATOM      9  H   UNL     1      58.418  38.048  68.218  0.00  0.00    +0.000 HD
ENDROOT
BRANCH   5  10
ATOM     10  O   UNL     1      59.056  36.566  66.394  0.00  0.00    +0.000 OA
BRANCH  10  11
ATOM     11  C   UNL     1      58.581  36.450  65.158  0.00  0.00    +0.000 C 
ATOM     12  C   UNL     1      57.986  36.283  63.756  0.00  0.00    +0.000 C 
ENDBRANCH  10  11
ENDBRANCH   5  10
TORSDOF 2
ENDMDL
MODEL 9
REMARK VINA RESULT:      -3.2     14.663     15.293
REMARK  Name = 92041_2Ethoxy5fluorouracil.pdbqt.pdb
REMARK  2 active torsions:
REMARK  status: ('A' for Active; 'I' for Inactive)
REMARK    1  A    between atoms: C_5  and  O_10
REMARK    2  A    between atoms: O_10  and  C_11
REMARK                            x       y       z     vdW  Elec       q    Type
REMARK                         _______ _______ _______ _____ _____    ______ ____
ROOT
ATOM      1  F   UNL     1      66.608  38.639  67.592  0.00  0.00    +0.000 F 
ATOM      2  O   UNL     1      68.059  39.065  70.010  0.00  0.00    +0.000 OA
ATOM      3  N   UNL     1      66.319  40.373  70.748  0.00  0.00    +0.000 N 
ATOM      4  N   UNL     1      64.301  40.644  69.545  0.00  0.00    +0.000 NA
ATOM      5  C   UNL     1      65.059  40.936  70.564  0.00  0.00    +0.000 C 
ATOM      6  C   UNL     1      66.914  39.472  69.862  0.00  0.00    +0.000 C 
ATOM      7  C   UNL     1      66.028  39.080  68.720  0.00  0.00    +0.000 C 
ATOM      8  C   UNL     1      64.925  39.751  68.766  0.00  0.00    +0.000 C 
ATOM      9  H   UNL     1      66.881  40.664  71.534  0.00  0.00    +0.000 HD
ENDROOT
BRANCH   5  10
ATOM     10  O   UNL     1      64.729  41.804  71.548  0.00  0.00    +0.000 OA
BRANCH  10  11
ATOM     11  C   UNL     1      65.507  41.790  72.626  0.00  0.00    +0.000 C 
ATOM     12  C   UNL     1      66.377  41.718  73.885  0.00  0.00    +0.000 C 
ENDBRANCH  10  11
ENDBRANCH   5  10
TORSDOF 2
ENDMDL
