MODEL 1
REMARK VINA RESULT:      -4.5      0.000      0.000
REMARK  Name = 95716_6Bromoisatin.pdbqt.pdb
REMARK  0 active torsions:
REMARK  status: ('A' for Active; 'I' for Inactive)
REMARK                            x       y       z     vdW  Elec       q    Type
REMARK                         _______ _______ _______ _____ _____    ______ ____
ROOT
ATOM      1 BR   UNL     1      65.737  35.112  52.750  0.00  0.00    +0.000 Br
ATOM      2  O   UNL     1      61.012  37.304  57.399  0.00  0.00    +0.000 OA
ATOM      3  O   UNL     1      61.508  40.134  56.495  0.00  0.00    +0.000 OA
ATOM      4  N   UNL     1      63.000  39.031  55.082  0.00  0.00    +0.000 N 
ATOM      5  C   UNL     1      63.366  37.703  54.880  0.00  0.00    +0.000 A 
ATOM      6  C   UNL     1      62.668  36.847  55.727  0.00  0.00    +0.000 A 
ATOM      7  C   UNL     1      61.781  37.674  56.544  0.00  0.00    +0.000 C 
ATOM      8  C   UNL     1      64.291  37.226  53.976  0.00  0.00    +0.000 A 
ATOM      9  C   UNL     1      62.849  35.480  55.723  0.00  0.00    +0.000 A 
ATOM     10  C   UNL     1      62.041  39.135  56.073  0.00  0.00    +0.000 C 
ATOM     11  C   UNL     1      64.488  35.843  53.958  0.00  0.00    +0.000 A 
ATOM     12  C   UNL     1      63.782  34.979  54.814  0.00  0.00    +0.000 A 
ATOM     13  H   UNL     1      63.367  39.833  54.589  0.00  0.00    +0.000 HD
ENDROOT
TORSDOF 0
ENDMDL
MODEL 2
REMARK VINA RESULT:      -4.2      1.862      2.187
REMARK  Name = 95716_6Bromoisatin.pdbqt.pdb
REMARK  0 active torsions:
REMARK  status: ('A' for Active; 'I' for Inactive)
REMARK                            x       y       z     vdW  Elec       q    Type
REMARK                         _______ _______ _______ _____ _____    ______ ____
ROOT
ATOM      1 BR   UNL     1      65.557  39.094  52.129  0.00  0.00    +0.000 Br
ATOM      2  O   UNL     1      61.288  36.757  57.135  0.00  0.00    +0.000 OA
ATOM      3  O   UNL     1      59.373  38.985  56.473  0.00  0.00    +0.000 OA
ATOM      4  N   UNL     1      61.039  39.457  54.910  0.00  0.00    +0.000 N 
ATOM      5  C   UNL     1      62.264  38.888  54.574  0.00  0.00    +0.000 A 
ATOM      6  C   UNL     1      62.544  37.777  55.367  0.00  0.00    +0.000 A 
ATOM      7  C   UNL     1      61.421  37.608  56.288  0.00  0.00    +0.000 C 
ATOM      8  C   UNL     1      63.137  39.314  53.597  0.00  0.00    +0.000 A 
ATOM      9  C   UNL     1      63.699  37.036  55.232  0.00  0.00    +0.000 A 
ATOM     10  C   UNL     1      60.436  38.762  55.942  0.00  0.00    +0.000 C 
ATOM     11  C   UNL     1      64.312  38.574  53.445  0.00  0.00    +0.000 A 
ATOM     12  C   UNL     1      64.594  37.454  54.246  0.00  0.00    +0.000 A 
ATOM     13  H   UNL     1      60.619  40.269  54.478  0.00  0.00    +0.000 HD
ENDROOT
TORSDOF 0
ENDMDL
MODEL 3
REMARK VINA RESULT:      -3.9     17.887     18.947
REMARK  Name = 95716_6Bromoisatin.pdbqt.pdb
REMARK  0 active torsions:
REMARK  status: ('A' for Active; 'I' for Inactive)
REMARK                            x       y       z     vdW  Elec       q    Type
REMARK                         _______ _______ _______ _____ _____    ______ ____
ROOT
ATOM      1 BR   UNL     1      43.562  42.991  51.794  0.00  0.00    +0.000 Br
ATOM      2  O   UNL     1      48.363  45.047  56.428  0.00  0.00    +0.000 OA
ATOM      3  O   UNL     1      46.250  46.684  57.817  0.00  0.00    +0.000 OA
ATOM      4  N   UNL     1      44.949  45.786  56.102  0.00  0.00    +0.000 N 
ATOM      5  C   UNL     1      45.186  44.926  55.033  0.00  0.00    +0.000 A 
ATOM      6  C   UNL     1      46.517  44.515  54.994  0.00  0.00    +0.000 A 
ATOM      7  C   UNL     1      47.199  45.153  56.120  0.00  0.00    +0.000 C 
ATOM      8  C   UNL     1      44.273  44.494  54.096  0.00  0.00    +0.000 A 
ATOM      9  C   UNL     1      47.007  43.659  54.030  0.00  0.00    +0.000 A 
ATOM     10  C   UNL     1      46.103  45.996  56.833  0.00  0.00    +0.000 C 
ATOM     11  C   UNL     1      44.752  43.626  53.112  0.00  0.00    +0.000 A 
ATOM     12  C   UNL     1      46.094  43.213  53.074  0.00  0.00    +0.000 A 
ATOM     13  H   UNL     1      44.065  46.214  56.338  0.00  0.00    +0.000 HD
ENDROOT
TORSDOF 0
ENDMDL
MODEL 4
REMARK VINA RESULT:      -3.9     20.047     21.804
REMARK  Name = 95716_6Bromoisatin.pdbqt.pdb
REMARK  0 active torsions:
REMARK  status: ('A' for Active; 'I' for Inactive)
REMARK                            x       y       z     vdW  Elec       q    Type
REMARK                         _______ _______ _______ _____ _____    ______ ____
ROOT
ATOM      1 BR   UNL     1      61.857  61.832  58.654  0.00  0.00    +0.000 Br
ATOM      2  O   UNL     1      59.364  56.056  61.683  0.00  0.00    +0.000 OA
ATOM      3  O   UNL     1      61.973  54.675  61.083  0.00  0.00    +0.000 OA
ATOM      4  N   UNL     1      62.445  56.766  60.164  0.00  0.00    +0.000 N 
ATOM      5  C   UNL     1      61.750  57.966  60.036  0.00  0.00    +0.000 A 
ATOM      6  C   UNL     1      60.476  57.879  60.593  0.00  0.00    +0.000 A 
ATOM      7  C   UNL     1      60.327  56.524  61.123  0.00  0.00    +0.000 C 
ATOM      8  C   UNL     1      62.201  59.128  59.448  0.00  0.00    +0.000 A 
ATOM      9  C   UNL     1      59.588  58.934  60.595  0.00  0.00    +0.000 A 
ATOM     10  C   UNL     1      61.677  55.816  60.810  0.00  0.00    +0.000 C 
ATOM     11  C   UNL     1      61.314  60.207  59.441  0.00  0.00    +0.000 A 
ATOM     12  C   UNL     1      60.029  60.118  60.003  0.00  0.00    +0.000 A 
ATOM     13  H   UNL     1      63.384  56.583  59.840  0.00  0.00    +0.000 HD
ENDROOT
TORSDOF 0
ENDMDL
MODEL 5
REMARK VINA RESULT:      -3.8     14.216     15.432
REMARK  Name = 95716_6Bromoisatin.pdbqt.pdb
REMARK  0 active torsions:
REMARK  status: ('A' for Active; 'I' for Inactive)
REMARK                            x       y       z     vdW  Elec       q    Type
REMARK                         _______ _______ _______ _____ _____    ______ ____
ROOT
ATOM      1 BR   UNL     1      60.587  51.135  59.115  0.00  0.00    +0.000 Br
ATOM      2  O   UNL     1      67.352  52.807  59.530  0.00  0.00    +0.000 OA
ATOM      3  O   UNL     1      68.039  49.886  59.269  0.00  0.00    +0.000 OA
ATOM      4  N   UNL     1      65.715  49.727  59.167  0.00  0.00    +0.000 N 
ATOM      5  C   UNL     1      64.662  50.636  59.217  0.00  0.00    +0.000 A 
ATOM      6  C   UNL     1      65.123  51.942  59.363  0.00  0.00    +0.000 A 
ATOM      7  C   UNL     1      66.584  51.883  59.411  0.00  0.00    +0.000 C 
ATOM      8  C   UNL     1      63.316  50.353  59.140  0.00  0.00    +0.000 A 
ATOM      9  C   UNL     1      64.277  53.029  59.438  0.00  0.00    +0.000 A 
ATOM     10  C   UNL     1      66.932  50.372  59.275  0.00  0.00    +0.000 C 
ATOM     11  C   UNL     1      62.444  51.441  59.214  0.00  0.00    +0.000 A 
ATOM     12  C   UNL     1      62.910  52.759  59.361  0.00  0.00    +0.000 A 
ATOM     13  H   UNL     1      65.634  48.725  59.065  0.00  0.00    +0.000 HD
ENDROOT
TORSDOF 0
ENDMDL
MODEL 6
REMARK VINA RESULT:      -3.8     20.399     21.345
REMARK  Name = 95716_6Bromoisatin.pdbqt.pdb
REMARK  0 active torsions:
REMARK  status: ('A' for Active; 'I' for Inactive)
REMARK                            x       y       z     vdW  Elec       q    Type
REMARK                         _______ _______ _______ _____ _____    ______ ____
ROOT
ATOM      1 BR   UNL     1      63.362  60.915  58.174  0.00  0.00    +0.000 Br
ATOM      2  O   UNL     1      62.140  55.149  61.916  0.00  0.00    +0.000 OA
ATOM      3  O   UNL     1      59.201  55.804  61.874  0.00  0.00    +0.000 OA
ATOM      4  N   UNL     1      59.998  57.619  60.645  0.00  0.00    +0.000 N 
ATOM      5  C   UNL     1      61.254  58.046  60.222  0.00  0.00    +0.000 A 
ATOM      6  C   UNL     1      62.257  57.175  60.640  0.00  0.00    +0.000 A 
ATOM      7  C   UNL     1      61.610  56.099  61.391  0.00  0.00    +0.000 C 
ATOM      8  C   UNL     1      61.542  59.174  59.484  0.00  0.00    +0.000 A 
ATOM      9  C   UNL     1      63.590  57.375  60.349  0.00  0.00    +0.000 A 
ATOM     10  C   UNL     1      60.093  56.443  61.365  0.00  0.00    +0.000 C 
ATOM     11  C   UNL     1      62.887  59.393  59.180  0.00  0.00    +0.000 A 
ATOM     12  C   UNL     1      63.899  58.513  59.603  0.00  0.00    +0.000 A 
ATOM     13  H   UNL     1      59.119  58.082  60.466  0.00  0.00    +0.000 HD
ENDROOT
TORSDOF 0
ENDMDL
MODEL 7
REMARK VINA RESULT:      -3.8     30.169     31.589
REMARK  Name = 95716_6Bromoisatin.pdbqt.pdb
REMARK  0 active torsions:
REMARK  status: ('A' for Active; 'I' for Inactive)
REMARK                            x       y       z     vdW  Elec       q    Type
REMARK                         _______ _______ _______ _____ _____    ______ ____
ROOT
ATOM      1 BR   UNL     1      56.188  64.354  65.258  0.00  0.00    +0.000 Br
ATOM      2  O   UNL     1      61.497  65.321  69.688  0.00  0.00    +0.000 OA
ATOM      3  O   UNL     1      60.026  67.675  70.859  0.00  0.00    +0.000 OA
ATOM      4  N   UNL     1      58.471  67.040  69.241  0.00  0.00    +0.000 N 
ATOM      5  C   UNL     1      58.406  66.036  68.278  0.00  0.00    +0.000 A 
ATOM      6  C   UNL     1      59.543  65.232  68.302  0.00  0.00    +0.000 A 
ATOM      7  C   UNL     1      60.416  65.747  69.356  0.00  0.00    +0.000 C 
ATOM      8  C   UNL     1      57.382  65.807  67.385  0.00  0.00    +0.000 A 
ATOM      9  C   UNL     1      59.722  64.165  67.446  0.00  0.00    +0.000 A 
ATOM     10  C   UNL     1      59.651  66.962  69.957  0.00  0.00    +0.000 C 
ATOM     11  C   UNL     1      57.546  64.731  66.510  0.00  0.00    +0.000 A 
ATOM     12  C   UNL     1      58.694  63.920  66.535  0.00  0.00    +0.000 A 
ATOM     13  H   UNL     1      57.769  67.744  69.416  0.00  0.00    +0.000 HD
ENDROOT
TORSDOF 0
ENDMDL
MODEL 8
REMARK VINA RESULT:      -3.7     43.366     44.597
REMARK  Name = 95716_6Bromoisatin.pdbqt.pdb
REMARK  0 active torsions:
REMARK  status: ('A' for Active; 'I' for Inactive)
REMARK                            x       y       z     vdW  Elec       q    Type
REMARK                         _______ _______ _______ _____ _____    ______ ____
ROOT
ATOM      1 BR   UNL     1      58.705  75.477  78.209  0.00  0.00    +0.000 Br
ATOM      2  O   UNL     1      58.066  70.156  82.683  0.00  0.00    +0.000 OA
ATOM      3  O   UNL     1      57.911  72.140  84.944  0.00  0.00    +0.000 OA
ATOM      4  N   UNL     1      58.143  73.629  83.164  0.00  0.00    +0.000 N 
ATOM      5  C   UNL     1      58.276  73.502  81.785  0.00  0.00    +0.000 A 
ATOM      6  C   UNL     1      58.268  72.165  81.392  0.00  0.00    +0.000 A 
ATOM      7  C   UNL     1      58.117  71.360  82.604  0.00  0.00    +0.000 C 
ATOM      8  C   UNL     1      58.405  74.520  80.865  0.00  0.00    +0.000 A 
ATOM      9  C   UNL     1      58.385  71.772  80.076  0.00  0.00    +0.000 A 
ATOM     10  C   UNL     1      58.038  72.390  83.768  0.00  0.00    +0.000 C 
ATOM     11  C   UNL     1      58.525  74.141  79.527  0.00  0.00    +0.000 A 
ATOM     12  C   UNL     1      58.516  72.792  79.132  0.00  0.00    +0.000 A 
ATOM     13  H   UNL     1      58.122  74.495  83.684  0.00  0.00    +0.000 HD
ENDROOT
TORSDOF 0
ENDMDL
MODEL 9
REMARK VINA RESULT:      -3.7     33.154     34.465
REMARK  Name = 95716_6Bromoisatin.pdbqt.pdb
REMARK  0 active torsions:
REMARK  status: ('A' for Active; 'I' for Inactive)
REMARK                            x       y       z     vdW  Elec       q    Type
REMARK                         _______ _______ _______ _____ _____    ______ ____
ROOT
ATOM      1 BR   UNL     1      59.458  54.623  88.842  0.00  0.00    +0.000 Br
ATOM      2  O   UNL     1      58.454  50.069  83.646  0.00  0.00    +0.000 OA
ATOM      3  O   UNL     1      55.578  50.954  83.494  0.00  0.00    +0.000 OA
ATOM      4  N   UNL     1      56.295  52.337  85.229  0.00  0.00    +0.000 N 
ATOM      5  C   UNL     1      57.501  52.536  85.895  0.00  0.00    +0.000 A 
ATOM      6  C   UNL     1      58.503  51.706  85.396  0.00  0.00    +0.000 A 
ATOM      7  C   UNL     1      57.909  50.907  84.326  0.00  0.00    +0.000 C 
ATOM      8  C   UNL     1      57.745  53.421  86.923  0.00  0.00    +0.000 A 
ATOM      9  C   UNL     1      59.791  51.711  85.889  0.00  0.00    +0.000 A 
ATOM     10  C   UNL     1      56.424  51.368  84.252  0.00  0.00    +0.000 C 
ATOM     11  C   UNL     1      59.045  53.439  87.434  0.00  0.00    +0.000 A 
ATOM     12  C   UNL     1      60.055  52.602  86.930  0.00  0.00    +0.000 A 
ATOM     13  H   UNL     1      55.427  52.820  85.410  0.00  0.00    +0.000 HD
ENDROOT
TORSDOF 0
ENDMDL
