MODEL 1
REMARK VINA RESULT:      -6.1      0.000      0.000
REMARK  Name = 969516_Curcumin.pdbqt.pdb
REMARK  8 active torsions:
REMARK  status: ('A' for Active; 'I' for Inactive)
REMARK    1  A    between atoms: C_3  and  C_5
REMARK    2  A    between atoms: C_4  and  C_6
REMARK    3  A    between atoms: C_8  and  O_12
REMARK    4  A    between atoms: C_10  and  O_14
REMARK    5  A    between atoms: C_17  and  C_19
REMARK    6  A    between atoms: C_18  and  C_20
REMARK    7  A    between atoms: C_22  and  O_26
REMARK    8  A    between atoms: C_24  and  O_28
REMARK                            x       y       z     vdW  Elec       q    Type
REMARK                         _______ _______ _______ _____ _____    ______ ____
ROOT
ATOM      1  C   UNL     1      55.744  36.031  64.507  0.00  0.00    +0.000 C 
ATOM      2  O   UNL     1      53.630  36.819  64.912  0.00  0.00    +0.000 OA
ATOM      3  C   UNL     1      54.373  36.211  64.157  0.00  0.00    +0.000 C 
ATOM      4  O   UNL     1      57.782  35.007  64.282  0.00  0.00    +0.000 OA
ATOM      5  C   UNL     1      57.112  35.849  64.860  0.00  0.00    +0.000 C 
ENDROOT
BRANCH   3   7
ATOM      6  C   UNL     1      53.463  35.231  61.877  0.00  0.00    +0.000 C 
ATOM      7  C   UNL     1      53.876  35.677  62.914  0.00  0.00    +0.000 C 
BRANCH   6   8
ATOM      8  C   UNL     1      52.973  34.701  60.647  0.00  0.00    +0.000 A 
ATOM      9  C   UNL     1      52.395  35.551  59.705  0.00  0.00    +0.000 A 
ATOM     10  C   UNL     1      51.909  35.048  58.495  0.00  0.00    +0.000 A 
ATOM     11  C   UNL     1      53.071  33.337  60.389  0.00  0.00    +0.000 A 
ATOM     12  C   UNL     1      52.014  33.676  58.246  0.00  0.00    +0.000 A 
ATOM     13  C   UNL     1      52.592  32.824  59.187  0.00  0.00    +0.000 A 
BRANCH  10  14
ATOM     14  O   UNL     1      51.330  35.823  57.521  0.00  0.00    +0.000 OA
ATOM     15  C   UNL     1      51.252  37.194  57.790  0.00  0.00    +0.000 C 
ENDBRANCH  10  14
BRANCH  12  16
ATOM     16  O   UNL     1      51.568  33.093  57.092  0.00  0.00    +0.000 OA
ATOM     17  H   UNL     1      51.601  33.724  56.354  0.00  0.00    +0.000 HD
ENDBRANCH  12  16
ENDBRANCH   6   8
ENDBRANCH   3   7
BRANCH   5  19
ATOM     18  C   UNL     1      58.182  37.338  66.763  0.00  0.00    +0.000 C 
ATOM     19  C   UNL     1      57.697  36.662  65.896  0.00  0.00    +0.000 C 
BRANCH  18  20
ATOM     20  C   UNL     1      58.754  38.144  67.792  0.00  0.00    +0.000 A 
ATOM     21  C   UNL     1      57.968  38.558  68.866  0.00  0.00    +0.000 A 
ATOM     22  C   UNL     1      58.514  39.347  69.883  0.00  0.00    +0.000 A 
ATOM     23  C   UNL     1      60.095  38.514  67.722  0.00  0.00    +0.000 A 
ATOM     24  C   UNL     1      59.860  39.711  69.800  0.00  0.00    +0.000 A 
ATOM     25  C   UNL     1      60.650  39.300  68.728  0.00  0.00    +0.000 A 
BRANCH  22  26
ATOM     26  O   UNL     1      57.812  39.798  70.974  0.00  0.00    +0.000 OA
ATOM     27  C   UNL     1      57.023  38.836  71.626  0.00  0.00    +0.000 C 
ENDBRANCH  22  26
BRANCH  24  28
ATOM     28  O   UNL     1      60.413  40.483  70.785  0.00  0.00    +0.000 OA
ATOM     29  H   UNL     1      59.726  41.080  71.137  0.00  0.00    +0.000 HD
ENDBRANCH  24  28
ENDBRANCH  18  20
ENDBRANCH   5  19
TORSDOF 8
ENDMDL
MODEL 2
REMARK VINA RESULT:      -5.9     11.809     14.254
REMARK  Name = 969516_Curcumin.pdbqt.pdb
REMARK  8 active torsions:
REMARK  status: ('A' for Active; 'I' for Inactive)
REMARK    1  A    between atoms: C_3  and  C_5
REMARK    2  A    between atoms: C_4  and  C_6
REMARK    3  A    between atoms: C_8  and  O_12
REMARK    4  A    between atoms: C_10  and  O_14
REMARK    5  A    between atoms: C_17  and  C_19
REMARK    6  A    between atoms: C_18  and  C_20
REMARK    7  A    between atoms: C_22  and  O_26
REMARK    8  A    between atoms: C_24  and  O_28
REMARK                            x       y       z     vdW  Elec       q    Type
REMARK                         _______ _______ _______ _____ _____    ______ ____
ROOT
ATOM      1  C   UNL     1      47.580  43.210  71.569  0.00  0.00    +0.000 C 
ATOM      2  O   UNL     1      47.257  44.165  69.511  0.00  0.00    +0.000 OA
ATOM      3  C   UNL     1      46.757  43.794  70.562  0.00  0.00    +0.000 C 
ATOM      4  O   UNL     1      47.990  42.536  73.721  0.00  0.00    +0.000 OA
ATOM      5  C   UNL     1      48.406  42.631  72.576  0.00  0.00    +0.000 C 
ENDROOT
BRANCH   3   7
ATOM      6  C   UNL     1      44.162  44.062  70.981  0.00  0.00    +0.000 C 
ATOM      7  C   UNL     1      45.342  43.940  70.790  0.00  0.00    +0.000 C 
BRANCH   6   8
ATOM      8  C   UNL     1      42.761  44.209  71.208  0.00  0.00    +0.000 A 
ATOM      9  C   UNL     1      42.019  43.132  71.691  0.00  0.00    +0.000 A 
ATOM     10  C   UNL     1      40.646  43.258  71.918  0.00  0.00    +0.000 A 
ATOM     11  C   UNL     1      42.138  45.426  70.947  0.00  0.00    +0.000 A 
ATOM     12  C   UNL     1      40.030  44.485  71.653  0.00  0.00    +0.000 A 
ATOM     13  C   UNL     1      40.771  45.563  71.170  0.00  0.00    +0.000 A 
BRANCH  10  14
ATOM     14  O   UNL     1      39.851  42.244  72.393  0.00  0.00    +0.000 OA
ATOM     15  C   UNL     1      39.965  41.960  73.759  0.00  0.00    +0.000 C 
ENDBRANCH  10  14
BRANCH  12  16
ATOM     16  O   UNL     1      38.693  44.704  71.845  0.00  0.00    +0.000 OA
ATOM     17  H   UNL     1      38.413  44.373  72.715  0.00  0.00    +0.000 HD
ENDBRANCH  12  16
ENDBRANCH   6   8
ENDBRANCH   3   7
BRANCH   5  19
ATOM     18  C   UNL     1      50.822  41.765  71.950  0.00  0.00    +0.000 C 
ATOM     19  C   UNL     1      49.724  42.159  72.237  0.00  0.00    +0.000 C 
BRANCH  18  20
ATOM     20  C   UNL     1      52.123  41.292  71.609  0.00  0.00    +0.000 A 
ATOM     21  C   UNL     1      52.388  40.866  70.308  0.00  0.00    +0.000 A 
ATOM     22  C   UNL     1      53.659  40.401  69.958  0.00  0.00    +0.000 A 
ATOM     23  C   UNL     1      53.127  41.257  72.574  0.00  0.00    +0.000 A 
ATOM     24  C   UNL     1      54.656  40.371  70.936  0.00  0.00    +0.000 A 
ATOM     25  C   UNL     1      54.396  40.795  72.238  0.00  0.00    +0.000 A 
BRANCH  22  26
ATOM     26  O   UNL     1      54.004  39.964  68.702  0.00  0.00    +0.000 OA
ATOM     27  C   UNL     1      53.009  40.096  67.720  0.00  0.00    +0.000 C 
ENDBRANCH  22  26
BRANCH  24  28
ATOM     28  O   UNL     1      55.906  39.919  70.612  0.00  0.00    +0.000 OA
ATOM     29  H   UNL     1      55.864  38.954  70.477  0.00  0.00    +0.000 HD
ENDBRANCH  24  28
ENDBRANCH  18  20
ENDBRANCH   5  19
TORSDOF 8
ENDMDL
MODEL 3
REMARK VINA RESULT:      -5.8      8.063     12.225
REMARK  Name = 969516_Curcumin.pdbqt.pdb
REMARK  8 active torsions:
REMARK  status: ('A' for Active; 'I' for Inactive)
REMARK    1  A    between atoms: C_3  and  C_5
REMARK    2  A    between atoms: C_4  and  C_6
REMARK    3  A    between atoms: C_8  and  O_12
REMARK    4  A    between atoms: C_10  and  O_14
REMARK    5  A    between atoms: C_17  and  C_19
REMARK    6  A    between atoms: C_18  and  C_20
REMARK    7  A    between atoms: C_22  and  O_26
REMARK    8  A    between atoms: C_24  and  O_28
REMARK                            x       y       z     vdW  Elec       q    Type
REMARK                         _______ _______ _______ _____ _____    ______ ____
ROOT
ATOM      1  C   UNL     1      53.705  40.566  71.262  0.00  0.00    +0.000 C 
ATOM      2  O   UNL     1      53.485  39.088  69.525  0.00  0.00    +0.000 OA
ATOM      3  C   UNL     1      54.240  39.723  70.244  0.00  0.00    +0.000 C 
ATOM      4  O   UNL     1      53.889  41.801  73.184  0.00  0.00    +0.000 OA
ATOM      5  C   UNL     1      53.167  41.405  72.281  0.00  0.00    +0.000 C 
ENDROOT
BRANCH   3   7
ATOM      6  C   UNL     1      56.858  39.552  69.926  0.00  0.00    +0.000 C 
ATOM      7  C   UNL     1      55.668  39.630  70.070  0.00  0.00    +0.000 C 
BRANCH   6   8
ATOM      8  C   UNL     1      58.271  39.458  69.756  0.00  0.00    +0.000 A 
ATOM      9  C   UNL     1      58.832  39.641  68.492  0.00  0.00    +0.000 A 
ATOM     10  C   UNL     1      60.215  39.552  68.307  0.00  0.00    +0.000 A 
ATOM     11  C   UNL     1      59.087  39.182  70.849  0.00  0.00    +0.000 A 
ATOM     12  C   UNL     1      61.025  39.276  69.413  0.00  0.00    +0.000 A 
ATOM     13  C   UNL     1      60.466  39.092  70.677  0.00  0.00    +0.000 A 
BRANCH  10  14
ATOM     14  O   UNL     1      60.838  39.721  67.096  0.00  0.00    +0.000 OA
ATOM     15  C   UNL     1      60.950  38.578  66.296  0.00  0.00    +0.000 C 
ENDBRANCH  10  14
BRANCH  12  16
ATOM     16  O   UNL     1      62.386  39.170  69.330  0.00  0.00    +0.000 OA
ATOM     17  H   UNL     1      62.729  39.714  68.602  0.00  0.00    +0.000 HD
ENDBRANCH  12  16
ENDBRANCH   6   8
ENDBRANCH   3   7
BRANCH   5  19
ATOM     18  C   UNL     1      50.618  42.094  72.209  0.00  0.00    +0.000 C 
ATOM     19  C   UNL     1      51.777  41.781  72.239  0.00  0.00    +0.000 C 
BRANCH  18  20
ATOM     20  C   UNL     1      49.240  42.461  72.174  0.00  0.00    +0.000 A 
ATOM     21  C   UNL     1      48.604  42.656  70.949  0.00  0.00    +0.000 A 
ATOM     22  C   UNL     1      47.254  43.015  70.900  0.00  0.00    +0.000 A 
ATOM     23  C   UNL     1      48.533  42.623  73.364  0.00  0.00    +0.000 A 
ATOM     24  C   UNL     1      46.557  43.174  72.100  0.00  0.00    +0.000 A 
ATOM     25  C   UNL     1      47.188  42.980  73.327  0.00  0.00    +0.000 A 
BRANCH  22  26
ATOM     26  O   UNL     1      46.552  43.226  69.738  0.00  0.00    +0.000 OA
ATOM     27  C   UNL     1      46.724  44.488  69.147  0.00  0.00    +0.000 C 
ENDBRANCH  22  26
BRANCH  24  28
ATOM     28  O   UNL     1      45.235  43.525  72.072  0.00  0.00    +0.000 OA
ATOM     29  H   UNL     1      44.761  43.015  72.756  0.00  0.00    +0.000 HD
ENDBRANCH  24  28
ENDBRANCH  18  20
ENDBRANCH   5  19
TORSDOF 8
ENDMDL
MODEL 4
REMARK VINA RESULT:      -5.7     25.087     29.742
REMARK  Name = 969516_Curcumin.pdbqt.pdb
REMARK  8 active torsions:
REMARK  status: ('A' for Active; 'I' for Inactive)
REMARK    1  A    between atoms: C_3  and  C_5
REMARK    2  A    between atoms: C_4  and  C_6
REMARK    3  A    between atoms: C_8  and  O_12
REMARK    4  A    between atoms: C_10  and  O_14
REMARK    5  A    between atoms: C_17  and  C_19
REMARK    6  A    between atoms: C_18  and  C_20
REMARK    7  A    between atoms: C_22  and  O_26
REMARK    8  A    between atoms: C_24  and  O_28
REMARK                            x       y       z     vdW  Elec       q    Type
REMARK                         _______ _______ _______ _____ _____    ______ ____
ROOT
ATOM      1  C   UNL     1      68.431  62.555  65.760  0.00  0.00    +0.000 C 
ATOM      2  O   UNL     1      70.522  62.536  66.699  0.00  0.00    +0.000 OA
ATOM      3  C   UNL     1      69.619  61.892  66.188  0.00  0.00    +0.000 C 
ATOM      4  O   UNL     1      66.481  62.658  64.561  0.00  0.00    +0.000 OA
ATOM      5  C   UNL     1      67.248  63.220  65.329  0.00  0.00    +0.000 C 
ENDROOT
BRANCH   3   7
ATOM      6  C   UNL     1      69.847  59.277  65.878  0.00  0.00    +0.000 C 
ATOM      7  C   UNL     1      69.743  60.466  66.019  0.00  0.00    +0.000 C 
BRANCH   6   8
ATOM      8  C   UNL     1      69.972  57.866  65.713  0.00  0.00    +0.000 A 
ATOM      9  C   UNL     1      69.786  57.295  64.455  0.00  0.00    +0.000 A 
ATOM     10  C   UNL     1      69.904  55.913  64.275  0.00  0.00    +0.000 A 
ATOM     11  C   UNL     1      70.276  57.061  66.807  0.00  0.00    +0.000 A 
ATOM     12  C   UNL     1      70.211  55.115  65.381  0.00  0.00    +0.000 A 
ATOM     13  C   UNL     1      70.397  55.685  66.640  0.00  0.00    +0.000 A 
BRANCH  10  14
ATOM     14  O   UNL     1      69.737  55.281  63.068  0.00  0.00    +0.000 OA
ATOM     15  C   UNL     1      70.750  55.481  62.123  0.00  0.00    +0.000 C 
ENDBRANCH  10  14
BRANCH  12  16
ATOM     16  O   UNL     1      70.347  53.756  65.303  0.00  0.00    +0.000 OA
ATOM     17  H   UNL     1      70.993  53.438  65.956  0.00  0.00    +0.000 HD
ENDBRANCH  12  16
ENDBRANCH   6   8
ENDBRANCH   3   7
BRANCH   5  19
ATOM     18  C   UNL     1      66.727  65.660  66.199  0.00  0.00    +0.000 C 
ATOM     19  C   UNL     1      66.961  64.550  65.803  0.00  0.00    +0.000 C 
BRANCH  18  20
ATOM     20  C   UNL     1      66.451  66.977  66.672  0.00  0.00    +0.000 A 
ATOM     21  C   UNL     1      67.500  67.869  66.892  0.00  0.00    +0.000 A 
ATOM     22  C   UNL     1      67.245  69.163  67.355  0.00  0.00    +0.000 A 
ATOM     23  C   UNL     1      65.136  67.370  66.912  0.00  0.00    +0.000 A 
ATOM     24  C   UNL     1      65.922  69.544  67.592  0.00  0.00    +0.000 A 
ATOM     25  C   UNL     1      64.870  68.655  67.374  0.00  0.00    +0.000 A 
BRANCH  22  26
ATOM     26  O   UNL     1      68.218  70.103  67.598  0.00  0.00    +0.000 OA
ATOM     27  C   UNL     1      69.103  69.801  68.645  0.00  0.00    +0.000 C 
ENDBRANCH  22  26
BRANCH  24  28
ATOM     28  O   UNL     1      65.653  70.806  68.045  0.00  0.00    +0.000 OA
ATOM     29  H   UNL     1      65.687  70.802  69.021  0.00  0.00    +0.000 HD
ENDBRANCH  24  28
ENDBRANCH  18  20
ENDBRANCH   5  19
TORSDOF 8
ENDMDL
MODEL 5
REMARK VINA RESULT:      -5.7     17.187     18.702
REMARK  Name = 969516_Curcumin.pdbqt.pdb
REMARK  8 active torsions:
REMARK  status: ('A' for Active; 'I' for Inactive)
REMARK    1  A    between atoms: C_3  and  C_5
REMARK    2  A    between atoms: C_4  and  C_6
REMARK    3  A    between atoms: C_8  and  O_12
REMARK    4  A    between atoms: C_10  and  O_14
REMARK    5  A    between atoms: C_17  and  C_19
REMARK    6  A    between atoms: C_18  and  C_20
REMARK    7  A    between atoms: C_22  and  O_26
REMARK    8  A    between atoms: C_24  and  O_28
REMARK                            x       y       z     vdW  Elec       q    Type
REMARK                         _______ _______ _______ _____ _____    ______ ____
ROOT
ATOM      1  C   UNL     1      63.304  49.843  57.599  0.00  0.00    +0.000 C 
ATOM      2  O   UNL     1      62.038  49.443  55.731  0.00  0.00    +0.000 OA
ATOM      3  C   UNL     1      63.048  49.176  56.365  0.00  0.00    +0.000 C 
ATOM      4  O   UNL     1      64.380  50.051  59.612  0.00  0.00    +0.000 OA
ATOM      5  C   UNL     1      63.556  50.508  58.834  0.00  0.00    +0.000 C 
ENDROOT
BRANCH   3   7
ATOM      6  C   UNL     1      64.761  47.378  55.464  0.00  0.00    +0.000 C 
ATOM      7  C   UNL     1      63.983  48.196  55.874  0.00  0.00    +0.000 C 
BRANCH   6   8
ATOM      8  C   UNL     1      65.686  46.408  54.975  0.00  0.00    +0.000 A 
ATOM      9  C   UNL     1      67.050  46.696  54.955  0.00  0.00    +0.000 A 
ATOM     10  C   UNL     1      67.970  45.757  54.479  0.00  0.00    +0.000 A 
ATOM     11  C   UNL     1      65.226  45.176  54.517  0.00  0.00    +0.000 A 
ATOM     12  C   UNL     1      67.496  44.523  54.023  0.00  0.00    +0.000 A 
ATOM     13  C   UNL     1      66.132  44.233  54.042  0.00  0.00    +0.000 A 
BRANCH  10  14
ATOM     14  O   UNL     1      69.326  45.969  54.431  0.00  0.00    +0.000 OA
ATOM     15  C   UNL     1      69.734  47.267  54.102  0.00  0.00    +0.000 C 
ENDBRANCH  10  14
BRANCH  12  16
ATOM     16  O   UNL     1      68.319  43.543  53.540  0.00  0.00    +0.000 OA
ATOM     17  H   UNL     1      68.449  43.645  52.583  0.00  0.00    +0.000 HD
ENDBRANCH  12  16
ENDBRANCH   6   8
ENDBRANCH   3   7
BRANCH   5  19
ATOM     18  C   UNL     1      62.244  52.723  59.428  0.00  0.00    +0.000 C 
ATOM     19  C   UNL     1      62.840  51.716  59.156  0.00  0.00    +0.000 C 
BRANCH  18  20
ATOM     20  C   UNL     1      61.536  53.917  59.755  0.00  0.00    +0.000 A 
ATOM     21  C   UNL     1      60.407  54.278  59.022  0.00  0.00    +0.000 A 
ATOM     22  C   UNL     1      59.702  55.444  59.332  0.00  0.00    +0.000 A 
ATOM     23  C   UNL     1      61.974  54.720  60.807  0.00  0.00    +0.000 A 
ATOM     24  C   UNL     1      60.152  56.240  60.388  0.00  0.00    +0.000 A 
ATOM     25  C   UNL     1      61.281  55.884  61.124  0.00  0.00    +0.000 A 
BRANCH  22  26
ATOM     26  O   UNL     1      58.582  55.873  58.662  0.00  0.00    +0.000 OA
ATOM     27  C   UNL     1      57.973  54.919  57.830  0.00  0.00    +0.000 C 
ENDBRANCH  22  26
BRANCH  24  28
ATOM     28  O   UNL     1      59.475  57.386  60.707  0.00  0.00    +0.000 OA
ATOM     29  H   UNL     1      59.979  57.867  61.390  0.00  0.00    +0.000 HD
ENDBRANCH  24  28
ENDBRANCH  18  20
ENDBRANCH   5  19
TORSDOF 8
ENDMDL
MODEL 6
REMARK VINA RESULT:      -5.7     16.778     18.140
REMARK  Name = 969516_Curcumin.pdbqt.pdb
REMARK  8 active torsions:
REMARK  status: ('A' for Active; 'I' for Inactive)
REMARK    1  A    between atoms: C_3  and  C_5
REMARK    2  A    between atoms: C_4  and  C_6
REMARK    3  A    between atoms: C_8  and  O_12
REMARK    4  A    between atoms: C_10  and  O_14
REMARK    5  A    between atoms: C_17  and  C_19
REMARK    6  A    between atoms: C_18  and  C_20
REMARK    7  A    between atoms: C_22  and  O_26
REMARK    8  A    between atoms: C_24  and  O_28
REMARK                            x       y       z     vdW  Elec       q    Type
REMARK                         _______ _______ _______ _____ _____    ______ ____
ROOT
ATOM      1  C   UNL     1      63.168  49.594  57.458  0.00  0.00    +0.000 C 
ATOM      2  O   UNL     1      62.034  49.334  55.483  0.00  0.00    +0.000 OA
ATOM      3  C   UNL     1      62.975  48.989  56.181  0.00  0.00    +0.000 C 
ATOM      4  O   UNL     1      64.092  49.665  59.554  0.00  0.00    +0.000 OA
ATOM      5  C   UNL     1      63.356  50.196  58.735  0.00  0.00    +0.000 C 
ENDROOT
BRANCH   3   7
ATOM      6  C   UNL     1      64.661  47.136  55.339  0.00  0.00    +0.000 C 
ATOM      7  C   UNL     1      63.895  47.979  55.721  0.00  0.00    +0.000 C 
BRANCH   6   8
ATOM      8  C   UNL     1      65.569  46.134  54.883  0.00  0.00    +0.000 A 
ATOM      9  C   UNL     1      65.079  44.924  54.394  0.00  0.00    +0.000 A 
ATOM     10  C   UNL     1      65.955  43.932  53.943  0.00  0.00    +0.000 A 
ATOM     11  C   UNL     1      66.940  46.366  54.929  0.00  0.00    +0.000 A 
ATOM     12  C   UNL     1      67.331  44.175  53.993  0.00  0.00    +0.000 A 
ATOM     13  C   UNL     1      67.822  45.385  54.483  0.00  0.00    +0.000 A 
BRANCH  10  14
ATOM     14  O   UNL     1      65.548  42.718  53.448  0.00  0.00    +0.000 OA
ATOM     15  C   UNL     1      64.412  42.159  54.046  0.00  0.00    +0.000 C 
ENDBRANCH  10  14
BRANCH  12  16
ATOM     16  O   UNL     1      68.263  43.266  53.575  0.00  0.00    +0.000 OA
ATOM     17  H   UNL     1      68.224  42.461  54.119  0.00  0.00    +0.000 HD
ENDBRANCH  12  16
ENDBRANCH   6   8
ENDBRANCH   3   7
BRANCH   5  19
ATOM     18  C   UNL     1      62.111  52.453  59.315  0.00  0.00    +0.000 C 
ATOM     19  C   UNL     1      62.679  51.428  59.052  0.00  0.00    +0.000 C 
BRANCH  18  20
ATOM     20  C   UNL     1      61.436  53.671  59.621  0.00  0.00    +0.000 A 
ATOM     21  C   UNL     1      62.119  54.701  60.266  0.00  0.00    +0.000 A 
ATOM     22  C   UNL     1      61.471  55.901  60.573  0.00  0.00    +0.000 A 
ATOM     23  C   UNL     1      60.095  53.831  59.275  0.00  0.00    +0.000 A 
ATOM     24  C   UNL     1      60.127  56.047  60.220  0.00  0.00    +0.000 A 
ATOM     25  C   UNL     1      59.439  55.021  59.575  0.00  0.00    +0.000 A 
BRANCH  22  26
ATOM     26  O   UNL     1      62.069  56.964  61.206  0.00  0.00    +0.000 OA
ATOM     27  C   UNL     1      63.278  56.676  61.860  0.00  0.00    +0.000 C 
ENDBRANCH  22  26
BRANCH  24  28
ATOM     28  O   UNL     1      59.476  57.214  60.511  0.00  0.00    +0.000 OA
ATOM     29  H   UNL     1      59.969  57.956  60.113  0.00  0.00    +0.000 HD
ENDBRANCH  24  28
ENDBRANCH  18  20
ENDBRANCH   5  19
TORSDOF 8
ENDMDL
MODEL 7
REMARK VINA RESULT:      -5.6      8.139     12.258
REMARK  Name = 969516_Curcumin.pdbqt.pdb
REMARK  8 active torsions:
REMARK  status: ('A' for Active; 'I' for Inactive)
REMARK    1  A    between atoms: C_3  and  C_5
REMARK    2  A    between atoms: C_4  and  C_6
REMARK    3  A    between atoms: C_8  and  O_12
REMARK    4  A    between atoms: C_10  and  O_14
REMARK    5  A    between atoms: C_17  and  C_19
REMARK    6  A    between atoms: C_18  and  C_20
REMARK    7  A    between atoms: C_22  and  O_26
REMARK    8  A    between atoms: C_24  and  O_28
REMARK                            x       y       z     vdW  Elec       q    Type
REMARK                         _______ _______ _______ _____ _____    ______ ____
ROOT
ATOM      1  C   UNL     1      53.649  40.574  71.227  0.00  0.00    +0.000 C 
ATOM      2  O   UNL     1      53.446  39.161  69.434  0.00  0.00    +0.000 OA
ATOM      3  C   UNL     1      54.194  39.756  70.195  0.00  0.00    +0.000 C 
ATOM      4  O   UNL     1      53.806  41.739  73.195  0.00  0.00    +0.000 OA
ATOM      5  C   UNL     1      53.101  41.388  72.260  0.00  0.00    +0.000 C 
ENDROOT
BRANCH   3   7
ATOM      6  C   UNL     1      56.815  39.539  69.938  0.00  0.00    +0.000 C 
ATOM      7  C   UNL     1      55.624  39.638  70.055  0.00  0.00    +0.000 C 
BRANCH   6   8
ATOM      8  C   UNL     1      58.230  39.422  69.797  0.00  0.00    +0.000 A 
ATOM      9  C   UNL     1      58.831  39.694  68.569  0.00  0.00    +0.000 A 
ATOM     10  C   UNL     1      60.216  39.583  68.413  0.00  0.00    +0.000 A 
ATOM     11  C   UNL     1      59.008  39.035  70.885  0.00  0.00    +0.000 A 
ATOM     12  C   UNL     1      60.987  39.195  69.513  0.00  0.00    +0.000 A 
ATOM     13  C   UNL     1      60.388  38.923  70.742  0.00  0.00    +0.000 A 
BRANCH  10  14
ATOM     14  O   UNL     1      60.877  39.835  67.237  0.00  0.00    +0.000 OA
ATOM     15  C   UNL     1      61.040  38.743  66.376  0.00  0.00    +0.000 C 
ENDBRANCH  10  14
BRANCH  12  16
ATOM     16  O   UNL     1      62.347  39.060  69.457  0.00  0.00    +0.000 OA
ATOM     17  H   UNL     1      62.615  38.169  69.737  0.00  0.00    +0.000 HD
ENDBRANCH  12  16
ENDBRANCH   6   8
ENDBRANCH   3   7
BRANCH   5  19
ATOM     18  C   UNL     1      50.570  42.138  72.141  0.00  0.00    +0.000 C 
ATOM     19  C   UNL     1      51.720  41.795  72.195  0.00  0.00    +0.000 C 
BRANCH  18  20
ATOM     20  C   UNL     1      49.205  42.547  72.083  0.00  0.00    +0.000 A 
ATOM     21  C   UNL     1      48.538  42.909  73.252  0.00  0.00    +0.000 A 
ATOM     22  C   UNL     1      47.200  43.312  73.211  0.00  0.00    +0.000 A 
ATOM     23  C   UNL     1      48.542  42.587  70.858  0.00  0.00    +0.000 A 
ATOM     24  C   UNL     1      46.548  43.347  71.976  0.00  0.00    +0.000 A 
ATOM     25  C   UNL     1      47.210  42.987  70.804  0.00  0.00    +0.000 A 
BRANCH  22  26
ATOM     26  O   UNL     1      46.469  43.683  74.313  0.00  0.00    +0.000 OA
ATOM     27  C   UNL     1      46.027  42.630  75.129  0.00  0.00    +0.000 C 
ENDBRANCH  22  26
BRANCH  24  28
ATOM     28  O   UNL     1      45.239  43.740  71.915  0.00  0.00    +0.000 OA
ATOM     29  H   UNL     1      45.200  44.643  71.547  0.00  0.00    +0.000 HD
ENDBRANCH  24  28
ENDBRANCH  18  20
ENDBRANCH   5  19
TORSDOF 8
ENDMDL
MODEL 8
REMARK VINA RESULT:      -5.6     24.814     30.059
REMARK  Name = 969516_Curcumin.pdbqt.pdb
REMARK  8 active torsions:
REMARK  status: ('A' for Active; 'I' for Inactive)
REMARK    1  A    between atoms: C_3  and  C_5
REMARK    2  A    between atoms: C_4  and  C_6
REMARK    3  A    between atoms: C_8  and  O_12
REMARK    4  A    between atoms: C_10  and  O_14
REMARK    5  A    between atoms: C_17  and  C_19
REMARK    6  A    between atoms: C_18  and  C_20
REMARK    7  A    between atoms: C_22  and  O_26
REMARK    8  A    between atoms: C_24  and  O_28
REMARK                            x       y       z     vdW  Elec       q    Type
REMARK                         _______ _______ _______ _____ _____    ______ ____
ROOT
ATOM      1  C   UNL     1      68.376  62.518  65.676  0.00  0.00    +0.000 C 
ATOM      2  O   UNL     1      66.472  62.625  64.405  0.00  0.00    +0.000 OA
ATOM      3  C   UNL     1      67.205  63.183  65.207  0.00  0.00    +0.000 C 
ATOM      4  O   UNL     1      70.430  62.493  66.692  0.00  0.00    +0.000 OA
ATOM      5  C   UNL     1      69.547  61.853  66.140  0.00  0.00    +0.000 C 
ENDROOT
BRANCH   3   7
ATOM      6  C   UNL     1      66.633  65.609  66.083  0.00  0.00    +0.000 C 
ATOM      7  C   UNL     1      66.894  64.506  65.685  0.00  0.00    +0.000 C 
BRANCH   6   8
ATOM      8  C   UNL     1      66.323  66.918  66.557  0.00  0.00    +0.000 A 
ATOM      9  C   UNL     1      65.041  67.202  67.027  0.00  0.00    +0.000 A 
ATOM     10  C   UNL     1      64.720  68.479  67.496  0.00  0.00    +0.000 A 
ATOM     11  C   UNL     1      67.300  67.911  66.550  0.00  0.00    +0.000 A 
ATOM     12  C   UNL     1      65.709  69.468  67.484  0.00  0.00    +0.000 A 
ATOM     13  C   UNL     1      66.992  69.186  67.015  0.00  0.00    +0.000 A 
BRANCH  10  14
ATOM     14  O   UNL     1      63.482  68.831  67.973  0.00  0.00    +0.000 OA
ATOM     15  C   UNL     1      62.481  67.860  67.862  0.00  0.00    +0.000 C 
ENDBRANCH  10  14
BRANCH  12  16
ATOM     16  O   UNL     1      65.490  70.745  67.922  0.00  0.00    +0.000 OA
ATOM     17  H   UNL     1      66.198  71.027  68.525  0.00  0.00    +0.000 HD
ENDBRANCH  12  16
ENDBRANCH   6   8
ENDBRANCH   3   7
BRANCH   5  19
ATOM     18  C   UNL     1      69.799  59.244  65.804  0.00  0.00    +0.000 C 
ATOM     19  C   UNL     1      69.683  60.430  65.958  0.00  0.00    +0.000 C 
BRANCH  18  20
ATOM     20  C   UNL     1      69.937  57.837  65.616  0.00  0.00    +0.000 A 
ATOM     21  C   UNL     1      69.754  57.285  64.349  0.00  0.00    +0.000 A 
ATOM     22  C   UNL     1      69.887  55.908  64.149  0.00  0.00    +0.000 A 
ATOM     23  C   UNL     1      70.255  57.018  66.697  0.00  0.00    +0.000 A 
ATOM     24  C   UNL     1      70.206  55.099  65.242  0.00  0.00    +0.000 A 
ATOM     25  C   UNL     1      70.389  55.646  66.511  0.00  0.00    +0.000 A 
BRANCH  22  26
ATOM     26  O   UNL     1      69.723  55.283  62.936  0.00  0.00    +0.000 OA
ATOM     27  C   UNL     1      70.727  55.532  61.987  0.00  0.00    +0.000 C 
ENDBRANCH  22  26
BRANCH  24  28
ATOM     28  O   UNL     1      70.340  53.749  65.066  0.00  0.00    +0.000 OA
ATOM     29  H   UNL     1      70.992  53.589  64.358  0.00  0.00    +0.000 HD
ENDBRANCH  24  28
ENDBRANCH  18  20
ENDBRANCH   5  19
TORSDOF 8
ENDMDL
MODEL 9
REMARK VINA RESULT:      -5.5     19.555     24.560
REMARK  Name = 969516_Curcumin.pdbqt.pdb
REMARK  8 active torsions:
REMARK  status: ('A' for Active; 'I' for Inactive)
REMARK    1  A    between atoms: C_3  and  C_5
REMARK    2  A    between atoms: C_4  and  C_6
REMARK    3  A    between atoms: C_8  and  O_12
REMARK    4  A    between atoms: C_10  and  O_14
REMARK    5  A    between atoms: C_17  and  C_19
REMARK    6  A    between atoms: C_18  and  C_20
REMARK    7  A    between atoms: C_22  and  O_26
REMARK    8  A    between atoms: C_24  and  O_28
REMARK                            x       y       z     vdW  Elec       q    Type
REMARK                         _______ _______ _______ _____ _____    ______ ____
ROOT
ATOM      1  C   UNL     1      69.925  53.226  64.010  0.00  0.00    +0.000 C 
ATOM      2  O   UNL     1      71.220  53.428  65.891  0.00  0.00    +0.000 OA
ATOM      3  C   UNL     1      70.487  53.979  65.083  0.00  0.00    +0.000 C 
ATOM      4  O   UNL     1      68.410  52.918  62.318  0.00  0.00    +0.000 OA
ATOM      5  C   UNL     1      69.361  52.470  62.943  0.00  0.00    +0.000 C 
ENDROOT
BRANCH   3   7
ATOM      6  C   UNL     1      69.942  56.555  65.304  0.00  0.00    +0.000 C 
ATOM      7  C   UNL     1      70.191  55.384  65.203  0.00  0.00    +0.000 C 
BRANCH   6   8
ATOM      8  C   UNL     1      69.646  57.945  65.425  0.00  0.00    +0.000 A 
ATOM      9  C   UNL     1      69.881  58.603  66.632  0.00  0.00    +0.000 A 
ATOM     10  C   UNL     1      69.597  59.965  66.768  0.00  0.00    +0.000 A 
ATOM     11  C   UNL     1      69.122  58.642  64.340  0.00  0.00    +0.000 A 
ATOM     12  C   UNL     1      69.072  60.655  65.671  0.00  0.00    +0.000 A 
ATOM     13  C   UNL     1      68.836  59.999  64.463  0.00  0.00    +0.000 A 
BRANCH  10  14
ATOM     14  O   UNL     1      69.803  60.679  67.922  0.00  0.00    +0.000 OA
ATOM     15  C   UNL     1      71.114  61.114  68.151  0.00  0.00    +0.000 C 
ENDBRANCH  10  14
BRANCH  12  16
ATOM     16  O   UNL     1      68.763  61.987  65.708  0.00  0.00    +0.000 OA
ATOM     17  H   UNL     1      68.894  62.344  66.603  0.00  0.00    +0.000 HD
ENDBRANCH  12  16
ENDBRANCH   6   8
ENDBRANCH   3   7
BRANCH   5  19
ATOM     18  C   UNL     1      70.375  50.111  62.319  0.00  0.00    +0.000 C 
ATOM     19  C   UNL     1      69.915  51.184  62.604  0.00  0.00    +0.000 C 
BRANCH  18  20
ATOM     20  C   UNL     1      70.915  48.835  61.983  0.00  0.00    +0.000 A 
ATOM     21  C   UNL     1      71.553  48.072  62.959  0.00  0.00    +0.000 A 
ATOM     22  C   UNL     1      72.088  46.819  62.645  0.00  0.00    +0.000 A 
ATOM     23  C   UNL     1      70.804  48.354  60.680  0.00  0.00    +0.000 A 
ATOM     24  C   UNL     1      71.969  46.349  61.335  0.00  0.00    +0.000 A 
ATOM     25  C   UNL     1      71.332  47.108  60.355  0.00  0.00    +0.000 A 
BRANCH  22  26
ATOM     26  O   UNL     1      72.732  46.005  63.545  0.00  0.00    +0.000 OA
ATOM     27  C   UNL     1      72.016  45.713  64.717  0.00  0.00    +0.000 C 
ENDBRANCH  22  26
BRANCH  24  28
ATOM     28  O   UNL     1      72.486  45.125  61.008  0.00  0.00    +0.000 OA
ATOM     29  H   UNL     1      73.190  45.250  60.344  0.00  0.00    +0.000 HD
ENDBRANCH  24  28
ENDBRANCH  18  20
ENDBRANCH   5  19
TORSDOF 8
ENDMDL
