MODEL 1
REMARK VINA RESULT:      -3.7      0.000      0.000
REMARK  Name = 971_OxalicAcid.pdbqt.pdb
REMARK  3 active torsions:
REMARK  status: ('A' for Active; 'I' for Inactive)
REMARK    1  A    between atoms: C_2  and  O_3
REMARK    2  A    between atoms: C_2  and  C_6
REMARK    3  A    between atoms: C_6  and  O_7
REMARK                            x       y       z     vdW  Elec       q    Type
REMARK                         _______ _______ _______ _____ _____    ______ ____
ROOT
ATOM      1  O   UNL     1      60.162  39.212  55.073  0.00  0.00    +0.000 OA
ATOM      2  C   UNL     1      60.902  39.191  56.036  0.00  0.00    +0.000 C 
ENDROOT
BRANCH   2   3
ATOM      3  O   UNL     1      61.284  40.313  56.662  0.00  0.00    +0.000 OA
ATOM      4  H   UNL     1      62.055  40.043  57.200  0.00  0.00    +0.000 HD
ENDBRANCH   2   3
BRANCH   2   6
ATOM      5  O   UNL     1      61.216  36.764  56.385  0.00  0.00    +0.000 OA
ATOM      6  C   UNL     1      61.507  37.906  56.682  0.00  0.00    +0.000 C 
BRANCH   6   7
ATOM      7  O   UNL     1      62.414  38.182  57.630  0.00  0.00    +0.000 OA
ATOM      8  H   UNL     1      62.811  37.315  57.849  0.00  0.00    +0.000 HD
ENDBRANCH   6   7
ENDBRANCH   2   6
TORSDOF 3
ENDMDL
MODEL 2
REMARK VINA RESULT:      -3.7      0.036      2.449
REMARK  Name = 971_OxalicAcid.pdbqt.pdb
REMARK  3 active torsions:
REMARK  status: ('A' for Active; 'I' for Inactive)
REMARK    1  A    between atoms: C_2  and  O_3
REMARK    2  A    between atoms: C_2  and  C_6
REMARK    3  A    between atoms: C_6  and  O_7
REMARK                            x       y       z     vdW  Elec       q    Type
REMARK                         _______ _______ _______ _____ _____    ______ ____
ROOT
ATOM      1  O   UNL     1      61.238  36.751  56.361  0.00  0.00    +0.000 OA
ATOM      2  C   UNL     1      61.505  37.893  56.679  0.00  0.00    +0.000 C 
ENDROOT
BRANCH   2   3
ATOM      3  O   UNL     1      62.388  38.172  57.648  0.00  0.00    +0.000 OA
ATOM      4  H   UNL     1      61.941  37.896  58.473  0.00  0.00    +0.000 HD
ENDBRANCH   2   3
BRANCH   2   6
ATOM      5  O   UNL     1      60.115  39.193  55.101  0.00  0.00    +0.000 OA
ATOM      6  C   UNL     1      60.889  39.176  56.038  0.00  0.00    +0.000 C 
BRANCH   6   7
ATOM      7  O   UNL     1      61.306  40.302  56.634  0.00  0.00    +0.000 OA
ATOM      8  H   UNL     1      62.018  40.637  56.053  0.00  0.00    +0.000 HD
ENDBRANCH   6   7
ENDBRANCH   2   6
TORSDOF 3
ENDMDL
MODEL 3
REMARK VINA RESULT:      -3.3      9.227      9.710
REMARK  Name = 971_OxalicAcid.pdbqt.pdb
REMARK  3 active torsions:
REMARK  status: ('A' for Active; 'I' for Inactive)
REMARK    1  A    between atoms: C_2  and  O_3
REMARK    2  A    between atoms: C_2  and  C_6
REMARK    3  A    between atoms: C_6  and  O_7
REMARK                            x       y       z     vdW  Elec       q    Type
REMARK                         _______ _______ _______ _____ _____    ______ ____
ROOT
ATOM      1  O   UNL     1      50.508  37.387  58.124  0.00  0.00    +0.000 OA
ATOM      2  C   UNL     1      51.351  36.810  57.466  0.00  0.00    +0.000 C 
ENDROOT
BRANCH   2   3
ATOM      3  O   UNL     1      51.228  36.650  56.141  0.00  0.00    +0.000 OA
ATOM      4  H   UNL     1      51.204  37.561  55.785  0.00  0.00    +0.000 HD
ENDBRANCH   2   3
BRANCH   2   6
ATOM      5  O   UNL     1      52.976  36.137  59.202  0.00  0.00    +0.000 OA
ATOM      6  C   UNL     1      52.664  36.184  58.028  0.00  0.00    +0.000 C 
BRANCH   6   7
ATOM      7  O   UNL     1      53.451  35.682  57.066  0.00  0.00    +0.000 OA
ATOM      8  H   UNL     1      53.643  34.768  57.359  0.00  0.00    +0.000 HD
ENDBRANCH   6   7
ENDBRANCH   2   6
TORSDOF 3
ENDMDL
MODEL 4
REMARK VINA RESULT:      -3.2      1.997      2.830
REMARK  Name = 971_OxalicAcid.pdbqt.pdb
REMARK  3 active torsions:
REMARK  status: ('A' for Active; 'I' for Inactive)
REMARK    1  A    between atoms: C_2  and  O_3
REMARK    2  A    between atoms: C_2  and  C_6
REMARK    3  A    between atoms: C_6  and  O_7
REMARK                            x       y       z     vdW  Elec       q    Type
REMARK                         _______ _______ _______ _____ _____    ______ ____
ROOT
ATOM      1  O   UNL     1      61.358  37.255  57.248  0.00  0.00    +0.000 OA
ATOM      2  C   UNL     1      62.455  37.540  56.811  0.00  0.00    +0.000 C 
ENDROOT
BRANCH   2   3
ATOM      3  O   UNL     1      63.534  37.620  57.602  0.00  0.00    +0.000 OA
ATOM      4  H   UNL     1      63.476  36.830  58.177  0.00  0.00    +0.000 HD
ENDBRANCH   2   3
BRANCH   2   6
ATOM      5  O   UNL     1      61.960  38.095  54.455  0.00  0.00    +0.000 OA
ATOM      6  C   UNL     1      62.780  37.849  55.317  0.00  0.00    +0.000 C 
BRANCH   6   7
ATOM      7  O   UNL     1      64.095  37.817  55.057  0.00  0.00    +0.000 OA
ATOM      8  H   UNL     1      64.206  38.410  54.287  0.00  0.00    +0.000 HD
ENDBRANCH   6   7
ENDBRANCH   2   6
TORSDOF 3
ENDMDL
MODEL 5
REMARK VINA RESULT:      -3.2     28.941     29.380
REMARK  Name = 971_OxalicAcid.pdbqt.pdb
REMARK  3 active torsions:
REMARK  status: ('A' for Active; 'I' for Inactive)
REMARK    1  A    between atoms: C_2  and  O_3
REMARK    2  A    between atoms: C_2  and  C_6
REMARK    3  A    between atoms: C_6  and  O_7
REMARK                            x       y       z     vdW  Elec       q    Type
REMARK                         _______ _______ _______ _____ _____    ______ ____
ROOT
ATOM      1  O   UNL     1      49.909  48.202  80.784  0.00  0.00    +0.000 OA
ATOM      2  C   UNL     1      50.259  48.157  81.947  0.00  0.00    +0.000 C 
ENDROOT
BRANCH   2   3
ATOM      3  O   UNL     1      49.891  49.091  82.835  0.00  0.00    +0.000 OA
ATOM      4  H   UNL     1      50.332  49.908  82.528  0.00  0.00    +0.000 HD
ENDBRANCH   2   3
BRANCH   2   6
ATOM      5  O   UNL     1      51.975  47.223  83.460  0.00  0.00    +0.000 OA
ATOM      6  C   UNL     1      51.158  47.049  82.577  0.00  0.00    +0.000 C 
BRANCH   6   7
ATOM      7  O   UNL     1      50.943  45.840  82.039  0.00  0.00    +0.000 OA
ATOM      8  H   UNL     1      51.614  45.263  82.457  0.00  0.00    +0.000 HD
ENDBRANCH   6   7
ENDBRANCH   2   6
TORSDOF 3
ENDMDL
MODEL 6
REMARK VINA RESULT:      -3.1     53.064     54.218
REMARK  Name = 971_OxalicAcid.pdbqt.pdb
REMARK  3 active torsions:
REMARK  status: ('A' for Active; 'I' for Inactive)
REMARK    1  A    between atoms: C_2  and  O_3
REMARK    2  A    between atoms: C_2  and  C_6
REMARK    3  A    between atoms: C_6  and  O_7
REMARK                            x       y       z     vdW  Elec       q    Type
REMARK                         _______ _______ _______ _____ _____    ______ ____
ROOT
ATOM      1  O   UNL     1      71.569  85.100  85.673  0.00  0.00    +0.000 OA
ATOM      2  C   UNL     1      71.053  84.030  85.412  0.00  0.00    +0.000 C 
ENDROOT
BRANCH   2   3
ATOM      3  O   UNL     1      70.973  83.043  86.316  0.00  0.00    +0.000 OA
ATOM      4  H   UNL     1      70.091  83.157  86.724  0.00  0.00    +0.000 HD
ENDBRANCH   2   3
BRANCH   2   6
ATOM      5  O   UNL     1      70.422  84.338  83.043  0.00  0.00    +0.000 OA
ATOM      6  C   UNL     1      70.423  83.642  84.039  0.00  0.00    +0.000 C 
BRANCH   6   7
ATOM      7  O   UNL     1      69.860  82.426  84.054  0.00  0.00    +0.000 OA
ATOM      8  H   UNL     1      69.402  82.357  83.192  0.00  0.00    +0.000 HD
ENDBRANCH   6   7
ENDBRANCH   2   6
TORSDOF 3
ENDMDL
MODEL 7
REMARK VINA RESULT:      -3.0     11.786     12.583
REMARK  Name = 971_OxalicAcid.pdbqt.pdb
REMARK  3 active torsions:
REMARK  status: ('A' for Active; 'I' for Inactive)
REMARK    1  A    between atoms: C_2  and  O_3
REMARK    2  A    between atoms: C_2  and  C_6
REMARK    3  A    between atoms: C_6  and  O_7
REMARK                            x       y       z     vdW  Elec       q    Type
REMARK                         _______ _______ _______ _____ _____    ______ ____
ROOT
ATOM      1  O   UNL     1      61.708  39.635  67.343  0.00  0.00    +0.000 OA
ATOM      2  C   UNL     1      61.937  40.643  67.983  0.00  0.00    +0.000 C 
ENDROOT
BRANCH   2   3
ATOM      3  O   UNL     1      61.603  41.860  67.532  0.00  0.00    +0.000 OA
ATOM      4  H   UNL     1      62.258  42.050  66.831  0.00  0.00    +0.000 HD
ENDBRANCH   2   3
BRANCH   2   6
ATOM      5  O   UNL     1      62.756  39.742  70.134  0.00  0.00    +0.000 OA
ATOM      6  C   UNL     1      62.630  40.687  69.380  0.00  0.00    +0.000 C 
BRANCH   6   7
ATOM      7  O   UNL     1      63.093  41.907  69.689  0.00  0.00    +0.000 OA
ATOM      8  H   UNL     1      62.967  41.978  70.656  0.00  0.00    +0.000 HD
ENDBRANCH   6   7
ENDBRANCH   2   6
TORSDOF 3
ENDMDL
MODEL 8
REMARK VINA RESULT:      -3.0      9.745     10.097
REMARK  Name = 971_OxalicAcid.pdbqt.pdb
REMARK  3 active torsions:
REMARK  status: ('A' for Active; 'I' for Inactive)
REMARK    1  A    between atoms: C_2  and  O_3
REMARK    2  A    between atoms: C_2  and  C_6
REMARK    3  A    between atoms: C_6  and  O_7
REMARK                            x       y       z     vdW  Elec       q    Type
REMARK                         _______ _______ _______ _____ _____    ______ ____
ROOT
ATOM      1  O   UNL     1      52.170  36.057  59.501  0.00  0.00    +0.000 OA
ATOM      2  C   UNL     1      51.919  36.648  58.470  0.00  0.00    +0.000 C 
ENDROOT
BRANCH   2   3
ATOM      3  O   UNL     1      51.911  37.987  58.404  0.00  0.00    +0.000 OA
ATOM      4  H   UNL     1      52.827  38.226  58.161  0.00  0.00    +0.000 HD
ENDBRANCH   2   3
BRANCH   2   6
ATOM      5  O   UNL     1      51.764  34.808  56.827  0.00  0.00    +0.000 OA
ATOM      6  C   UNL     1      51.578  35.977  57.103  0.00  0.00    +0.000 C 
BRANCH   6   7
ATOM      7  O   UNL     1      51.042  36.836  56.225  0.00  0.00    +0.000 OA
ATOM      8  H   UNL     1      50.197  36.420  55.961  0.00  0.00    +0.000 HD
ENDBRANCH   6   7
ENDBRANCH   2   6
TORSDOF 3
ENDMDL
MODEL 9
REMARK VINA RESULT:      -2.9     21.005     21.431
REMARK  Name = 971_OxalicAcid.pdbqt.pdb
REMARK  3 active torsions:
REMARK  status: ('A' for Active; 'I' for Inactive)
REMARK    1  A    between atoms: C_2  and  O_3
REMARK    2  A    between atoms: C_2  and  C_6
REMARK    3  A    between atoms: C_6  and  O_7
REMARK                            x       y       z     vdW  Elec       q    Type
REMARK                         _______ _______ _______ _____ _____    ______ ____
ROOT
ATOM      1  O   UNL     1      44.352  43.369  70.139  0.00  0.00    +0.000 OA
ATOM      2  C   UNL     1      45.122  44.299  70.272  0.00  0.00    +0.000 C 
ENDROOT
BRANCH   2   3
ATOM      3  O   UNL     1      44.728  45.479  70.771  0.00  0.00    +0.000 OA
ATOM      4  H   UNL     1      44.865  46.113  70.039  0.00  0.00    +0.000 HD
ENDBRANCH   2   3
BRANCH   2   6
ATOM      5  O   UNL     1      47.456  43.486  70.324  0.00  0.00    +0.000 OA
ATOM      6  C   UNL     1      46.637  44.279  69.900  0.00  0.00    +0.000 C 
BRANCH   6   7
ATOM      7  O   UNL     1      46.971  45.251  69.039  0.00  0.00    +0.000 OA
ATOM      8  H   UNL     1      47.922  45.104  68.861  0.00  0.00    +0.000 HD
ENDBRANCH   6   7
ENDBRANCH   2   6
TORSDOF 3
ENDMDL
