MODEL 1
REMARK VINA RESULT:      -6.8      0.000      0.000
REMARK  Name = 9852185_GambogicAcid.pdbqt.pdb
REMARK  10 active torsions:
REMARK  status: ('A' for Active; 'I' for Inactive)
REMARK    1  A    between atoms: C_8  and  C_30
REMARK    2  A    between atoms: C_20  and  C_38
REMARK    3  A    between atoms: C_21  and  O_28
REMARK    4  A    between atoms: C_25  and  C_43
REMARK    5  A    between atoms: C_31  and  C_32
REMARK    6  A    between atoms: C_32  and  C_35
REMARK    7  A    between atoms: C_35  and  O_36
REMARK    8  A    between atoms: C_39  and  C_40
REMARK    9  A    between atoms: C_43  and  C_44
REMARK   10  A    between atoms: C_45  and  C_46
REMARK                            x       y       z     vdW  Elec       q    Type
REMARK                         _______ _______ _______ _____ _____    ______ ____
ROOT
ATOM      1  O   UNL     1      64.829  75.269  97.630  0.00  0.00    +0.000 OA
ATOM      2  O   UNL     1      63.658  76.516  95.312  0.00  0.00    +0.000 OA
ATOM      3  O   UNL     1      67.027  77.191  98.875  0.00  0.00    +0.000 OA
ATOM      4  O   UNL     1      65.774  79.442  93.334  0.00  0.00    +0.000 OA
ATOM      5  O   UNL     1      60.352  76.343  91.902  0.00  0.00    +0.000 OA
ATOM      6  C   UNL     1      64.994  76.734  95.745  0.00  0.00    +0.000 C 
ATOM      7  C   UNL     1      65.913  75.479  95.533  0.00  0.00    +0.000 C 
ATOM      8  C   UNL     1      65.113  76.642  97.319  0.00  0.00    +0.000 C 
ATOM      9  C   UNL     1      65.333  74.479  96.539  0.00  0.00    +0.000 C 
ATOM     10  C   UNL     1      67.293  75.923  95.738  0.00  0.00    +0.000 C 
ATOM     11  C   UNL     1      67.531  77.145  96.486  0.00  0.00    +0.000 C 
ATOM     12  C   UNL     1      65.620  78.036  95.217  0.00  0.00    +0.000 C 
ATOM     13  C   UNL     1      66.615  77.032  97.737  0.00  0.00    +0.000 C 
ATOM     14  C   UNL     1      66.953  78.206  95.702  0.00  0.00    +0.000 C 
ATOM     15  C   UNL     1      66.404  73.528  97.092  0.00  0.00    +0.000 C 
ATOM     16  C   UNL     1      64.187  73.684  95.894  0.00  0.00    +0.000 C 
ATOM     17  C   UNL     1      65.161  78.571  93.936  0.00  0.00    +0.000 C 
ATOM     18  C   UNL     1      63.251  76.996  94.097  0.00  0.00    +0.000 A 
ATOM     19  C   UNL     1      63.932  77.990  93.380  0.00  0.00    +0.000 A 
ATOM     20  C   UNL     1      62.045  76.463  93.591  0.00  0.00    +0.000 A 
ATOM     21  C   UNL     1      63.439  78.441  92.144  0.00  0.00    +0.000 A 
ATOM     22  C   UNL     1      61.543  76.909  92.363  0.00  0.00    +0.000 A 
ATOM     23  C   UNL     1      62.258  77.901  91.645  0.00  0.00    +0.000 A 
ATOM     24  C   UNL     1      61.645  78.273  90.423  0.00  0.00    +0.000 C 
ATOM     25  C   UNL     1      59.728  76.825  90.647  0.00  0.00    +0.000 C 
ATOM     26  C   UNL     1      60.611  77.822  90.040  0.00  0.00    +0.000 C 
ATOM     27  C   UNL     1      58.352  77.422  91.034  0.00  0.00    +0.000 C 
ENDROOT
BRANCH  21  28
ATOM     28  O   UNL     1      64.073  79.400  91.399  0.00  0.00    +0.000 OA
ATOM     29  H   UNL     1      64.417  80.108  91.989  0.00  0.00    +0.000 HD
ENDBRANCH  21  28
BRANCH   8  30
ATOM     30  C   UNL     1      64.146  77.509  98.006  0.00  0.00    +0.000 C 
ATOM     31  C   UNL     1      63.130  78.445  98.680  0.00  0.00    +0.000 C 
BRANCH  31  32
ATOM     32  C   UNL     1      62.285  79.279  99.215  0.00  0.00    +0.000 C 
ATOM     33  C   UNL     1      62.000  79.043 100.686  0.00  0.00    +0.000 C 
BRANCH  32  35
ATOM     34  O   UNL     1      62.108  81.518  98.327  0.00  0.00    +0.000 OA
ATOM     35  C   UNL     1      61.690  80.372  98.399  0.00  0.00    +0.000 C 
BRANCH  35  36
ATOM     36  O   UNL     1      60.595  80.009  97.697  0.00  0.00    +0.000 OA
ATOM     37  H   UNL     1      59.848  80.477  98.126  0.00  0.00    +0.000 HD
ENDBRANCH  35  36
ENDBRANCH  32  35
ENDBRANCH  31  32
ENDBRANCH   8  30
BRANCH  20  38
ATOM     38  C   UNL     1      61.338  75.460  94.333  0.00  0.00    +0.000 C 
ATOM     39  C   UNL     1      60.561  74.383  95.104  0.00  0.00    +0.000 C 
BRANCH  39  40
ATOM     40  C   UNL     1      59.896  73.468  95.738  0.00  0.00    +0.000 C 
ATOM     41  C   UNL     1      58.636  72.925  95.134  0.00  0.00    +0.000 C 
ATOM     42  C   UNL     1      60.508  72.792  96.926  0.00  0.00    +0.000 C 
ENDBRANCH  39  40
ENDBRANCH  20  38
BRANCH  25  43
ATOM     43  C   UNL     1      59.555  75.648  89.774  0.00  0.00    +0.000 C 
BRANCH  43  44
ATOM     44  C   UNL     1      59.379  74.420  88.871  0.00  0.00    +0.000 C 
ATOM     45  C   UNL     1      59.202  73.192  87.967  0.00  0.00    +0.000 C 
BRANCH  45  46
ATOM     46  C   UNL     1      59.045  72.155  87.205  0.00  0.00    +0.000 C 
ATOM     47  C   UNL     1      58.207  72.266  85.968  0.00  0.00    +0.000 C 
ATOM     48  C   UNL     1      59.545  70.816  87.650  0.00  0.00    +0.000 C 
ENDBRANCH  45  46
ENDBRANCH  43  44
ENDBRANCH  25  43
TORSDOF 10
ENDMDL
MODEL 2
REMARK VINA RESULT:      -6.3     49.642     56.347
REMARK  Name = 9852185_GambogicAcid.pdbqt.pdb
REMARK  10 active torsions:
REMARK  status: ('A' for Active; 'I' for Inactive)
REMARK    1  A    between atoms: C_8  and  C_30
REMARK    2  A    between atoms: C_20  and  C_38
REMARK    3  A    between atoms: C_21  and  O_28
REMARK    4  A    between atoms: C_25  and  C_43
REMARK    5  A    between atoms: C_31  and  C_32
REMARK    6  A    between atoms: C_32  and  C_35
REMARK    7  A    between atoms: C_35  and  O_36
REMARK    8  A    between atoms: C_39  and  C_40
REMARK    9  A    between atoms: C_43  and  C_44
REMARK   10  A    between atoms: C_45  and  C_46
REMARK                            x       y       z     vdW  Elec       q    Type
REMARK                         _______ _______ _______ _____ _____    ______ ____
ROOT
ATOM      1  O   UNL     1      65.855  34.808  52.840  0.00  0.00    +0.000 OA
ATOM      2  O   UNL     1      64.283  37.116  53.544  0.00  0.00    +0.000 OA
ATOM      3  O   UNL     1      64.327  32.169  53.723  0.00  0.00    +0.000 OA
ATOM      4  O   UNL     1      61.476  36.784  56.538  0.00  0.00    +0.000 OA
ATOM      5  O   UNL     1      63.764  41.835  53.328  0.00  0.00    +0.000 OA
ATOM      6  C   UNL     1      64.265  35.890  54.263  0.00  0.00    +0.000 C 
ATOM      7  C   UNL     1      65.601  35.628  55.048  0.00  0.00    +0.000 C 
ATOM      8  C   UNL     1      64.505  34.655  53.306  0.00  0.00    +0.000 C 
ATOM      9  C   UNL     1      66.605  35.403  53.912  0.00  0.00    +0.000 C 
ATOM     10  C   UNL     1      65.346  34.511  55.959  0.00  0.00    +0.000 C 
ATOM     11  C   UNL     1      64.229  33.624  55.683  0.00  0.00    +0.000 C 
ATOM     12  C   UNL     1      63.009  35.687  55.127  0.00  0.00    +0.000 C 
ATOM     13  C   UNL     1      64.337  33.308  54.164  0.00  0.00    +0.000 C 
ATOM     14  C   UNL     1      63.044  34.431  55.807  0.00  0.00    +0.000 C 
ATOM     15  C   UNL     1      67.722  34.429  54.314  0.00  0.00    +0.000 C 
ATOM     16  C   UNL     1      67.198  36.746  53.456  0.00  0.00    +0.000 C 
ATOM     17  C   UNL     1      62.315  36.862  55.651  0.00  0.00    +0.000 C 
ATOM     18  C   UNL     1      63.656  38.217  54.062  0.00  0.00    +0.000 A 
ATOM     19  C   UNL     1      62.694  38.161  55.081  0.00  0.00    +0.000 A 
ATOM     20  C   UNL     1      63.994  39.457  53.478  0.00  0.00    +0.000 A 
ATOM     21  C   UNL     1      62.082  39.337  55.548  0.00  0.00    +0.000 A 
ATOM     22  C   UNL     1      63.387  40.633  53.932  0.00  0.00    +0.000 A 
ATOM     23  C   UNL     1      62.431  40.557  54.976  0.00  0.00    +0.000 A 
ATOM     24  C   UNL     1      61.885  41.813  55.342  0.00  0.00    +0.000 C 
ATOM     25  C   UNL     1      63.104  43.107  53.711  0.00  0.00    +0.000 C 
ATOM     26  C   UNL     1      62.173  42.838  54.807  0.00  0.00    +0.000 C 
ATOM     27  C   UNL     1      62.380  43.631  52.446  0.00  0.00    +0.000 C 
ENDROOT
BRANCH  21  28
ATOM     28  O   UNL     1      61.148  39.339  56.549  0.00  0.00    +0.000 OA
ATOM     29  H   UNL     1      61.468  38.800  57.306  0.00  0.00    +0.000 HD
ENDBRANCH  21  28
BRANCH   8  30
ATOM     30  C   UNL     1      63.590  34.651  52.156  0.00  0.00    +0.000 C 
ATOM     31  C   UNL     1      62.642  34.700  50.948  0.00  0.00    +0.000 C 
BRANCH  31  32
ATOM     32  C   UNL     1      61.831  34.797  49.933  0.00  0.00    +0.000 C 
ATOM     33  C   UNL     1      61.902  33.644  48.948  0.00  0.00    +0.000 C 
BRANCH  32  35
ATOM     34  O   UNL     1      59.874  35.990  49.173  0.00  0.00    +0.000 OA
ATOM     35  C   UNL     1      60.915  35.964  49.812  0.00  0.00    +0.000 C 
BRANCH  35  36
ATOM     36  O   UNL     1      61.321  37.060  50.487  0.00  0.00    +0.000 OA
ATOM     37  H   UNL     1      60.677  37.163  51.219  0.00  0.00    +0.000 HD
ENDBRANCH  35  36
ENDBRANCH  32  35
ENDBRANCH  31  32
ENDBRANCH   8  30
BRANCH  20  38
ATOM     38  C   UNL     1      64.963  39.511  52.422  0.00  0.00    +0.000 C 
ATOM     39  C   UNL     1      66.023  39.569  51.313  0.00  0.00    +0.000 C 
BRANCH  39  40
ATOM     40  C   UNL     1      66.933  39.615  50.390  0.00  0.00    +0.000 C 
ATOM     41  C   UNL     1      67.352  38.348  49.708  0.00  0.00    +0.000 C 
ATOM     42  C   UNL     1      67.375  40.939  49.847  0.00  0.00    +0.000 C 
ENDBRANCH  39  40
ENDBRANCH  20  38
BRANCH  25  43
ATOM     43  C   UNL     1      64.173  44.038  54.120  0.00  0.00    +0.000 C 
BRANCH  43  44
ATOM     44  C   UNL     1      65.287  45.005  54.538  0.00  0.00    +0.000 C 
ATOM     45  C   UNL     1      66.405  45.971  54.958  0.00  0.00    +0.000 C 
BRANCH  45  46
ATOM     46  C   UNL     1      67.346  46.785  55.319  0.00  0.00    +0.000 C 
ATOM     47  C   UNL     1      67.722  47.926  54.424  0.00  0.00    +0.000 C 
ATOM     48  C   UNL     1      68.172  46.485  56.532  0.00  0.00    +0.000 C 
ENDBRANCH  45  46
ENDBRANCH  43  44
ENDBRANCH  25  43
TORSDOF 10
ENDMDL
MODEL 3
REMARK VINA RESULT:      -6.2     53.159     57.547
REMARK  Name = 9852185_GambogicAcid.pdbqt.pdb
REMARK  10 active torsions:
REMARK  status: ('A' for Active; 'I' for Inactive)
REMARK    1  A    between atoms: C_8  and  C_30
REMARK    2  A    between atoms: C_20  and  C_38
REMARK    3  A    between atoms: C_21  and  O_28
REMARK    4  A    between atoms: C_25  and  C_43
REMARK    5  A    between atoms: C_31  and  C_32
REMARK    6  A    between atoms: C_32  and  C_35
REMARK    7  A    between atoms: C_35  and  O_36
REMARK    8  A    between atoms: C_39  and  C_40
REMARK    9  A    between atoms: C_43  and  C_44
REMARK   10  A    between atoms: C_45  and  C_46
REMARK                            x       y       z     vdW  Elec       q    Type
REMARK                         _______ _______ _______ _____ _____    ______ ____
ROOT
ATOM      1  O   UNL     1      51.554  32.546  62.768  0.00  0.00    +0.000 OA
ATOM      2  O   UNL     1      51.806  33.074  59.948  0.00  0.00    +0.000 OA
ATOM      3  O   UNL     1      49.254  34.360  63.989  0.00  0.00    +0.000 OA
ATOM      4  O   UNL     1      50.454  36.667  58.460  0.00  0.00    +0.000 OA
ATOM      5  O   UNL     1      53.856  31.923  55.818  0.00  0.00    +0.000 OA
ATOM      6  C   UNL     1      51.377  34.035  60.903  0.00  0.00    +0.000 C 
ATOM      7  C   UNL     1      52.535  34.501  61.857  0.00  0.00    +0.000 C 
ATOM      8  C   UNL     1      50.582  33.356  62.089  0.00  0.00    +0.000 C 
ATOM      9  C   UNL     1      52.814  33.233  62.672  0.00  0.00    +0.000 C 
ATOM     10  C   UNL     1      52.045  35.677  62.578  0.00  0.00    +0.000 C 
ATOM     11  C   UNL     1      50.612  35.897  62.664  0.00  0.00    +0.000 C 
ATOM     12  C   UNL     1      50.583  35.207  60.302  0.00  0.00    +0.000 C 
ATOM     13  C   UNL     1      50.018  34.513  63.050  0.00  0.00    +0.000 C 
ATOM     14  C   UNL     1      50.166  36.125  61.314  0.00  0.00    +0.000 C 
ATOM     15  C   UNL     1      53.293  33.555  64.095  0.00  0.00    +0.000 C 
ATOM     16  C   UNL     1      53.839  32.350  61.944  0.00  0.00    +0.000 C 
ATOM     17  C   UNL     1      50.849  35.605  58.921  0.00  0.00    +0.000 C 
ATOM     18  C   UNL     1      52.082  33.467  58.666  0.00  0.00    +0.000 A 
ATOM     19  C   UNL     1      51.648  34.678  58.109  0.00  0.00    +0.000 A 
ATOM     20  C   UNL     1      52.812  32.550  57.879  0.00  0.00    +0.000 A 
ATOM     21  C   UNL     1      51.958  35.001  56.778  0.00  0.00    +0.000 A 
ATOM     22  C   UNL     1      53.122  32.860  56.551  0.00  0.00    +0.000 A 
ATOM     23  C   UNL     1      52.690  34.098  56.012  0.00  0.00    +0.000 A 
ATOM     24  C   UNL     1      53.061  34.292  54.658  0.00  0.00    +0.000 C 
ATOM     25  C   UNL     1      54.153  32.157  54.384  0.00  0.00    +0.000 C 
ATOM     26  C   UNL     1      53.654  33.483  54.014  0.00  0.00    +0.000 C 
ATOM     27  C   UNL     1      53.448  31.028  53.593  0.00  0.00    +0.000 C 
ENDROOT
BRANCH  21  28
ATOM     28  O   UNL     1      51.570  36.176  56.190  0.00  0.00    +0.000 OA
ATOM     29  H   UNL     1      52.027  36.932  56.621  0.00  0.00    +0.000 HD
ENDBRANCH  21  28
BRANCH   8  30
ATOM     30  C   UNL     1      49.484  32.503  61.612  0.00  0.00    +0.000 C 
ATOM     31  C   UNL     1      48.350  31.625  61.061  0.00  0.00    +0.000 C 
BRANCH  31  32
ATOM     32  C   UNL     1      47.385  30.914  60.549  0.00  0.00    +0.000 C 
ATOM     33  C   UNL     1      47.360  29.462  60.990  0.00  0.00    +0.000 C 
BRANCH  32  35
ATOM     34  O   UNL     1      45.200  31.625  59.809  0.00  0.00    +0.000 OA
ATOM     35  C   UNL     1      46.404  31.538  59.620  0.00  0.00    +0.000 C 
BRANCH  35  36
ATOM     36  O   UNL     1      46.948  32.034  58.489  0.00  0.00    +0.000 OA
ATOM     37  H   UNL     1      47.416  32.850  58.766  0.00  0.00    +0.000 HD
ENDBRANCH  35  36
ENDBRANCH  32  35
ENDBRANCH  31  32
ENDBRANCH   8  30
BRANCH  20  38
ATOM     38  C   UNL     1      53.238  31.302  58.443  0.00  0.00    +0.000 C 
ATOM     39  C   UNL     1      53.718  29.981  59.063  0.00  0.00    +0.000 C 
BRANCH  39  40
ATOM     40  C   UNL     1      54.135  28.877  59.600  0.00  0.00    +0.000 C 
ATOM     41  C   UNL     1      55.382  28.889  60.431  0.00  0.00    +0.000 C 
ATOM     42  C   UNL     1      53.251  27.668  59.594  0.00  0.00    +0.000 C 
ENDBRANCH  39  40
ENDBRANCH  20  38
BRANCH  25  43
ATOM     43  C   UNL     1      55.617  32.064  54.228  0.00  0.00    +0.000 C 
BRANCH  43  44
ATOM     44  C   UNL     1      57.138  31.959  54.065  0.00  0.00    +0.000 C 
ATOM     45  C   UNL     1      58.661  31.855  53.899  0.00  0.00    +0.000 C 
BRANCH  45  46
ATOM     46  C   UNL     1      59.946  31.765  53.753  0.00  0.00    +0.000 C 
ATOM     47  C   UNL     1      60.843  32.010  54.927  0.00  0.00    +0.000 C 
ATOM     48  C   UNL     1      60.534  31.594  52.387  0.00  0.00    +0.000 C 
ENDBRANCH  45  46
ENDBRANCH  43  44
ENDBRANCH  25  43
TORSDOF 10
ENDMDL
MODEL 4
REMARK VINA RESULT:      -6.1     54.686     59.449
REMARK  Name = 9852185_GambogicAcid.pdbqt.pdb
REMARK  10 active torsions:
REMARK  status: ('A' for Active; 'I' for Inactive)
REMARK    1  A    between atoms: C_8  and  C_30
REMARK    2  A    between atoms: C_20  and  C_38
REMARK    3  A    between atoms: C_21  and  O_28
REMARK    4  A    between atoms: C_25  and  C_43
REMARK    5  A    between atoms: C_31  and  C_32
REMARK    6  A    between atoms: C_32  and  C_35
REMARK    7  A    between atoms: C_35  and  O_36
REMARK    8  A    between atoms: C_39  and  C_40
REMARK    9  A    between atoms: C_43  and  C_44
REMARK   10  A    between atoms: C_45  and  C_46
REMARK                            x       y       z     vdW  Elec       q    Type
REMARK                         _______ _______ _______ _____ _____    ______ ____
ROOT
ATOM      1  O   UNL     1      55.628  28.318  55.456  0.00  0.00    +0.000 OA
ATOM      2  O   UNL     1      54.526  30.886  56.154  0.00  0.00    +0.000 OA
ATOM      3  O   UNL     1      57.319  28.576  52.783  0.00  0.00    +0.000 OA
ATOM      4  O   UNL     1      54.057  33.725  53.209  0.00  0.00    +0.000 OA
ATOM      5  O   UNL     1      52.114  33.494  59.310  0.00  0.00    +0.000 OA
ATOM      6  C   UNL     1      54.788  30.467  54.822  0.00  0.00    +0.000 C 
ATOM      7  C   UNL     1      53.807  29.340  54.337  0.00  0.00    +0.000 C 
ATOM      8  C   UNL     1      56.038  29.501  54.754  0.00  0.00    +0.000 C 
ATOM      9  C   UNL     1      54.220  28.151  55.211  0.00  0.00    +0.000 C 
ATOM     10  C   UNL     1      53.987  29.212  52.890  0.00  0.00    +0.000 C 
ATOM     11  C   UNL     1      55.214  29.711  52.291  0.00  0.00    +0.000 C 
ATOM     12  C   UNL     1      54.924  31.621  53.814  0.00  0.00    +0.000 C 
ATOM     13  C   UNL     1      56.350  29.182  53.211  0.00  0.00    +0.000 C 
ATOM     14  C   UNL     1      55.205  31.135  52.501  0.00  0.00    +0.000 C 
ATOM     15  C   UNL     1      54.014  26.808  54.496  0.00  0.00    +0.000 C 
ATOM     16  C   UNL     1      53.450  28.179  56.540  0.00  0.00    +0.000 C 
ATOM     17  C   UNL     1      54.205  32.868  54.070  0.00  0.00    +0.000 C 
ATOM     18  C   UNL     1      53.825  32.040  56.377  0.00  0.00    +0.000 A 
ATOM     19  C   UNL     1      53.634  33.039  55.412  0.00  0.00    +0.000 A 
ATOM     20  C   UNL     1      53.317  32.215  57.683  0.00  0.00    +0.000 A 
ATOM     21  C   UNL     1      52.915  34.204  55.726  0.00  0.00    +0.000 A 
ATOM     22  C   UNL     1      52.604  33.374  58.007  0.00  0.00    +0.000 A 
ATOM     23  C   UNL     1      52.405  34.363  57.011  0.00  0.00    +0.000 A 
ATOM     24  C   UNL     1      51.675  35.490  57.463  0.00  0.00    +0.000 C 
ATOM     25  C   UNL     1      51.415  34.729  59.739  0.00  0.00    +0.000 C 
ATOM     26  C   UNL     1      51.285  35.617  58.582  0.00  0.00    +0.000 C 
ATOM     27  C   UNL     1      52.273  35.359  60.864  0.00  0.00    +0.000 C 
ENDROOT
BRANCH  21  28
ATOM     28  O   UNL     1      52.689  35.203  54.816  0.00  0.00    +0.000 OA
ATOM     29  H   UNL     1      51.992  34.924  54.180  0.00  0.00    +0.000 HD
ENDBRANCH  21  28
BRANCH   8  30
ATOM     30  C   UNL     1      57.223  30.072  55.412  0.00  0.00    +0.000 C 
ATOM     31  C   UNL     1      58.489  30.624  56.084  0.00  0.00    +0.000 C 
BRANCH  31  32
ATOM     32  C   UNL     1      59.581  31.038  56.661  0.00  0.00    +0.000 C 
ATOM     33  C   UNL     1      60.497  31.862  55.775  0.00  0.00    +0.000 C 
BRANCH  32  35
ATOM     34  O   UNL     1      59.075  30.145  58.847  0.00  0.00    +0.000 OA
ATOM     35  C   UNL     1      59.847  30.712  58.088  0.00  0.00    +0.000 C 
BRANCH  35  36
ATOM     36  O   UNL     1      61.064  31.098  58.529  0.00  0.00    +0.000 OA
ATOM     37  H   UNL     1      61.147  32.038  58.262  0.00  0.00    +0.000 HD
ENDBRANCH  35  36
ENDBRANCH  32  35
ENDBRANCH  31  32
ENDBRANCH   8  30
BRANCH  20  38
ATOM     38  C   UNL     1      53.530  31.202  58.676  0.00  0.00    +0.000 C 
ATOM     39  C   UNL     1      53.734  30.101  59.727  0.00  0.00    +0.000 C 
BRANCH  39  40
ATOM     40  C   UNL     1      53.893  29.159  60.604  0.00  0.00    +0.000 C 
ATOM     41  C   UNL     1      53.149  29.232  61.904  0.00  0.00    +0.000 C 
ATOM     42  C   UNL     1      54.612  27.902  60.222  0.00  0.00    +0.000 C 
ENDBRANCH  39  40
ENDBRANCH  20  38
BRANCH  25  43
ATOM     43  C   UNL     1      50.097  34.318  60.260  0.00  0.00    +0.000 C 
BRANCH  43  44
ATOM     44  C   UNL     1      48.730  33.884  60.804  0.00  0.00    +0.000 C 
ATOM     45  C   UNL     1      47.362  33.452  61.350  0.00  0.00    +0.000 C 
BRANCH  45  46
ATOM     46  C   UNL     1      46.210  33.086  61.818  0.00  0.00    +0.000 C 
ATOM     47  C   UNL     1      46.042  32.881  63.292  0.00  0.00    +0.000 C 
ATOM     48  C   UNL     1      45.109  32.698  60.880  0.00  0.00    +0.000 C 
ENDBRANCH  45  46
ENDBRANCH  43  44
ENDBRANCH  25  43
TORSDOF 10
ENDMDL
MODEL 5
REMARK VINA RESULT:      -6.0     33.234     38.885
REMARK  Name = 9852185_GambogicAcid.pdbqt.pdb
REMARK  10 active torsions:
REMARK  status: ('A' for Active; 'I' for Inactive)
REMARK    1  A    between atoms: C_8  and  C_30
REMARK    2  A    between atoms: C_20  and  C_38
REMARK    3  A    between atoms: C_21  and  O_28
REMARK    4  A    between atoms: C_25  and  C_43
REMARK    5  A    between atoms: C_31  and  C_32
REMARK    6  A    between atoms: C_32  and  C_35
REMARK    7  A    between atoms: C_35  and  O_36
REMARK    8  A    between atoms: C_39  and  C_40
REMARK    9  A    between atoms: C_43  and  C_44
REMARK   10  A    between atoms: C_45  and  C_46
REMARK                            x       y       z     vdW  Elec       q    Type
REMARK                         _______ _______ _______ _____ _____    ______ ____
ROOT
ATOM      1  O   UNL     1      68.470  61.963  59.248  0.00  0.00    +0.000 OA
ATOM      2  O   UNL     1      66.022  60.488  59.608  0.00  0.00    +0.000 OA
ATOM      3  O   UNL     1      67.798  64.980  58.527  0.00  0.00    +0.000 OA
ATOM      4  O   UNL     1      62.569  61.890  57.856  0.00  0.00    +0.000 OA
ATOM      5  O   UNL     1      63.947  56.399  60.857  0.00  0.00    +0.000 OA
ATOM      6  C   UNL     1      66.160  61.602  58.736  0.00  0.00    +0.000 C 
ATOM      7  C   UNL     1      67.048  61.282  57.480  0.00  0.00    +0.000 C 
ATOM      8  C   UNL     1      67.207  62.646  59.295  0.00  0.00    +0.000 C 
ATOM      9  C   UNL     1      68.435  61.095  58.102  0.00  0.00    +0.000 C 
ATOM     10  C   UNL     1      66.869  62.390  56.540  0.00  0.00    +0.000 C 
ATOM     11  C   UNL     1      66.377  63.661  57.043  0.00  0.00    +0.000 C 
ATOM     12  C   UNL     1      64.831  62.287  58.376  0.00  0.00    +0.000 C 
ATOM     13  C   UNL     1      67.208  63.930  58.329  0.00  0.00    +0.000 C 
ATOM     14  C   UNL     1      65.041  63.407  57.515  0.00  0.00    +0.000 C 
ATOM     15  C   UNL     1      69.559  61.520  57.146  0.00  0.00    +0.000 C 
ATOM     16  C   UNL     1      68.625  59.635  58.544  0.00  0.00    +0.000 C 
ATOM     17  C   UNL     1      63.606  61.490  58.369  0.00  0.00    +0.000 C 
ATOM     18  C   UNL     1      64.881  59.732  59.568  0.00  0.00    +0.000 A 
ATOM     19  C   UNL     1      63.680  60.159  58.985  0.00  0.00    +0.000 A 
ATOM     20  C   UNL     1      64.949  58.472  60.202  0.00  0.00    +0.000 A 
ATOM     21  C   UNL     1      62.547  59.329  59.000  0.00  0.00    +0.000 A 
ATOM     22  C   UNL     1      63.825  57.640  60.227  0.00  0.00    +0.000 A 
ATOM     23  C   UNL     1      62.625  58.083  59.614  0.00  0.00    +0.000 A 
ATOM     24  C   UNL     1      61.559  57.154  59.712  0.00  0.00    +0.000 C 
ATOM     25  C   UNL     1      62.774  55.502  60.984  0.00  0.00    +0.000 C 
ATOM     26  C   UNL     1      61.643  56.110  60.280  0.00  0.00    +0.000 C 
ATOM     27  C   UNL     1      62.497  55.341  62.499  0.00  0.00    +0.000 C 
ENDROOT
BRANCH  21  28
ATOM     28  O   UNL     1      61.354  59.693  58.434  0.00  0.00    +0.000 OA
ATOM     29  H   UNL     1      61.325  60.669  58.314  0.00  0.00    +0.000 HD
ENDBRANCH  21  28
BRANCH   8  30
ATOM     30  C   UNL     1      66.918  63.044  60.680  0.00  0.00    +0.000 C 
ATOM     31  C   UNL     1      66.570  63.430  62.126  0.00  0.00    +0.000 C 
BRANCH  31  32
ATOM     32  C   UNL     1      66.220  63.748  63.340  0.00  0.00    +0.000 C 
ATOM     33  C   UNL     1      65.398  65.018  63.453  0.00  0.00    +0.000 C 
BRANCH  32  35
ATOM     34  O   UNL     1      67.692  62.901  65.056  0.00  0.00    +0.000 OA
ATOM     35  C   UNL     1      66.612  62.883  64.485  0.00  0.00    +0.000 C 
BRANCH  35  36
ATOM     36  O   UNL     1      65.650  62.025  64.888  0.00  0.00    +0.000 OA
ATOM     37  H   UNL     1      65.992  61.134  64.664  0.00  0.00    +0.000 HD
ENDBRANCH  35  36
ENDBRANCH  32  35
ENDBRANCH  31  32
ENDBRANCH   8  30
BRANCH  20  38
ATOM     38  C   UNL     1      66.173  58.044  60.816  0.00  0.00    +0.000 C 
ATOM     39  C   UNL     1      67.496  57.583  61.445  0.00  0.00    +0.000 C 
BRANCH  39  40
ATOM     40  C   UNL     1      68.622  57.197  61.958  0.00  0.00    +0.000 C 
ATOM     41  C   UNL     1      69.192  57.942  63.127  0.00  0.00    +0.000 C 
ATOM     42  C   UNL     1      69.214  55.884  61.546  0.00  0.00    +0.000 C 
ENDBRANCH  39  40
ENDBRANCH  20  38
BRANCH  25  43
ATOM     43  C   UNL     1      63.155  54.208  60.386  0.00  0.00    +0.000 C 
BRANCH  43  44
ATOM     44  C   UNL     1      63.549  52.860  59.771  0.00  0.00    +0.000 C 
ATOM     45  C   UNL     1      63.944  51.510  59.154  0.00  0.00    +0.000 C 
BRANCH  45  46
ATOM     46  C   UNL     1      64.270  50.370  58.630  0.00  0.00    +0.000 C 
ATOM     47  C   UNL     1      65.531  49.689  59.067  0.00  0.00    +0.000 C 
ATOM     48  C   UNL     1      63.492  49.828  57.472  0.00  0.00    +0.000 C 
ENDBRANCH  45  46
ENDBRANCH  43  44
ENDBRANCH  25  43
TORSDOF 10
ENDMDL
MODEL 6
REMARK VINA RESULT:      -5.9     18.970     21.867
REMARK  Name = 9852185_GambogicAcid.pdbqt.pdb
REMARK  10 active torsions:
REMARK  status: ('A' for Active; 'I' for Inactive)
REMARK    1  A    between atoms: C_8  and  C_30
REMARK    2  A    between atoms: C_20  and  C_38
REMARK    3  A    between atoms: C_21  and  O_28
REMARK    4  A    between atoms: C_25  and  C_43
REMARK    5  A    between atoms: C_31  and  C_32
REMARK    6  A    between atoms: C_32  and  C_35
REMARK    7  A    between atoms: C_35  and  O_36
REMARK    8  A    between atoms: C_39  and  C_40
REMARK    9  A    between atoms: C_43  and  C_44
REMARK   10  A    between atoms: C_45  and  C_46
REMARK                            x       y       z     vdW  Elec       q    Type
REMARK                         _______ _______ _______ _____ _____    ______ ____
ROOT
ATOM      1  O   UNL     1      77.324  84.743  83.525  0.00  0.00    +0.000 OA
ATOM      2  O   UNL     1      77.564  82.533  81.694  0.00  0.00    +0.000 OA
ATOM      3  O   UNL     1      77.454  83.672  86.510  0.00  0.00    +0.000 OA
ATOM      4  O   UNL     1      76.598  78.748  82.994  0.00  0.00    +0.000 OA
ATOM      5  O   UNL     1      77.969  81.082  77.187  0.00  0.00    +0.000 OA
ATOM      6  C   UNL     1      76.988  82.436  82.989  0.00  0.00    +0.000 C 
ATOM      7  C   UNL     1      75.604  83.171  83.095  0.00  0.00    +0.000 C 
ATOM      8  C   UNL     1      77.674  83.436  84.004  0.00  0.00    +0.000 C 
ATOM      9  C   UNL     1      76.008  84.643  82.954  0.00  0.00    +0.000 C 
ATOM     10  C   UNL     1      74.995  82.753  84.358  0.00  0.00    +0.000 C 
ATOM     11  C   UNL     1      75.849  82.206  85.398  0.00  0.00    +0.000 C 
ATOM     12  C   UNL     1      76.955  81.006  83.556  0.00  0.00    +0.000 C 
ATOM     13  C   UNL     1      77.065  83.172  85.467  0.00  0.00    +0.000 C 
ATOM     14  C   UNL     1      76.383  80.979  84.865  0.00  0.00    +0.000 C 
ATOM     15  C   UNL     1      75.074  85.576  83.737  0.00  0.00    +0.000 C 
ATOM     16  C   UNL     1      76.048  85.041  81.470  0.00  0.00    +0.000 C 
ATOM     17  C   UNL     1      76.881  79.880  82.627  0.00  0.00    +0.000 C 
ATOM     18  C   UNL     1      77.460  81.482  80.823  0.00  0.00    +0.000 A 
ATOM     19  C   UNL     1      77.134  80.175  81.211  0.00  0.00    +0.000 A 
ATOM     20  C   UNL     1      77.748  81.766  79.470  0.00  0.00    +0.000 A 
ATOM     21  C   UNL     1      77.063  79.146  80.257  0.00  0.00    +0.000 A 
ATOM     22  C   UNL     1      77.685  80.747  78.513  0.00  0.00    +0.000 A 
ATOM     23  C   UNL     1      77.335  79.436  78.923  0.00  0.00    +0.000 A 
ATOM     24  C   UNL     1      77.311  78.495  77.864  0.00  0.00    +0.000 C 
ATOM     25  C   UNL     1      77.993  80.036  76.137  0.00  0.00    +0.000 C 
ATOM     26  C   UNL     1      77.588  78.763  76.736  0.00  0.00    +0.000 C 
ATOM     27  C   UNL     1      79.441  79.987  75.589  0.00  0.00    +0.000 C 
ENDROOT
BRANCH  21  28
ATOM     28  O   UNL     1      76.736  77.856  80.581  0.00  0.00    +0.000 OA
ATOM     29  H   UNL     1      76.829  77.279  79.790  0.00  0.00    +0.000 HD
ENDBRANCH  21  28
BRANCH   8  30
ATOM     30  C   UNL     1      79.137  83.299  84.023  0.00  0.00    +0.000 C 
ATOM     31  C   UNL     1      80.661  83.102  84.039  0.00  0.00    +0.000 C 
BRANCH  31  32
ATOM     32  C   UNL     1      81.945  82.882  84.074  0.00  0.00    +0.000 C 
ATOM     33  C   UNL     1      82.781  84.065  84.525  0.00  0.00    +0.000 C 
BRANCH  32  35
ATOM     34  O   UNL     1      83.650  81.307  83.409  0.00  0.00    +0.000 OA
ATOM     35  C   UNL     1      82.489  81.547  83.705  0.00  0.00    +0.000 C 
BRANCH  35  36
ATOM     36  O   UNL     1      81.576  80.553  83.716  0.00  0.00    +0.000 OA
ATOM     37  H   UNL     1      81.047  80.682  82.901  0.00  0.00    +0.000 HD
ENDBRANCH  35  36
ENDBRANCH  32  35
ENDBRANCH  31  32
ENDBRANCH   8  30
BRANCH  20  38
ATOM     38  C   UNL     1      78.101  83.099  79.077  0.00  0.00    +0.000 C 
ATOM     39  C   UNL     1      78.450  84.532  78.647  0.00  0.00    +0.000 C 
BRANCH  39  40
ATOM     40  C   UNL     1      78.724  85.745  78.282  0.00  0.00    +0.000 C 
ATOM     41  C   UNL     1      77.609  86.735  78.125  0.00  0.00    +0.000 C 
ATOM     42  C   UNL     1      80.147  86.211  78.260  0.00  0.00    +0.000 C 
ENDBRANCH  39  40
ENDBRANCH  20  38
BRANCH  25  43
ATOM     43  C   UNL     1      77.054  80.463  75.082  0.00  0.00    +0.000 C 
BRANCH  43  44
ATOM     44  C   UNL     1      76.073  80.911  73.992  0.00  0.00    +0.000 C 
ATOM     45  C   UNL     1      75.089  81.358  72.900  0.00  0.00    +0.000 C 
BRANCH  45  46
ATOM     46  C   UNL     1      74.261  81.729  71.975  0.00  0.00    +0.000 C 
ATOM     47  C   UNL     1      73.057  82.541  72.342  0.00  0.00    +0.000 C 
ATOM     48  C   UNL     1      74.409  81.201  70.582  0.00  0.00    +0.000 C 
ENDBRANCH  45  46
ENDBRANCH  43  44
ENDBRANCH  25  43
TORSDOF 10
ENDMDL
MODEL 7
REMARK VINA RESULT:      -5.7     54.091     58.839
REMARK  Name = 9852185_GambogicAcid.pdbqt.pdb
REMARK  10 active torsions:
REMARK  status: ('A' for Active; 'I' for Inactive)
REMARK    1  A    between atoms: C_8  and  C_30
REMARK    2  A    between atoms: C_20  and  C_38
REMARK    3  A    between atoms: C_21  and  O_28
REMARK    4  A    between atoms: C_25  and  C_43
REMARK    5  A    between atoms: C_31  and  C_32
REMARK    6  A    between atoms: C_32  and  C_35
REMARK    7  A    between atoms: C_35  and  O_36
REMARK    8  A    between atoms: C_39  and  C_40
REMARK    9  A    between atoms: C_43  and  C_44
REMARK   10  A    between atoms: C_45  and  C_46
REMARK                            x       y       z     vdW  Elec       q    Type
REMARK                         _______ _______ _______ _____ _____    ______ ____
ROOT
ATOM      1  O   UNL     1      51.117  32.521  61.461  0.00  0.00    +0.000 OA
ATOM      2  O   UNL     1      51.871  32.626  58.683  0.00  0.00    +0.000 OA
ATOM      3  O   UNL     1      49.173  34.940  62.129  0.00  0.00    +0.000 OA
ATOM      4  O   UNL     1      51.635  36.218  56.683  0.00  0.00    +0.000 OA
ATOM      5  O   UNL     1      54.130  30.545  55.057  0.00  0.00    +0.000 OA
ATOM      6  C   UNL     1      51.559  33.769  59.468  0.00  0.00    +0.000 C 
ATOM      7  C   UNL     1      52.653  34.080  60.551  0.00  0.00    +0.000 C 
ATOM      8  C   UNL     1      50.469  33.437  60.564  0.00  0.00    +0.000 C 
ATOM      9  C   UNL     1      52.506  32.893  61.509  0.00  0.00    +0.000 C 
ATOM     10  C   UNL     1      52.365  35.415  61.076  0.00  0.00    +0.000 C 
ATOM     11  C   UNL     1      51.028  35.959  60.910  0.00  0.00    +0.000 C 
ATOM     12  C   UNL     1      51.157  35.006  58.645  0.00  0.00    +0.000 C 
ATOM     13  C   UNL     1      50.073  34.801  61.315  0.00  0.00    +0.000 C 
ATOM     14  C   UNL     1      50.838  36.111  59.491  0.00  0.00    +0.000 C 
ATOM     15  C   UNL     1      52.850  33.273  62.957  0.00  0.00    +0.000 C 
ATOM     16  C   UNL     1      53.379  31.720  61.037  0.00  0.00    +0.000 C 
ATOM     17  C   UNL     1      51.697  35.160  57.295  0.00  0.00    +0.000 C 
ATOM     18  C   UNL     1      52.405  32.786  57.433  0.00  0.00    +0.000 A 
ATOM     19  C   UNL     1      52.354  33.985  56.708  0.00  0.00    +0.000 A 
ATOM     20  C   UNL     1      52.995  31.639  56.859  0.00  0.00    +0.000 A 
ATOM     21  C   UNL     1      52.912  34.063  55.421  0.00  0.00    +0.000 A 
ATOM     22  C   UNL     1      53.549  31.705  55.576  0.00  0.00    +0.000 A 
ATOM     23  C   UNL     1      53.504  32.932  54.867  0.00  0.00    +0.000 A 
ATOM     24  C   UNL     1      54.092  32.869  53.579  0.00  0.00    +0.000 C 
ATOM     25  C   UNL     1      54.668  30.528  53.675  0.00  0.00    +0.000 C 
ATOM     26  C   UNL     1      54.556  31.875  53.114  0.00  0.00    +0.000 C 
ATOM     27  C   UNL     1      53.828  29.495  52.883  0.00  0.00    +0.000 C 
ENDROOT
BRANCH  21  28
ATOM     28  O   UNL     1      52.900  35.213  54.677  0.00  0.00    +0.000 OA
ATOM     29  H   UNL     1      53.794  35.624  54.682  0.00  0.00    +0.000 HD
ENDBRANCH  21  28
BRANCH   8  30
ATOM     30  C   UNL     1      49.275  32.798  59.993  0.00  0.00    +0.000 C 
ATOM     31  C   UNL     1      48.056  32.084  59.391  0.00  0.00    +0.000 C 
BRANCH  31  32
ATOM     32  C   UNL     1      47.057  31.442  58.854  0.00  0.00    +0.000 C 
ATOM     33  C   UNL     1      45.835  31.306  59.743  0.00  0.00    +0.000 C 
BRANCH  32  35
ATOM     34  O   UNL     1      46.241  30.452  56.808  0.00  0.00    +0.000 OA
ATOM     35  C   UNL     1      47.160  30.920  57.464  0.00  0.00    +0.000 C 
BRANCH  35  36
ATOM     36  O   UNL     1      48.398  30.997  56.932  0.00  0.00    +0.000 OA
ATOM     37  H   UNL     1      48.925  30.322  57.410  0.00  0.00    +0.000 HD
ENDBRANCH  35  36
ENDBRANCH  32  35
ENDBRANCH  31  32
ENDBRANCH   8  30
BRANCH  20  38
ATOM     38  C   UNL     1      53.029  30.407  57.593  0.00  0.00    +0.000 C 
ATOM     39  C   UNL     1      53.088  29.078  58.359  0.00  0.00    +0.000 C 
BRANCH  39  40
ATOM     40  C   UNL     1      53.155  27.950  58.995  0.00  0.00    +0.000 C 
ATOM     41  C   UNL     1      52.735  26.689  58.302  0.00  0.00    +0.000 C 
ATOM     42  C   UNL     1      53.870  27.879  60.310  0.00  0.00    +0.000 C 
ENDBRANCH  39  40
ENDBRANCH  20  38
BRANCH  25  43
ATOM     43  C   UNL     1      56.074  30.091  53.767  0.00  0.00    +0.000 C 
BRANCH  43  44
ATOM     44  C   UNL     1      57.536  29.635  53.854  0.00  0.00    +0.000 C 
ATOM     45  C   UNL     1      59.000  29.180  53.943  0.00  0.00    +0.000 C 
BRANCH  45  46
ATOM     46  C   UNL     1      60.237  28.800  54.010  0.00  0.00    +0.000 C 
ATOM     47  C   UNL     1      60.891  28.647  55.349  0.00  0.00    +0.000 C 
ATOM     48  C   UNL     1      61.057  28.690  52.762  0.00  0.00    +0.000 C 
ENDBRANCH  45  46
ENDBRANCH  43  44
ENDBRANCH  25  43
TORSDOF 10
ENDMDL
MODEL 8
REMARK VINA RESULT:      -5.6     12.519     16.891
REMARK  Name = 9852185_GambogicAcid.pdbqt.pdb
REMARK  10 active torsions:
REMARK  status: ('A' for Active; 'I' for Inactive)
REMARK    1  A    between atoms: C_8  and  C_30
REMARK    2  A    between atoms: C_20  and  C_38
REMARK    3  A    between atoms: C_21  and  O_28
REMARK    4  A    between atoms: C_25  and  C_43
REMARK    5  A    between atoms: C_31  and  C_32
REMARK    6  A    between atoms: C_32  and  C_35
REMARK    7  A    between atoms: C_35  and  O_36
REMARK    8  A    between atoms: C_39  and  C_40
REMARK    9  A    between atoms: C_43  and  C_44
REMARK   10  A    between atoms: C_45  and  C_46
REMARK                            x       y       z     vdW  Elec       q    Type
REMARK                         _______ _______ _______ _____ _____    ______ ____
ROOT
ATOM      1  O   UNL     1      57.457  76.053  78.031  0.00  0.00    +0.000 OA
ATOM      2  O   UNL     1      59.246  77.813  79.443  0.00  0.00    +0.000 OA
ATOM      3  O   UNL     1      59.016  73.432  77.151  0.00  0.00    +0.000 OA
ATOM      4  O   UNL     1      63.302  77.451  78.829  0.00  0.00    +0.000 OA
ATOM      5  O   UNL     1      59.795  81.822  81.936  0.00  0.00    +0.000 OA
ATOM      6  C   UNL     1      59.655  76.912  78.423  0.00  0.00    +0.000 C 
ATOM      7  C   UNL     1      59.154  77.342  76.998  0.00  0.00    +0.000 C 
ATOM      8  C   UNL     1      58.766  75.605  78.416  0.00  0.00    +0.000 C 
ATOM      9  C   UNL     1      57.639  77.144  77.114  0.00  0.00    +0.000 C 
ATOM     10  C   UNL     1      59.874  76.517  76.027  0.00  0.00    +0.000 C 
ATOM     11  C   UNL     1      60.472  75.271  76.475  0.00  0.00    +0.000 C 
ATOM     12  C   UNL     1      61.153  76.564  78.456  0.00  0.00    +0.000 C 
ATOM     13  C   UNL     1      59.371  74.585  77.332  0.00  0.00    +0.000 C 
ATOM     14  C   UNL     1      61.495  75.642  77.419  0.00  0.00    +0.000 C 
ATOM     15  C   UNL     1      57.004  76.753  75.771  0.00  0.00    +0.000 C 
ATOM     16  C   UNL     1      56.980  78.415  77.672  0.00  0.00    +0.000 C 
ATOM     17  C   UNL     1      62.093  77.542  78.998  0.00  0.00    +0.000 C 
ATOM     18  C   UNL     1      60.128  78.745  79.920  0.00  0.00    +0.000 A 
ATOM     19  C   UNL     1      61.517  78.672  79.740  0.00  0.00    +0.000 A 
ATOM     20  C   UNL     1      59.569  79.803  80.670  0.00  0.00    +0.000 A 
ATOM     21  C   UNL     1      62.358  79.661  80.276  0.00  0.00    +0.000 A 
ATOM     22  C   UNL     1      60.399  80.791  81.212  0.00  0.00    +0.000 A 
ATOM     23  C   UNL     1      61.798  80.709  81.001  0.00  0.00    +0.000 A 
ATOM     24  C   UNL     1      62.528  81.763  81.604  0.00  0.00    +0.000 C 
ATOM     25  C   UNL     1      60.622  82.858  82.599  0.00  0.00    +0.000 C 
ATOM     26  C   UNL     1      62.026  82.625  82.255  0.00  0.00    +0.000 C 
ATOM     27  C   UNL     1      60.366  82.726  84.121  0.00  0.00    +0.000 C 
ENDROOT
BRANCH  21  28
ATOM     28  O   UNL     1      63.718  79.643  80.117  0.00  0.00    +0.000 OA
ATOM     29  H   UNL     1      64.140  79.230  80.904  0.00  0.00    +0.000 HD
ENDBRANCH  21  28
BRANCH   8  30
ATOM     30  C   UNL     1      58.695  74.968  79.739  0.00  0.00    +0.000 C 
ATOM     31  C   UNL     1      58.672  74.287  81.116  0.00  0.00    +0.000 C 
BRANCH  31  32
ATOM     32  C   UNL     1      58.695  73.676  82.266  0.00  0.00    +0.000 C 
ATOM     33  C   UNL     1      59.075  74.551  83.446  0.00  0.00    +0.000 C 
BRANCH  32  35
ATOM     34  O   UNL     1      57.815  71.684  83.309  0.00  0.00    +0.000 OA
ATOM     35  C   UNL     1      58.350  72.231  82.356  0.00  0.00    +0.000 C 
BRANCH  35  36
ATOM     36  O   UNL     1      58.677  71.513  81.261  0.00  0.00    +0.000 OA
ATOM     37  H   UNL     1      58.235  70.646  81.381  0.00  0.00    +0.000 HD
ENDBRANCH  35  36
ENDBRANCH  32  35
ENDBRANCH  31  32
ENDBRANCH   8  30
BRANCH  20  38
ATOM     38  C   UNL     1      58.151  79.866  80.871  0.00  0.00    +0.000 C 
ATOM     39  C   UNL     1      56.637  79.942  81.117  0.00  0.00    +0.000 C 
BRANCH  39  40
ATOM     40  C   UNL     1      55.362  80.016  81.342  0.00  0.00    +0.000 C 
ATOM     41  C   UNL     1      54.877  80.316  82.729  0.00  0.00    +0.000 C 
ATOM     42  C   UNL     1      54.404  80.047  80.191  0.00  0.00    +0.000 C 
ENDBRANCH  39  40
ENDBRANCH  20  38
BRANCH  25  43
ATOM     43  C   UNL     1      60.150  84.166  82.105  0.00  0.00    +0.000 C 
BRANCH  43  44
ATOM     44  C   UNL     1      59.664  85.529  81.598  0.00  0.00    +0.000 C 
ATOM     45  C   UNL     1      59.179  86.894  81.088  0.00  0.00    +0.000 C 
BRANCH  45  46
ATOM     46  C   UNL     1      58.775  88.050  80.663  0.00  0.00    +0.000 C 
ATOM     47  C   UNL     1      57.932  88.129  79.427  0.00  0.00    +0.000 C 
ATOM     48  C   UNL     1      59.293  89.304  81.295  0.00  0.00    +0.000 C 
ENDBRANCH  45  46
ENDBRANCH  43  44
ENDBRANCH  25  43
TORSDOF 10
ENDMDL
MODEL 9
REMARK VINA RESULT:      -5.4     18.545     26.000
REMARK  Name = 9852185_GambogicAcid.pdbqt.pdb
REMARK  10 active torsions:
REMARK  status: ('A' for Active; 'I' for Inactive)
REMARK    1  A    between atoms: C_8  and  C_30
REMARK    2  A    between atoms: C_20  and  C_38
REMARK    3  A    between atoms: C_21  and  O_28
REMARK    4  A    between atoms: C_25  and  C_43
REMARK    5  A    between atoms: C_31  and  C_32
REMARK    6  A    between atoms: C_32  and  C_35
REMARK    7  A    between atoms: C_35  and  O_36
REMARK    8  A    between atoms: C_39  and  C_40
REMARK    9  A    between atoms: C_43  and  C_44
REMARK   10  A    between atoms: C_45  and  C_46
REMARK                            x       y       z     vdW  Elec       q    Type
REMARK                         _______ _______ _______ _____ _____    ______ ____
ROOT
ATOM      1  O   UNL     1      50.998  54.273  87.404  0.00  0.00    +0.000 OA
ATOM      2  O   UNL     1      51.717  55.570  84.936  0.00  0.00    +0.000 OA
ATOM      3  O   UNL     1      48.856  52.003  86.829  0.00  0.00    +0.000 OA
ATOM      4  O   UNL     1      49.109  55.397  81.754  0.00  0.00    +0.000 OA
ATOM      5  O   UNL     1      54.498  58.725  82.722  0.00  0.00    +0.000 OA
ATOM      6  C   UNL     1      50.445  54.990  85.190  0.00  0.00    +0.000 C 
ATOM      7  C   UNL     1      49.608  55.801  86.244  0.00  0.00    +0.000 C 
ATOM      8  C   UNL     1      50.562  53.736  86.146  0.00  0.00    +0.000 C 
ATOM      9  C   UNL     1      50.407  55.577  87.532  0.00  0.00    +0.000 C 
ATOM     10  C   UNL     1      48.242  55.280  86.194  0.00  0.00    +0.000 C 
ATOM     11  C   UNL     1      48.017  53.959  85.632  0.00  0.00    +0.000 C 
ATOM     12  C   UNL     1      49.646  54.647  83.921  0.00  0.00    +0.000 C 
ATOM     13  C   UNL     1      49.111  53.060  86.276  0.00  0.00    +0.000 C 
ATOM     14  C   UNL     1      48.388  54.052  84.244  0.00  0.00    +0.000 C 
ATOM     15  C   UNL     1      49.507  55.575  88.776  0.00  0.00    +0.000 C 
ATOM     16  C   UNL     1      51.508  56.642  87.664  0.00  0.00    +0.000 C 
ATOM     17  C   UNL     1      49.871  55.436  82.711  0.00  0.00    +0.000 C 
ATOM     18  C   UNL     1      51.904  56.333  83.814  0.00  0.00    +0.000 A 
ATOM     19  C   UNL     1      51.049  56.314  82.704  0.00  0.00    +0.000 A 
ATOM     20  C   UNL     1      53.063  57.139  83.798  0.00  0.00    +0.000 A 
ATOM     21  C   UNL     1      51.319  57.115  81.582  0.00  0.00    +0.000 A 
ATOM     22  C   UNL     1      53.344  57.937  82.684  0.00  0.00    +0.000 A 
ATOM     23  C   UNL     1      52.456  57.918  81.579  0.00  0.00    +0.000 A 
ATOM     24  C   UNL     1      52.853  58.763  80.513  0.00  0.00    +0.000 C 
ATOM     25  C   UNL     1      54.893  59.536  81.545  0.00  0.00    +0.000 C 
ATOM     26  C   UNL     1      53.854  59.409  80.521  0.00  0.00    +0.000 C 
ATOM     27  C   UNL     1      56.257  58.984  81.062  0.00  0.00    +0.000 C 
ENDROOT
BRANCH  21  28
ATOM     28  O   UNL     1      50.509  57.143  80.478  0.00  0.00    +0.000 OA
ATOM     29  H   UNL     1      49.738  56.548  80.615  0.00  0.00    +0.000 HD
ENDBRANCH  21  28
BRANCH   8  30
ATOM     30  C   UNL     1      51.546  52.756  85.666  0.00  0.00    +0.000 C 
ATOM     31  C   UNL     1      52.603  51.772  85.142  0.00  0.00    +0.000 C 
BRANCH  31  32
ATOM     32  C   UNL     1      53.513  50.975  84.657  0.00  0.00    +0.000 C 
ATOM     33  C   UNL     1      54.887  51.598  84.498  0.00  0.00    +0.000 C 
BRANCH  32  35
ATOM     34  O   UNL     1      52.341  49.207  83.502  0.00  0.00    +0.000 OA
ATOM     35  C   UNL     1      53.175  49.565  84.321  0.00  0.00    +0.000 C 
BRANCH  35  36
ATOM     36  O   UNL     1      53.882  48.645  85.011  0.00  0.00    +0.000 OA
ATOM     37  H   UNL     1      54.483  49.162  85.587  0.00  0.00    +0.000 HD
ENDBRANCH  35  36
ENDBRANCH  32  35
ENDBRANCH  31  32
ENDBRANCH   8  30
BRANCH  20  38
ATOM     38  C   UNL     1      53.949  57.143  84.926  0.00  0.00    +0.000 C 
ATOM     39  C   UNL     1      54.884  57.121  86.144  0.00  0.00    +0.000 C 
BRANCH  39  40
ATOM     40  C   UNL     1      55.667  57.083  87.177  0.00  0.00    +0.000 C 
ATOM     41  C   UNL     1      55.428  56.056  88.243  0.00  0.00    +0.000 C 
ATOM     42  C   UNL     1      56.932  57.886  87.180  0.00  0.00    +0.000 C 
ENDBRANCH  39  40
ENDBRANCH  20  38
BRANCH  25  43
ATOM     43  C   UNL     1      55.031  60.929  82.010  0.00  0.00    +0.000 C 
BRANCH  43  44
ATOM     44  C   UNL     1      55.182  62.379  82.487  0.00  0.00    +0.000 C 
ATOM     45  C   UNL     1      55.332  63.830  82.968  0.00  0.00    +0.000 C 
BRANCH  45  46
ATOM     46  C   UNL     1      55.450  65.055  83.373  0.00  0.00    +0.000 C 
ATOM     47  C   UNL     1      56.046  65.334  84.719  0.00  0.00    +0.000 C 
ATOM     48  C   UNL     1      54.835  66.168  82.584  0.00  0.00    +0.000 C 
ENDBRANCH  45  46
ENDBRANCH  43  44
ENDBRANCH  25  43
TORSDOF 10
ENDMDL
