MODEL 1
REMARK VINA RESULT:      -6.2      0.000      0.000
REMARK  Name = AFLATOXIN.pdbqt.pdb
REMARK  1 active torsions:
REMARK  status: ('A' for Active; 'I' for Inactive)
REMARK    1  A    between atoms: C_15  and  O_23
REMARK                            x       y       z     vdW  Elec       q    Type
REMARK                         _______ _______ _______ _____ _____    ______ ____
ROOT
ATOM      1  O   UNL     1      58.831  68.125  71.331  0.00  0.00    +0.000 OA
ATOM      2  O   UNL     1      60.863  69.008  70.236  0.00  0.00    +0.000 OA
ATOM      3  O   UNL     1      58.454  64.916  67.905  0.00  0.00    +0.000 OA
ATOM      4  O   UNL     1      54.243  62.672  66.459  0.00  0.00    +0.000 OA
ATOM      5  O   UNL     1      58.484  63.276  66.360  0.00  0.00    +0.000 OA
ATOM      6  O   UNL     1      56.203  62.259  65.437  0.00  0.00    +0.000 OA
ATOM      7  C   UNL     1      59.945  66.929  69.660  0.00  0.00    +0.000 C 
ATOM      8  C   UNL     1      58.560  66.505  69.677  0.00  0.00    +0.000 A 
ATOM      9  C   UNL     1      60.082  67.947  70.731  0.00  0.00    +0.000 C 
ATOM     10  C   UNL     1      57.968  67.233  70.715  0.00  0.00    +0.000 A 
ATOM     11  C   UNL     1      57.809  65.627  68.919  0.00  0.00    +0.000 A 
ATOM     12  C   UNL     1      56.451  65.447  69.180  0.00  0.00    +0.000 A 
ATOM     13  C   UNL     1      60.714  67.407  68.568  0.00  0.00    +0.000 C 
ATOM     14  C   UNL     1      55.727  64.528  68.285  0.00  0.00    +0.000 A 
ATOM     15  C   UNL     1      55.885  66.168  70.269  0.00  0.00    +0.000 A 
ATOM     16  C   UNL     1      56.634  67.091  71.024  0.00  0.00    +0.000 A 
ATOM     17  C   UNL     1      54.328  64.348  68.376  0.00  0.00    +0.000 A 
ATOM     18  C   UNL     1      56.348  63.812  67.301  0.00  0.00    +0.000 A 
ATOM     19  C   UNL     1      61.093  68.430  69.056  0.00  0.00    +0.000 C 
ATOM     20  C   UNL     1      53.723  63.398  67.421  0.00  0.00    +0.000 A 
ATOM     21  C   UNL     1      57.819  63.951  67.133  0.00  0.00    +0.000 A 
ATOM     22  C   UNL     1      55.614  62.855  66.331  0.00  0.00    +0.000 A 
ENDROOT
BRANCH  15  23
ATOM     23  O   UNL     1      54.545  66.055  70.572  0.00  0.00    +0.000 OA
ATOM     24  C   UNL     1      54.056  67.252  71.122  0.00  0.00    +0.000 C 
ENDBRANCH  15  23
TORSDOF 1
ENDMDL
MODEL 2
REMARK VINA RESULT:      -6.0     26.285     29.469
REMARK  Name = AFLATOXIN.pdbqt.pdb
REMARK  1 active torsions:
REMARK  status: ('A' for Active; 'I' for Inactive)
REMARK    1  A    between atoms: C_15  and  O_23
REMARK                            x       y       z     vdW  Elec       q    Type
REMARK                         _______ _______ _______ _____ _____    ______ ____
ROOT
ATOM      1  O   UNL     1      60.438  34.255  65.133  0.00  0.00    +0.000 OA
ATOM      2  O   UNL     1      58.555  35.036  63.735  0.00  0.00    +0.000 OA
ATOM      3  O   UNL     1      60.489  38.439  67.294  0.00  0.00    +0.000 OA
ATOM      4  O   UNL     1      64.421  40.505  69.561  0.00  0.00    +0.000 OA
ATOM      5  O   UNL     1      60.290  40.376  68.427  0.00  0.00    +0.000 OA
ATOM      6  O   UNL     1      62.447  41.575  69.427  0.00  0.00    +0.000 OA
ATOM      7  C   UNL     1      59.221  36.176  65.672  0.00  0.00    +0.000 C 
ATOM      8  C   UNL     1      60.543  36.295  66.255  0.00  0.00    +0.000 A 
ATOM      9  C   UNL     1      59.188  34.864  64.981  0.00  0.00    +0.000 C 
ATOM     10  C   UNL     1      61.197  35.105  65.921  0.00  0.00    +0.000 A 
ATOM     11  C   UNL     1      61.196  37.276  66.977  0.00  0.00    +0.000 A 
ATOM     12  C   UNL     1      62.514  37.093  67.390  0.00  0.00    +0.000 A 
ATOM     13  C   UNL     1      58.541  37.084  64.819  0.00  0.00    +0.000 C 
ATOM     14  C   UNL     1      63.139  38.218  68.110  0.00  0.00    +0.000 A 
ATOM     15  C   UNL     1      63.142  35.855  67.074  0.00  0.00    +0.000 A 
ATOM     16  C   UNL     1      62.496  34.865  66.309  0.00  0.00    +0.000 A 
ATOM     17  C   UNL     1      64.502  38.198  68.482  0.00  0.00    +0.000 A 
ATOM     18  C   UNL     1      62.456  39.352  68.443  0.00  0.00    +0.000 A 
ATOM     19  C   UNL     1      58.282  36.327  63.932  0.00  0.00    +0.000 C 
ATOM     20  C   UNL     1      65.005  39.387  69.199  0.00  0.00    +0.000 A 
ATOM     21  C   UNL     1      61.017  39.456  68.080  0.00  0.00    +0.000 A 
ATOM     22  C   UNL     1      63.086  40.558  69.180  0.00  0.00    +0.000 A 
ENDROOT
BRANCH  15  23
ATOM     23  O   UNL     1      64.450  35.613  67.433  0.00  0.00    +0.000 OA
ATOM     24  C   UNL     1      64.678  34.235  67.586  0.00  0.00    +0.000 C 
ENDBRANCH  15  23
TORSDOF 1
ENDMDL
MODEL 3
REMARK VINA RESULT:      -6.0     25.999     28.789
REMARK  Name = AFLATOXIN.pdbqt.pdb
REMARK  1 active torsions:
REMARK  status: ('A' for Active; 'I' for Inactive)
REMARK    1  A    between atoms: C_15  and  O_23
REMARK                            x       y       z     vdW  Elec       q    Type
REMARK                         _______ _______ _______ _____ _____    ______ ____
ROOT
ATOM      1  O   UNL     1      55.964  35.319  65.858  0.00  0.00    +0.000 OA
ATOM      2  O   UNL     1      56.983  33.796  64.201  0.00  0.00    +0.000 OA
ATOM      3  O   UNL     1      60.028  37.687  66.089  0.00  0.00    +0.000 OA
ATOM      4  O   UNL     1      61.604  40.410  69.958  0.00  0.00    +0.000 OA
ATOM      5  O   UNL     1      61.926  38.894  65.962  0.00  0.00    +0.000 OA
ATOM      6  O   UNL     1      62.866  40.149  68.114  0.00  0.00    +0.000 OA
ATOM      7  C   UNL     1      57.970  35.842  64.779  0.00  0.00    +0.000 C 
ATOM      8  C   UNL     1      57.935  36.549  66.043  0.00  0.00    +0.000 A 
ATOM      9  C   UNL     1      56.698  35.084  64.691  0.00  0.00    +0.000 C 
ATOM     10  C   UNL     1      56.702  36.217  66.613  0.00  0.00    +0.000 A 
ATOM     11  C   UNL     1      58.817  37.377  66.711  0.00  0.00    +0.000 A 
ATOM     12  C   UNL     1      58.489  37.901  67.961  0.00  0.00    +0.000 A 
ATOM     13  C   UNL     1      58.975  34.977  64.272  0.00  0.00    +0.000 C 
ATOM     14  C   UNL     1      59.516  38.731  68.615  0.00  0.00    +0.000 A 
ATOM     15  C   UNL     1      57.210  37.581  68.498  0.00  0.00    +0.000 A 
ATOM     16  C   UNL     1      56.320  36.710  67.840  0.00  0.00    +0.000 A 
ATOM     17  C   UNL     1      59.348  39.226  69.928  0.00  0.00    +0.000 A 
ATOM     18  C   UNL     1      60.696  39.058  68.011  0.00  0.00    +0.000 A 
ATOM     19  C   UNL     1      58.285  34.032  64.031  0.00  0.00    +0.000 C 
ATOM     20  C   UNL     1      60.451  40.047  70.468  0.00  0.00    +0.000 A 
ATOM     21  C   UNL     1      60.955  38.569  66.630  0.00  0.00    +0.000 A 
ATOM     22  C   UNL     1      61.803  39.911  68.677  0.00  0.00    +0.000 A 
ENDROOT
BRANCH  15  23
ATOM     23  O   UNL     1      56.827  38.046  69.737  0.00  0.00    +0.000 OA
ATOM     24  C   UNL     1      55.616  38.755  69.651  0.00  0.00    +0.000 C 
ENDBRANCH  15  23
TORSDOF 1
ENDMDL
MODEL 4
REMARK VINA RESULT:      -6.0     28.850     31.117
REMARK  Name = AFLATOXIN.pdbqt.pdb
REMARK  1 active torsions:
REMARK  status: ('A' for Active; 'I' for Inactive)
REMARK    1  A    between atoms: C_15  and  O_23
REMARK                            x       y       z     vdW  Elec       q    Type
REMARK                         _______ _______ _______ _____ _____    ______ ____
ROOT
ATOM      1  O   UNL     1      48.491  35.413  60.840  0.00  0.00    +0.000 OA
ATOM      2  O   UNL     1      46.507  36.692  61.573  0.00  0.00    +0.000 OA
ATOM      3  O   UNL     1      50.709  36.710  64.786  0.00  0.00    +0.000 OA
ATOM      4  O   UNL     1      55.649  37.023  65.390  0.00  0.00    +0.000 OA
ATOM      5  O   UNL     1      51.604  37.184  66.799  0.00  0.00    +0.000 OA
ATOM      6  O   UNL     1      54.227  37.576  67.043  0.00  0.00    +0.000 OA
ATOM      7  C   UNL     1      48.257  36.164  63.041  0.00  0.00    +0.000 C 
ATOM      8  C   UNL     1      49.670  36.008  62.760  0.00  0.00    +0.000 A 
ATOM      9  C   UNL     1      47.541  35.765  61.804  0.00  0.00    +0.000 C 
ATOM     10  C   UNL     1      49.731  35.528  61.448  0.00  0.00    +0.000 A 
ATOM     11  C   UNL     1      50.829  36.245  63.475  0.00  0.00    +0.000 A 
ATOM     12  C   UNL     1      52.077  36.004  62.903  0.00  0.00    +0.000 A 
ATOM     13  C   UNL     1      47.571  37.302  63.538  0.00  0.00    +0.000 C 
ATOM     14  C   UNL     1      53.253  36.336  63.727  0.00  0.00    +0.000 A 
ATOM     15  C   UNL     1      52.108  35.476  61.581  0.00  0.00    +0.000 A 
ATOM     16  C   UNL     1      50.934  35.264  60.833  0.00  0.00    +0.000 A 
ATOM     17  C   UNL     1      54.568  36.243  63.219  0.00  0.00    +0.000 A 
ATOM     18  C   UNL     1      53.151  36.774  65.016  0.00  0.00    +0.000 A 
ATOM     19  C   UNL     1      46.739  37.391  62.684  0.00  0.00    +0.000 C 
ATOM     20  C   UNL     1      55.659  36.603  64.147  0.00  0.00    +0.000 A 
ATOM     21  C   UNL     1      51.799  36.908  65.624  0.00  0.00    +0.000 A 
ATOM     22  C   UNL     1      54.363  37.151  65.902  0.00  0.00    +0.000 A 
ENDROOT
BRANCH  15  23
ATOM     23  O   UNL     1      53.306  35.232  60.945  0.00  0.00    +0.000 OA
ATOM     24  C   UNL     1      53.092  34.837  59.613  0.00  0.00    +0.000 C 
ENDBRANCH  15  23
TORSDOF 1
ENDMDL
MODEL 5
REMARK VINA RESULT:      -6.0     28.711     30.338
REMARK  Name = AFLATOXIN.pdbqt.pdb
REMARK  1 active torsions:
REMARK  status: ('A' for Active; 'I' for Inactive)
REMARK    1  A    between atoms: C_15  and  O_23
REMARK                            x       y       z     vdW  Elec       q    Type
REMARK                         _______ _______ _______ _____ _____    ______ ____
ROOT
ATOM      1  O   UNL     1      55.594  36.756  66.149  0.00  0.00    +0.000 OA
ATOM      2  O   UNL     1      57.773  37.199  65.072  0.00  0.00    +0.000 OA
ATOM      3  O   UNL     1      53.858  35.460  61.968  0.00  0.00    +0.000 OA
ATOM      4  O   UNL     1      49.057  35.604  60.629  0.00  0.00    +0.000 OA
ATOM      5  O   UNL     1      53.182  34.640  59.981  0.00  0.00    +0.000 OA
ATOM      6  O   UNL     1      50.657  34.941  59.194  0.00  0.00    +0.000 OA
ATOM      7  C   UNL     1      56.084  35.974  64.002  0.00  0.00    +0.000 C 
ATOM      8  C   UNL     1      54.646  36.102  64.123  0.00  0.00    +0.000 A 
ATOM      9  C   UNL     1      56.650  36.385  65.311  0.00  0.00    +0.000 C 
ATOM     10  C   UNL     1      54.427  36.539  65.434  0.00  0.00    +0.000 A 
ATOM     11  C   UNL     1      53.583  35.910  63.261  0.00  0.00    +0.000 A 
ATOM     12  C   UNL     1      52.275  36.143  63.685  0.00  0.00    +0.000 A 
ATOM     13  C   UNL     1      56.945  36.523  63.016  0.00  0.00    +0.000 C 
ATOM     14  C   UNL     1      51.216  35.960  62.677  0.00  0.00    +0.000 A 
ATOM     15  C   UNL     1      52.079  36.546  65.036  0.00  0.00    +0.000 A 
ATOM     16  C   UNL     1      53.158  36.776  65.911  0.00  0.00    +0.000 A 
ATOM     17  C   UNL     1      49.865  36.272  62.951  0.00  0.00    +0.000 A 
ATOM     18  C   UNL     1      51.468  35.502  61.415  0.00  0.00    +0.000 A 
ATOM     19  C   UNL     1      57.715  37.074  63.745  0.00  0.00    +0.000 C 
ATOM     20  C   UNL     1      48.901  36.042  61.856  0.00  0.00    +0.000 A 
ATOM     21  C   UNL     1      52.867  35.159  61.043  0.00  0.00    +0.000 A 
ATOM     22  C   UNL     1      50.383  35.318  60.327  0.00  0.00    +0.000 A 
ENDROOT
BRANCH  15  23
ATOM     23  O   UNL     1      50.816  36.813  65.518  0.00  0.00    +0.000 OA
ATOM     24  C   UNL     1      50.806  38.012  66.251  0.00  0.00    +0.000 C 
ENDBRANCH  15  23
TORSDOF 1
ENDMDL
MODEL 6
REMARK VINA RESULT:      -5.9     31.464     35.283
REMARK  Name = AFLATOXIN.pdbqt.pdb
REMARK  1 active torsions:
REMARK  status: ('A' for Active; 'I' for Inactive)
REMARK    1  A    between atoms: C_15  and  O_23
REMARK                            x       y       z     vdW  Elec       q    Type
REMARK                         _______ _______ _______ _____ _____    ______ ____
ROOT
ATOM      1  O   UNL     1      52.479  35.032  59.773  0.00  0.00    +0.000 OA
ATOM      2  O   UNL     1      51.255  37.043  59.022  0.00  0.00    +0.000 OA
ATOM      3  O   UNL     1      53.392  33.982  55.275  0.00  0.00    +0.000 OA
ATOM      4  O   UNL     1      54.333  29.428  53.474  0.00  0.00    +0.000 OA
ATOM      5  O   UNL     1      53.977  33.684  53.120  0.00  0.00    +0.000 OA
ATOM      6  O   UNL     1      54.244  31.228  52.128  0.00  0.00    +0.000 OA
ATOM      7  C   UNL     1      52.675  35.846  57.591  0.00  0.00    +0.000 C 
ATOM      8  C   UNL     1      52.976  34.428  57.578  0.00  0.00    +0.000 A 
ATOM      9  C   UNL     1      52.378  36.194  59.003  0.00  0.00    +0.000 C 
ATOM     10  C   UNL     1      52.872  34.020  58.912  0.00  0.00    +0.000 A 
ATOM     11  C   UNL     1      53.288  33.516  56.588  0.00  0.00    +0.000 A 
ATOM     12  C   UNL     1      53.510  32.177  56.902  0.00  0.00    +0.000 A 
ATOM     13  C   UNL     1      51.733  36.562  56.807  0.00  0.00    +0.000 C 
ATOM     14  C   UNL     1      53.786  31.274  55.771  0.00  0.00    +0.000 A 
ATOM     15  C   UNL     1      53.440  31.798  58.273  0.00  0.00    +0.000 A 
ATOM     16  C   UNL     1      53.089  32.713  59.283  0.00  0.00    +0.000 A 
ATOM     17  C   UNL     1      53.917  29.878  55.947  0.00  0.00    +0.000 A 
ATOM     18  C   UNL     1      53.909  31.717  54.485  0.00  0.00    +0.000 A 
ATOM     19  C   UNL     1      51.139  37.097  57.695  0.00  0.00    +0.000 C 
ATOM     20  C   UNL     1      54.194  29.084  54.732  0.00  0.00    +0.000 A 
ATOM     21  C   UNL     1      53.776  33.173  54.212  0.00  0.00    +0.000 A 
ATOM     22  C   UNL     1      54.178  30.794  53.272  0.00  0.00    +0.000 A 
ENDROOT
BRANCH  15  23
ATOM     23  O   UNL     1      53.629  30.487  58.654  0.00  0.00    +0.000 OA
ATOM     24  C   UNL     1      54.644  30.391  59.621  0.00  0.00    +0.000 C 
ENDBRANCH  15  23
TORSDOF 1
ENDMDL
MODEL 7
REMARK VINA RESULT:      -5.9     31.430     35.227
REMARK  Name = AFLATOXIN.pdbqt.pdb
REMARK  1 active torsions:
REMARK  status: ('A' for Active; 'I' for Inactive)
REMARK    1  A    between atoms: C_15  and  O_23
REMARK                            x       y       z     vdW  Elec       q    Type
REMARK                         _______ _______ _______ _____ _____    ______ ____
ROOT
ATOM      1  O   UNL     1      54.681  30.287  54.761  0.00  0.00    +0.000 OA
ATOM      2  O   UNL     1      55.427  31.314  52.641  0.00  0.00    +0.000 OA
ATOM      3  O   UNL     1      52.729  34.392  55.992  0.00  0.00    +0.000 OA
ATOM      4  O   UNL     1      51.862  35.929  60.656  0.00  0.00    +0.000 OA
ATOM      5  O   UNL     1      51.630  36.317  56.394  0.00  0.00    +0.000 OA
ATOM      6  O   UNL     1      51.386  37.230  58.884  0.00  0.00    +0.000 OA
ATOM      7  C   UNL     1      53.822  32.329  54.016  0.00  0.00    +0.000 C 
ATOM      8  C   UNL     1      53.690  32.278  55.458  0.00  0.00    +0.000 A 
ATOM      9  C   UNL     1      54.442  31.044  53.610  0.00  0.00    +0.000 C 
ATOM     10  C   UNL     1      54.190  31.025  55.827  0.00  0.00    +0.000 A 
ATOM     11  C   UNL     1      53.231  33.160  56.418  0.00  0.00    +0.000 A 
ATOM     12  C   UNL     1      53.252  32.813  57.768  0.00  0.00    +0.000 A 
ATOM     13  C   UNL     1      54.435  33.328  53.215  0.00  0.00    +0.000 C 
ATOM     14  C   UNL     1      52.789  33.840  58.717  0.00  0.00    +0.000 A 
ATOM     15  C   UNL     1      53.726  31.515  58.110  0.00  0.00    +0.000 A 
ATOM     16  C   UNL     1      54.228  30.623  57.143  0.00  0.00    +0.000 A 
ATOM     17  C   UNL     1      52.866  33.651  60.116  0.00  0.00    +0.000 A 
ATOM     18  C   UNL     1      52.279  35.041  58.315  0.00  0.00    +0.000 A 
ATOM     19  C   UNL     1      55.180  32.624  52.600  0.00  0.00    +0.000 C 
ATOM     20  C   UNL     1      52.368  34.757  60.958  0.00  0.00    +0.000 A 
ATOM     21  C   UNL     1      52.170  35.323  56.858  0.00  0.00    +0.000 A 
ATOM     22  C   UNL     1      51.803  36.150  59.286  0.00  0.00    +0.000 A 
ENDROOT
BRANCH  15  23
ATOM     23  O   UNL     1      53.794  31.111  59.426  0.00  0.00    +0.000 OA
ATOM     24  C   UNL     1      54.950  30.346  59.653  0.00  0.00    +0.000 C 
ENDBRANCH  15  23
TORSDOF 1
ENDMDL
MODEL 8
REMARK VINA RESULT:      -5.9     30.665     33.333
REMARK  Name = AFLATOXIN.pdbqt.pdb
REMARK  1 active torsions:
REMARK  status: ('A' for Active; 'I' for Inactive)
REMARK    1  A    between atoms: C_15  and  O_23
REMARK                            x       y       z     vdW  Elec       q    Type
REMARK                         _______ _______ _______ _____ _____    ______ ____
ROOT
ATOM      1  O   UNL     1      46.739  34.769  62.839  0.00  0.00    +0.000 OA
ATOM      2  O   UNL     1      45.725  37.022  62.802  0.00  0.00    +0.000 OA
ATOM      3  O   UNL     1      50.142  36.318  59.977  0.00  0.00    +0.000 OA
ATOM      4  O   UNL     1      52.846  33.508  56.869  0.00  0.00    +0.000 OA
ATOM      5  O   UNL     1      51.848  37.201  58.802  0.00  0.00    +0.000 OA
ATOM      6  O   UNL     1      53.123  35.737  56.979  0.00  0.00    +0.000 OA
ATOM      7  C   UNL     1      47.908  36.629  62.044  0.00  0.00    +0.000 C 
ATOM      8  C   UNL     1      48.460  35.443  61.421  0.00  0.00    +0.000 A 
ATOM      9  C   UNL     1      46.828  36.160  62.947  0.00  0.00    +0.000 C 
ATOM     10  C   UNL     1      47.739  34.375  61.965  0.00  0.00    +0.000 A 
ATOM     11  C   UNL     1      49.444  35.216  60.476  0.00  0.00    +0.000 A 
ATOM     12  C   UNL     1      49.738  33.920  60.056  0.00  0.00    +0.000 A 
ATOM     13  C   UNL     1      47.416  37.809  61.428  0.00  0.00    +0.000 C 
ATOM     14  C   UNL     1      50.766  33.787  59.009  0.00  0.00    +0.000 A 
ATOM     15  C   UNL     1      49.018  32.849  60.658  0.00  0.00    +0.000 A 
ATOM     16  C   UNL     1      47.991  33.073  61.595  0.00  0.00    +0.000 A 
ATOM     17  C   UNL     1      51.073  32.539  58.421  0.00  0.00    +0.000 A 
ATOM     18  C   UNL     1      51.469  34.852  58.525  0.00  0.00    +0.000 A 
ATOM     19  C   UNL     1      46.338  37.837  61.943  0.00  0.00    +0.000 C 
ATOM     20  C   UNL     1      52.124  32.541  57.384  0.00  0.00    +0.000 A 
ATOM     21  C   UNL     1      51.201  36.204  59.085  0.00  0.00    +0.000 A 
ATOM     22  C   UNL     1      52.541  34.750  57.412  0.00  0.00    +0.000 A 
ENDROOT
BRANCH  15  23
ATOM     23  O   UNL     1      49.241  31.544  60.276  0.00  0.00    +0.000 OA
ATOM     24  C   UNL     1      48.033  30.906  59.950  0.00  0.00    +0.000 C 
ENDBRANCH  15  23
TORSDOF 1
ENDMDL
MODEL 9
REMARK VINA RESULT:      -5.8     12.518     15.812
REMARK  Name = AFLATOXIN.pdbqt.pdb
REMARK  1 active torsions:
REMARK  status: ('A' for Active; 'I' for Inactive)
REMARK    1  A    between atoms: C_15  and  O_23
REMARK                            x       y       z     vdW  Elec       q    Type
REMARK                         _______ _______ _______ _____ _____    ______ ____
ROOT
ATOM      1  O   UNL     1      58.899  73.759  77.270  0.00  0.00    +0.000 OA
ATOM      2  O   UNL     1      60.535  75.460  76.537  0.00  0.00    +0.000 OA
ATOM      3  O   UNL     1      59.153  75.488  81.642  0.00  0.00    +0.000 OA
ATOM      4  O   UNL     1      58.169  72.975  85.836  0.00  0.00    +0.000 OA
ATOM      5  O   UNL     1      59.161  76.522  83.644  0.00  0.00    +0.000 OA
ATOM      6  O   UNL     1      58.864  75.114  85.884  0.00  0.00    +0.000 OA
ATOM      7  C   UNL     1      59.430  75.607  78.599  0.00  0.00    +0.000 C 
ATOM      8  C   UNL     1      58.963  74.542  79.463  0.00  0.00    +0.000 A 
ATOM      9  C   UNL     1      59.362  75.077  77.214  0.00  0.00    +0.000 C 
ATOM     10  C   UNL     1      58.635  73.489  78.603  0.00  0.00    +0.000 A 
ATOM     11  C   UNL     1      58.824  74.399  80.831  0.00  0.00    +0.000 A 
ATOM     12  C   UNL     1      58.350  73.207  81.375  0.00  0.00    +0.000 A 
ATOM     13  C   UNL     1      60.638  76.347  78.674  0.00  0.00    +0.000 C 
ATOM     14  C   UNL     1      58.287  73.135  82.846  0.00  0.00    +0.000 A 
ATOM     15  C   UNL     1      57.984  72.167  80.473  0.00  0.00    +0.000 A 
ATOM     16  C   UNL     1      58.154  72.292  79.081  0.00  0.00    +0.000 A 
ATOM     17  C   UNL     1      57.930  71.944  83.518  0.00  0.00    +0.000 A 
ATOM     18  C   UNL     1      58.587  74.196  83.650  0.00  0.00    +0.000 A 
ATOM     19  C   UNL     1      61.024  76.163  77.558  0.00  0.00    +0.000 C 
ATOM     20  C   UNL     1      57.904  72.005  84.994  0.00  0.00    +0.000 A 
ATOM     21  C   UNL     1      58.980  75.486  83.021  0.00  0.00    +0.000 A 
ATOM     22  C   UNL     1      58.550  74.149  85.197  0.00  0.00    +0.000 A 
ENDROOT
BRANCH  15  23
ATOM     23  O   UNL     1      57.527  70.954  80.941  0.00  0.00    +0.000 OA
ATOM     24  C   UNL     1      56.351  70.573  80.272  0.00  0.00    +0.000 C 
ENDBRANCH  15  23
TORSDOF 1
ENDMDL
