MODEL 1
REMARK VINA RESULT:      -7.0      0.000      0.000
REMARK  Name = AZD4547.pdbqt.pdb
REMARK  6 active torsions:
REMARK  status: ('A' for Active; 'I' for Inactive)
REMARK    1  A    between atoms: C_3  and  C_23
REMARK    2  A    between atoms: C_8  and  C_11
REMARK    3  A    between atoms: C_12  and  C_13
REMARK    4  A    between atoms: C_15  and  O_19
REMARK    5  A    between atoms: C_17  and  O_21
REMARK    6  A    between atoms: C_26  and  N_29
REMARK                            x       y       z     vdW  Elec       q    Type
REMARK                         _______ _______ _______ _____ _____    ______ ____
ROOT
ATOM      1  O   UNL     1      69.391  60.883  66.531  0.00  0.00    +0.000 OA
ATOM      2  N   UNL     1      68.078  60.694  64.634  0.00  0.00    +0.000 N 
ATOM      3  C   UNL     1      68.986  60.245  65.566  0.00  0.00    +0.000 C 
ATOM      4  H   UNL     1      67.776  60.132  63.852  0.00  0.00    +0.000 HD
ATOM      5  C   UNL     1      67.487  61.934  64.660  0.00  0.00    +0.000 A 
ATOM      6  N   UNL     1      66.619  62.255  63.694  0.00  0.00    +0.000 NA
ATOM      7  N   UNL     1      66.237  63.506  64.013  0.00  0.00    +0.000 N 
ATOM      8  C   UNL     1      66.827  63.989  65.142  0.00  0.00    +0.000 A 
ATOM      9  H   UNL     1      65.566  63.975  63.414  0.00  0.00    +0.000 HD
ATOM     10  C   UNL     1      67.652  62.988  65.592  0.00  0.00    +0.000 A 
ENDROOT
BRANCH   3  11
ATOM     11  C   UNL     1      69.504  58.869  65.357  0.00  0.00    +0.000 A 
ATOM     12  C   UNL     1      69.628  58.396  64.052  0.00  0.00    +0.000 A 
ATOM     13  C   UNL     1      70.110  57.109  63.818  0.00  0.00    +0.000 A 
ATOM     14  C   UNL     1      70.464  56.264  64.877  0.00  0.00    +0.000 A 
ATOM     15  C   UNL     1      70.351  56.764  66.181  0.00  0.00    +0.000 A 
ATOM     16  C   UNL     1      69.869  58.050  66.423  0.00  0.00    +0.000 A 
BRANCH  14  17
ATOM     17  N   UNL     1      70.996  54.975  64.636  0.00  0.00    +0.000 N 
ATOM     18  C   UNL     1      70.070  53.896  64.248  0.00  0.00    +0.000 C 
ATOM     19  C   UNL     1      69.806  52.571  64.701  0.00  0.00    +0.000 C 
ATOM     20  N   UNL     1      70.592  52.102  65.798  0.00  0.00    +0.000 N 
ATOM     21  C   UNL     1      68.751  51.711  64.104  0.00  0.00    +0.000 C 
ATOM     22  C   UNL     1      71.566  52.989  66.348  0.00  0.00    +0.000 C 
ATOM     23  H   UNL     1      70.445  51.184  66.187  0.00  0.00    +0.000 HD
ATOM     24  C   UNL     1      71.670  54.277  65.744  0.00  0.00    +0.000 C 
ATOM     25  C   UNL     1      72.387  52.584  67.518  0.00  0.00    +0.000 C 
ENDBRANCH  14  17
ENDBRANCH   3  11
BRANCH   8  26
ATOM     26  C   UNL     1      66.601  65.270  65.700  0.00  0.00    +0.000 C 
ATOM     27  C   UNL     1      66.360  66.656  66.306  0.00  0.00    +0.000 C 
BRANCH  27  28
ATOM     28  C   UNL     1      66.142  67.943  66.877  0.00  0.00    +0.000 A 
ATOM     29  C   UNL     1      67.227  68.714  67.286  0.00  0.00    +0.000 A 
ATOM     30  C   UNL     1      67.020  69.978  67.842  0.00  0.00    +0.000 A 
ATOM     31  C   UNL     1      65.716  70.462  67.976  0.00  0.00    +0.000 A 
ATOM     32  C   UNL     1      64.625  69.691  67.572  0.00  0.00    +0.000 A 
ATOM     33  C   UNL     1      64.846  68.428  67.019  0.00  0.00    +0.000 A 
BRANCH  30  34
ATOM     34  O   UNL     1      68.014  70.823  68.270  0.00  0.00    +0.000 OA
ATOM     35  C   UNL     1      69.226  70.206  68.599  0.00  0.00    +0.000 C 
ENDBRANCH  30  34
BRANCH  32  36
ATOM     36  O   UNL     1      63.392  70.267  67.752  0.00  0.00    +0.000 OA
ATOM     37  C   UNL     1      63.398  71.514  68.391  0.00  0.00    +0.000 C 
ENDBRANCH  32  36
ENDBRANCH  27  28
ENDBRANCH   8  26
TORSDOF 6
ENDMDL
MODEL 2
REMARK VINA RESULT:      -6.8      1.463      2.107
REMARK  Name = AZD4547.pdbqt.pdb
REMARK  6 active torsions:
REMARK  status: ('A' for Active; 'I' for Inactive)
REMARK    1  A    between atoms: C_3  and  C_23
REMARK    2  A    between atoms: C_8  and  C_11
REMARK    3  A    between atoms: C_12  and  C_13
REMARK    4  A    between atoms: C_15  and  O_19
REMARK    5  A    between atoms: C_17  and  O_21
REMARK    6  A    between atoms: C_26  and  N_29
REMARK                            x       y       z     vdW  Elec       q    Type
REMARK                         _______ _______ _______ _____ _____    ______ ____
ROOT
ATOM      1  O   UNL     1      69.448  59.732  66.801  0.00  0.00    +0.000 OA
ATOM      2  N   UNL     1      68.579  59.670  64.656  0.00  0.00    +0.000 N 
ATOM      3  C   UNL     1      69.231  59.143  65.748  0.00  0.00    +0.000 C 
ATOM      4  H   UNL     1      68.425  59.147  63.807  0.00  0.00    +0.000 HD
ATOM      5  C   UNL     1      68.071  60.946  64.595  0.00  0.00    +0.000 A 
ATOM      6  N   UNL     1      67.459  61.344  63.475  0.00  0.00    +0.000 NA
ATOM      7  N   UNL     1      67.091  62.609  63.746  0.00  0.00    +0.000 N 
ATOM      8  C   UNL     1      67.443  63.028  64.994  0.00  0.00    +0.000 A 
ATOM      9  H   UNL     1      66.598  63.135  63.031  0.00  0.00    +0.000 HD
ATOM     10  C   UNL     1      68.087  61.966  65.578  0.00  0.00    +0.000 A 
ENDROOT
BRANCH   3  11
ATOM     11  C   UNL     1      69.700  57.742  65.609  0.00  0.00    +0.000 A 
ATOM     12  C   UNL     1      69.642  57.141  64.353  0.00  0.00    +0.000 A 
ATOM     13  C   UNL     1      70.073  55.827  64.185  0.00  0.00    +0.000 A 
ATOM     14  C   UNL     1      70.557  55.079  65.266  0.00  0.00    +0.000 A 
ATOM     15  C   UNL     1      70.625  55.705  66.518  0.00  0.00    +0.000 A 
ATOM     16  C   UNL     1      70.195  57.020  66.693  0.00  0.00    +0.000 A 
BRANCH  14  17
ATOM     17  N   UNL     1      71.036  53.760  65.085  0.00  0.00    +0.000 N 
ATOM     18  C   UNL     1      72.185  53.549  64.188  0.00  0.00    +0.000 C 
ATOM     19  C   UNL     1      72.467  52.696  63.080  0.00  0.00    +0.000 C 
ATOM     20  N   UNL     1      71.428  51.799  62.684  0.00  0.00    +0.000 N 
ATOM     21  C   UNL     1      73.754  52.741  62.337  0.00  0.00    +0.000 C 
ATOM     22  C   UNL     1      70.205  51.829  63.418  0.00  0.00    +0.000 C 
ATOM     23  H   UNL     1      71.548  51.183  61.895  0.00  0.00    +0.000 HD
ATOM     24  C   UNL     1      70.129  52.761  64.495  0.00  0.00    +0.000 C 
ATOM     25  C   UNL     1      69.066  50.955  63.032  0.00  0.00    +0.000 C 
ENDBRANCH  14  17
ENDBRANCH   3  11
BRANCH   8  26
ATOM     26  C   UNL     1      67.175  64.309  65.533  0.00  0.00    +0.000 C 
ATOM     27  C   UNL     1      66.887  65.698  66.113  0.00  0.00    +0.000 C 
BRANCH  27  28
ATOM     28  C   UNL     1      66.622  66.993  66.645  0.00  0.00    +0.000 A 
ATOM     29  C   UNL     1      67.673  67.875  66.879  0.00  0.00    +0.000 A 
ATOM     30  C   UNL     1      67.419  69.148  67.395  0.00  0.00    +0.000 A 
ATOM     31  C   UNL     1      66.102  69.525  67.669  0.00  0.00    +0.000 A 
ATOM     32  C   UNL     1      65.046  68.642  67.441  0.00  0.00    +0.000 A 
ATOM     33  C   UNL     1      65.313  67.372  66.925  0.00  0.00    +0.000 A 
BRANCH  30  34
ATOM     34  O   UNL     1      68.375  70.098  67.656  0.00  0.00    +0.000 OA
ATOM     35  C   UNL     1      69.688  69.621  67.740  0.00  0.00    +0.000 C 
ENDBRANCH  30  34
BRANCH  32  36
ATOM     36  O   UNL     1      63.795  69.120  67.746  0.00  0.00    +0.000 OA
ATOM     37  C   UNL     1      62.800  68.853  66.796  0.00  0.00    +0.000 C 
ENDBRANCH  32  36
ENDBRANCH  27  28
ENDBRANCH   8  26
TORSDOF 6
ENDMDL
MODEL 3
REMARK VINA RESULT:      -6.7     23.116     29.314
REMARK  Name = AZD4547.pdbqt.pdb
REMARK  6 active torsions:
REMARK  status: ('A' for Active; 'I' for Inactive)
REMARK    1  A    between atoms: C_3  and  C_23
REMARK    2  A    between atoms: C_8  and  C_11
REMARK    3  A    between atoms: C_12  and  C_13
REMARK    4  A    between atoms: C_15  and  O_19
REMARK    5  A    between atoms: C_17  and  O_21
REMARK    6  A    between atoms: C_26  and  N_29
REMARK                            x       y       z     vdW  Elec       q    Type
REMARK                         _______ _______ _______ _____ _____    ______ ____
ROOT
ATOM      1  O   UNL     1      59.197  36.020  64.263  0.00  0.00    +0.000 OA
ATOM      2  N   UNL     1      57.747  36.886  65.846  0.00  0.00    +0.000 N 
ATOM      3  C   UNL     1      58.985  36.550  65.348  0.00  0.00    +0.000 C 
ATOM      4  H   UNL     1      57.621  37.319  66.748  0.00  0.00    +0.000 HD
ATOM      5  C   UNL     1      56.560  36.676  65.185  0.00  0.00    +0.000 A 
ATOM      6  N   UNL     1      55.419  37.045  65.776  0.00  0.00    +0.000 NA
ATOM      7  N   UNL     1      54.473  36.706  64.880  0.00  0.00    +0.000 N 
ATOM      8  C   UNL     1      54.970  36.139  63.745  0.00  0.00    +0.000 A 
ATOM      9  H   UNL     1      53.502  36.892  65.107  0.00  0.00    +0.000 HD
ATOM     10  C   UNL     1      56.332  36.102  63.910  0.00  0.00    +0.000 A 
ENDROOT
BRANCH   3  11
ATOM     11  C   UNL     1      60.144  36.865  66.221  0.00  0.00    +0.000 A 
ATOM     12  C   UNL     1      60.542  35.921  67.166  0.00  0.00    +0.000 A 
ATOM     13  C   UNL     1      61.625  36.183  68.002  0.00  0.00    +0.000 A 
ATOM     14  C   UNL     1      62.323  37.395  67.927  0.00  0.00    +0.000 A 
ATOM     15  C   UNL     1      61.920  38.325  66.959  0.00  0.00    +0.000 A 
ATOM     16  C   UNL     1      60.837  38.069  66.118  0.00  0.00    +0.000 A 
BRANCH  14  17
ATOM     17  N   UNL     1      63.449  37.641  68.747  0.00  0.00    +0.000 N 
ATOM     18  C   UNL     1      63.596  38.975  69.355  0.00  0.00    +0.000 C 
ATOM     19  C   UNL     1      64.629  39.955  69.421  0.00  0.00    +0.000 C 
ATOM     20  N   UNL     1      65.854  39.638  68.757  0.00  0.00    +0.000 N 
ATOM     21  C   UNL     1      64.457  41.261  70.109  0.00  0.00    +0.000 C 
ATOM     22  C   UNL     1      65.943  38.381  68.087  0.00  0.00    +0.000 C 
ATOM     23  H   UNL     1      66.620  40.292  68.742  0.00  0.00    +0.000 HD
ATOM     24  C   UNL     1      64.789  37.544  68.143  0.00  0.00    +0.000 C 
ATOM     25  C   UNL     1      67.171  38.004  67.338  0.00  0.00    +0.000 C 
ENDBRANCH  14  17
ENDBRANCH   3  11
BRANCH   8  26
ATOM     26  C   UNL     1      54.197  35.695  62.646  0.00  0.00    +0.000 C 
ATOM     27  C   UNL     1      53.357  35.212  61.459  0.00  0.00    +0.000 C 
BRANCH  27  28
ATOM     28  C   UNL     1      52.571  34.759  60.361  0.00  0.00    +0.000 A 
ATOM     29  C   UNL     1      52.452  35.548  59.220  0.00  0.00    +0.000 A 
ATOM     30  C   UNL     1      51.687  35.107  58.138  0.00  0.00    +0.000 A 
ATOM     31  C   UNL     1      51.047  33.867  58.213  0.00  0.00    +0.000 A 
ATOM     32  C   UNL     1      51.158  33.076  59.357  0.00  0.00    +0.000 A 
ATOM     33  C   UNL     1      51.927  33.528  60.431  0.00  0.00    +0.000 A 
BRANCH  30  34
ATOM     34  O   UNL     1      51.509  35.798  56.965  0.00  0.00    +0.000 OA
ATOM     35  C   UNL     1      51.069  37.119  57.106  0.00  0.00    +0.000 C 
ENDBRANCH  30  34
BRANCH  32  36
ATOM     36  O   UNL     1      50.488  31.878  59.317  0.00  0.00    +0.000 OA
ATOM     37  C   UNL     1      50.516  31.213  58.084  0.00  0.00    +0.000 C 
ENDBRANCH  32  36
ENDBRANCH  27  28
ENDBRANCH   8  26
TORSDOF 6
ENDMDL
MODEL 4
REMARK VINA RESULT:      -6.6     23.090     28.782
REMARK  Name = AZD4547.pdbqt.pdb
REMARK  6 active torsions:
REMARK  status: ('A' for Active; 'I' for Inactive)
REMARK    1  A    between atoms: C_3  and  C_23
REMARK    2  A    between atoms: C_8  and  C_11
REMARK    3  A    between atoms: C_12  and  C_13
REMARK    4  A    between atoms: C_15  and  O_19
REMARK    5  A    between atoms: C_17  and  O_21
REMARK    6  A    between atoms: C_26  and  N_29
REMARK                            x       y       z     vdW  Elec       q    Type
REMARK                         _______ _______ _______ _____ _____    ______ ____
ROOT
ATOM      1  O   UNL     1      59.475  36.316  64.746  0.00  0.00    +0.000 OA
ATOM      2  N   UNL     1      58.243  37.018  66.577  0.00  0.00    +0.000 N 
ATOM      3  C   UNL     1      59.406  36.737  65.896  0.00  0.00    +0.000 C 
ATOM      4  H   UNL     1      58.236  37.360  67.525  0.00  0.00    +0.000 HD
ATOM      5  C   UNL     1      56.981  36.868  66.054  0.00  0.00    +0.000 A 
ATOM      6  N   UNL     1      55.926  37.173  66.817  0.00  0.00    +0.000 NA
ATOM      7  N   UNL     1      54.872  36.919  66.020  0.00  0.00    +0.000 N 
ATOM      8  C   UNL     1      55.217  36.468  64.782  0.00  0.00    +0.000 A 
ATOM      9  H   UNL     1      53.939  37.078  66.385  0.00  0.00    +0.000 HD
ATOM     10  C   UNL     1      56.589  36.420  64.768  0.00  0.00    +0.000 A 
ENDROOT
BRANCH   3  11
ATOM     11  C   UNL     1      60.668  36.971  66.642  0.00  0.00    +0.000 A 
ATOM     12  C   UNL     1      60.802  38.153  67.369  0.00  0.00    +0.000 A 
ATOM     13  C   UNL     1      61.972  38.406  68.081  0.00  0.00    +0.000 A 
ATOM     14  C   UNL     1      63.038  37.497  68.072  0.00  0.00    +0.000 A 
ATOM     15  C   UNL     1      62.878  36.306  67.350  0.00  0.00    +0.000 A 
ATOM     16  C   UNL     1      61.709  36.046  66.635  0.00  0.00    +0.000 A 
BRANCH  14  17
ATOM     17  N   UNL     1      64.207  37.736  68.832  0.00  0.00    +0.000 N 
ATOM     18  C   UNL     1      64.283  38.969  69.634  0.00  0.00    +0.000 C 
ATOM     19  C   UNL     1      65.221  40.034  69.777  0.00  0.00    +0.000 C 
ATOM     20  N   UNL     1      66.402  39.956  68.978  0.00  0.00    +0.000 N 
ATOM     21  C   UNL     1      64.991  41.194  70.678  0.00  0.00    +0.000 C 
ATOM     22  C   UNL     1      66.547  38.833  68.109  0.00  0.00    +0.000 C 
ATOM     23  H   UNL     1      67.099  40.684  69.010  0.00  0.00    +0.000 HD
ATOM     24  C   UNL     1      65.489  37.877  68.119  0.00  0.00    +0.000 C 
ATOM     25  C   UNL     1      67.730  38.710  67.217  0.00  0.00    +0.000 C 
ENDBRANCH  14  17
ENDBRANCH   3  11
BRANCH   8  26
ATOM     26  C   UNL     1      54.308  36.130  63.751  0.00  0.00    +0.000 C 
ATOM     27  C   UNL     1      53.320  35.763  62.638  0.00  0.00    +0.000 C 
BRANCH  27  28
ATOM     28  C   UNL     1      52.395  35.422  61.610  0.00  0.00    +0.000 A 
ATOM     29  C   UNL     1      51.058  35.789  61.730  0.00  0.00    +0.000 A 
ATOM     30  C   UNL     1      50.147  35.461  60.723  0.00  0.00    +0.000 A 
ATOM     31  C   UNL     1      50.594  34.768  59.595  0.00  0.00    +0.000 A 
ATOM     32  C   UNL     1      51.933  34.393  59.473  0.00  0.00    +0.000 A 
ATOM     33  C   UNL     1      52.833  34.727  60.487  0.00  0.00    +0.000 A 
BRANCH  30  34
ATOM     34  O   UNL     1      48.811  35.779  60.734  0.00  0.00    +0.000 OA
ATOM     35  C   UNL     1      48.072  35.227  61.787  0.00  0.00    +0.000 C 
ENDBRANCH  30  34
BRANCH  32  36
ATOM     36  O   UNL     1      52.257  33.717  58.323  0.00  0.00    +0.000 OA
ATOM     37  C   UNL     1      53.322  34.255  57.588  0.00  0.00    +0.000 C 
ENDBRANCH  32  36
ENDBRANCH  27  28
ENDBRANCH   8  26
TORSDOF 6
ENDMDL
MODEL 5
REMARK VINA RESULT:      -6.6     17.431     21.976
REMARK  Name = AZD4547.pdbqt.pdb
REMARK  6 active torsions:
REMARK  status: ('A' for Active; 'I' for Inactive)
REMARK    1  A    between atoms: C_3  and  C_23
REMARK    2  A    between atoms: C_8  and  C_11
REMARK    3  A    between atoms: C_12  and  C_13
REMARK    4  A    between atoms: C_15  and  O_19
REMARK    5  A    between atoms: C_17  and  O_21
REMARK    6  A    between atoms: C_26  and  N_29
REMARK                            x       y       z     vdW  Elec       q    Type
REMARK                         _______ _______ _______ _____ _____    ______ ____
ROOT
ATOM      1  O   UNL     1      56.373  50.632  57.551  0.00  0.00    +0.000 OA
ATOM      2  N   UNL     1      55.197  52.087  58.915  0.00  0.00    +0.000 N 
ATOM      3  C   UNL     1      56.329  51.601  58.301  0.00  0.00    +0.000 C 
ATOM      4  H   UNL     1      55.210  52.888  59.529  0.00  0.00    +0.000 HD
ATOM      5  C   UNL     1      53.941  51.551  58.764  0.00  0.00    +0.000 A 
ATOM      6  N   UNL     1      52.917  52.114  59.416  0.00  0.00    +0.000 NA
ATOM      7  N   UNL     1      51.860  51.363  59.057  0.00  0.00    +0.000 N 
ATOM      8  C   UNL     1      52.172  50.349  58.202  0.00  0.00    +0.000 A 
ATOM      9  H   UNL     1      50.947  51.599  59.432  0.00  0.00    +0.000 HD
ATOM     10  C   UNL     1      53.525  50.440  57.990  0.00  0.00    +0.000 A 
ENDROOT
BRANCH   3  11
ATOM     11  C   UNL     1      57.590  52.328  58.594  0.00  0.00    +0.000 A 
ATOM     12  C   UNL     1      57.579  53.722  58.553  0.00  0.00    +0.000 A 
ATOM     13  C   UNL     1      58.743  54.438  58.822  0.00  0.00    +0.000 A 
ATOM     14  C   UNL     1      59.945  53.783  59.122  0.00  0.00    +0.000 A 
ATOM     15  C   UNL     1      59.932  52.382  59.176  0.00  0.00    +0.000 A 
ATOM     16  C   UNL     1      58.770  51.659  58.909  0.00  0.00    +0.000 A 
BRANCH  14  17
ATOM     17  N   UNL     1      61.115  54.513  59.438  0.00  0.00    +0.000 N 
ATOM     18  C   UNL     1      61.570  54.534  60.839  0.00  0.00    +0.000 C 
ATOM     19  C   UNL     1      61.934  55.545  61.776  0.00  0.00    +0.000 C 
ATOM     20  N   UNL     1      61.862  56.896  61.316  0.00  0.00    +0.000 N 
ATOM     21  C   UNL     1      62.336  55.241  63.174  0.00  0.00    +0.000 C 
ATOM     22  C   UNL     1      61.437  57.122  59.973  0.00  0.00    +0.000 C 
ATOM     23  H   UNL     1      62.082  57.665  61.930  0.00  0.00    +0.000 HD
ATOM     24  C   UNL     1      61.119  55.966  59.201  0.00  0.00    +0.000 C 
ATOM     25  C   UNL     1      61.297  58.504  59.443  0.00  0.00    +0.000 C 
ENDBRANCH  14  17
ENDBRANCH   3  11
BRANCH   8  26
ATOM     26  C   UNL     1      51.252  49.416  57.668  0.00  0.00    +0.000 C 
ATOM     27  C   UNL     1      50.252  48.406  57.094  0.00  0.00    +0.000 C 
BRANCH  27  28
ATOM     28  C   UNL     1      49.317  47.470  56.566  0.00  0.00    +0.000 A 
ATOM     29  C   UNL     1      49.606  46.791  55.386  0.00  0.00    +0.000 A 
ATOM     30  C   UNL     1      48.694  45.868  54.866  0.00  0.00    +0.000 A 
ATOM     31  C   UNL     1      47.496  45.633  55.544  0.00  0.00    +0.000 A 
ATOM     32  C   UNL     1      47.200  46.316  56.725  0.00  0.00    +0.000 A 
ATOM     33  C   UNL     1      48.119  47.236  57.234  0.00  0.00    +0.000 A 
BRANCH  30  34
ATOM     34  O   UNL     1      48.880  45.139  53.718  0.00  0.00    +0.000 OA
ATOM     35  C   UNL     1      50.166  45.201  53.168  0.00  0.00    +0.000 C 
ENDBRANCH  30  34
BRANCH  32  36
ATOM     36  O   UNL     1      45.995  46.005  57.304  0.00  0.00    +0.000 OA
ATOM     37  C   UNL     1      44.962  46.925  57.078  0.00  0.00    +0.000 C 
ENDBRANCH  32  36
ENDBRANCH  27  28
ENDBRANCH   8  26
TORSDOF 6
ENDMDL
MODEL 6
REMARK VINA RESULT:      -6.5      5.689     15.866
REMARK  Name = AZD4547.pdbqt.pdb
REMARK  6 active torsions:
REMARK  status: ('A' for Active; 'I' for Inactive)
REMARK    1  A    between atoms: C_3  and  C_23
REMARK    2  A    between atoms: C_8  and  C_11
REMARK    3  A    between atoms: C_12  and  C_13
REMARK    4  A    between atoms: C_15  and  O_19
REMARK    5  A    between atoms: C_17  and  O_21
REMARK    6  A    between atoms: C_26  and  N_29
REMARK                            x       y       z     vdW  Elec       q    Type
REMARK                         _______ _______ _______ _____ _____    ______ ____
ROOT
ATOM      1  O   UNL     1      69.451  55.692  62.770  0.00  0.00    +0.000 OA
ATOM      2  N   UNL     1      70.408  54.992  64.759  0.00  0.00    +0.000 N 
ATOM      3  C   UNL     1      69.815  55.909  63.921  0.00  0.00    +0.000 C 
ATOM      4  H   UNL     1      70.694  55.218  65.700  0.00  0.00    +0.000 HD
ATOM      5  C   UNL     1      70.671  53.687  64.421  0.00  0.00    +0.000 A 
ATOM      6  N   UNL     1      71.254  52.891  65.324  0.00  0.00    +0.000 NA
ATOM      7  N   UNL     1      71.366  51.712  64.685  0.00  0.00    +0.000 N 
ATOM      8  C   UNL     1      70.875  51.728  63.414  0.00  0.00    +0.000 A 
ATOM      9  H   UNL     1      71.788  50.932  65.177  0.00  0.00    +0.000 HD
ATOM     10  C   UNL     1      70.414  53.004  63.206  0.00  0.00    +0.000 A 
ENDROOT
BRANCH   3  11
ATOM     11  C   UNL     1      69.615  57.268  64.483  0.00  0.00    +0.000 A 
ATOM     12  C   UNL     1      69.093  58.261  63.655  0.00  0.00    +0.000 A 
ATOM     13  C   UNL     1      68.892  59.548  64.149  0.00  0.00    +0.000 A 
ATOM     14  C   UNL     1      69.220  59.878  65.470  0.00  0.00    +0.000 A 
ATOM     15  C   UNL     1      69.727  58.863  66.293  0.00  0.00    +0.000 A 
ATOM     16  C   UNL     1      69.930  57.572  65.806  0.00  0.00    +0.000 A 
BRANCH  14  17
ATOM     17  N   UNL     1      68.974  61.174  65.982  0.00  0.00    +0.000 N 
ATOM     18  C   UNL     1      67.791  61.906  65.497  0.00  0.00    +0.000 C 
ATOM     19  C   UNL     1      67.550  63.202  64.953  0.00  0.00    +0.000 C 
ATOM     20  N   UNL     1      68.685  64.057  64.812  0.00  0.00    +0.000 N 
ATOM     21  C   UNL     1      66.203  63.653  64.514  0.00  0.00    +0.000 C 
ATOM     22  C   UNL     1      69.956  63.552  65.221  0.00  0.00    +0.000 C 
ATOM     23  H   UNL     1      68.594  64.979  64.414  0.00  0.00    +0.000 HD
ATOM     24  C   UNL     1      69.978  62.224  65.741  0.00  0.00    +0.000 C 
ATOM     25  C   UNL     1      71.186  64.371  65.062  0.00  0.00    +0.000 C 
ENDBRANCH  14  17
ENDBRANCH   3  11
BRANCH   8  26
ATOM     26  C   UNL     1      70.866  50.626  62.526  0.00  0.00    +0.000 C 
ATOM     27  C   UNL     1      70.851  49.433  61.565  0.00  0.00    +0.000 C 
BRANCH  27  28
ATOM     28  C   UNL     1      70.828  48.323  60.671  0.00  0.00    +0.000 A 
ATOM     29  C   UNL     1      71.140  47.050  61.139  0.00  0.00    +0.000 A 
ATOM     30  C   UNL     1      71.115  45.957  60.268  0.00  0.00    +0.000 A 
ATOM     31  C   UNL     1      70.768  46.156  58.930  0.00  0.00    +0.000 A 
ATOM     32  C   UNL     1      70.459  47.432  58.456  0.00  0.00    +0.000 A 
ATOM     33  C   UNL     1      70.488  48.516  59.336  0.00  0.00    +0.000 A 
BRANCH  30  34
ATOM     34  O   UNL     1      71.397  44.661  60.623  0.00  0.00    +0.000 OA
ATOM     35  C   UNL     1      70.364  43.978  61.275  0.00  0.00    +0.000 C 
ENDBRANCH  30  34
BRANCH  32  36
ATOM     36  O   UNL     1      70.133  47.508  57.124  0.00  0.00    +0.000 OA
ATOM     37  C   UNL     1      68.812  47.161  56.808  0.00  0.00    +0.000 C 
ENDBRANCH  32  36
ENDBRANCH  27  28
ENDBRANCH   8  26
TORSDOF 6
ENDMDL
MODEL 7
REMARK VINA RESULT:      -6.5     17.233     21.578
REMARK  Name = AZD4547.pdbqt.pdb
REMARK  6 active torsions:
REMARK  status: ('A' for Active; 'I' for Inactive)
REMARK    1  A    between atoms: C_3  and  C_23
REMARK    2  A    between atoms: C_8  and  C_11
REMARK    3  A    between atoms: C_12  and  C_13
REMARK    4  A    between atoms: C_15  and  O_19
REMARK    5  A    between atoms: C_17  and  O_21
REMARK    6  A    between atoms: C_26  and  N_29
REMARK                            x       y       z     vdW  Elec       q    Type
REMARK                         _______ _______ _______ _____ _____    ______ ____
ROOT
ATOM      1  O   UNL     1      56.371  50.723  58.091  0.00  0.00    +0.000 OA
ATOM      2  N   UNL     1      55.342  52.597  58.979  0.00  0.00    +0.000 N 
ATOM      3  C   UNL     1      56.425  51.835  58.607  0.00  0.00    +0.000 C 
ATOM      4  H   UNL     1      55.435  53.507  59.404  0.00  0.00    +0.000 HD
ATOM      5  C   UNL     1      54.031  52.217  58.817  0.00  0.00    +0.000 A 
ATOM      6  N   UNL     1      53.064  53.047  59.222  0.00  0.00    +0.000 NA
ATOM      7  N   UNL     1      51.931  52.384  58.925  0.00  0.00    +0.000 N 
ATOM      8  C   UNL     1      52.142  51.169  58.346  0.00  0.00    +0.000 A 
ATOM      9  H   UNL     1      51.042  52.821  59.143  0.00  0.00    +0.000 HD
ATOM     10  C   UNL     1      53.504  51.025  58.261  0.00  0.00    +0.000 A 
ENDROOT
BRANCH   3  11
ATOM     11  C   UNL     1      57.759  52.432  58.866  0.00  0.00    +0.000 A 
ATOM     12  C   UNL     1      57.848  53.812  59.041  0.00  0.00    +0.000 A 
ATOM     13  C   UNL     1      59.084  54.408  59.285  0.00  0.00    +0.000 A 
ATOM     14  C   UNL     1      60.257  53.645  59.346  0.00  0.00    +0.000 A 
ATOM     15  C   UNL     1      60.146  52.257  59.185  0.00  0.00    +0.000 A 
ATOM     16  C   UNL     1      58.912  51.654  58.941  0.00  0.00    +0.000 A 
BRANCH  14  17
ATOM     17  N   UNL     1      61.504  54.246  59.638  0.00  0.00    +0.000 N 
ATOM     18  C   UNL     1      61.886  54.416  61.051  0.00  0.00    +0.000 C 
ATOM     19  C   UNL     1      62.346  55.499  61.857  0.00  0.00    +0.000 C 
ATOM     20  N   UNL     1      62.497  56.761  61.205  0.00  0.00    +0.000 N 
ATOM     21  C   UNL     1      62.627  55.357  63.310  0.00  0.00    +0.000 C 
ATOM     22  C   UNL     1      62.179  56.837  59.816  0.00  0.00    +0.000 C 
ATOM     23  H   UNL     1      62.796  57.576  61.717  0.00  0.00    +0.000 HD
ATOM     24  C   UNL     1      61.735  55.632  59.196  0.00  0.00    +0.000 C 
ATOM     25  C   UNL     1      62.271  58.128  59.085  0.00  0.00    +0.000 C 
ENDBRANCH  14  17
ENDBRANCH   3  11
BRANCH   8  26
ATOM     26  C   UNL     1      51.128  50.272  57.933  0.00  0.00    +0.000 C 
ATOM     27  C   UNL     1      50.033  49.300  57.482  0.00  0.00    +0.000 C 
BRANCH  27  28
ATOM     28  C   UNL     1      49.020  48.393  57.056  0.00  0.00    +0.000 A 
ATOM     29  C   UNL     1      47.701  48.827  56.948  0.00  0.00    +0.000 A 
ATOM     30  C   UNL     1      46.705  47.943  56.526  0.00  0.00    +0.000 A 
ATOM     31  C   UNL     1      47.046  46.626  56.209  0.00  0.00    +0.000 A 
ATOM     32  C   UNL     1      48.366  46.186  56.321  0.00  0.00    +0.000 A 
ATOM     33  C   UNL     1      49.353  47.078  56.744  0.00  0.00    +0.000 A 
BRANCH  30  34
ATOM     34  O   UNL     1      45.378  48.266  56.377  0.00  0.00    +0.000 OA
ATOM     35  C   UNL     1      44.475  47.393  56.995  0.00  0.00    +0.000 C 
ENDBRANCH  30  34
BRANCH  32  36
ATOM     36  O   UNL     1      48.584  44.873  55.984  0.00  0.00    +0.000 OA
ATOM     37  C   UNL     1      49.724  44.633  55.204  0.00  0.00    +0.000 C 
ENDBRANCH  32  36
ENDBRANCH  27  28
ENDBRANCH   8  26
TORSDOF 6
ENDMDL
MODEL 8
REMARK VINA RESULT:      -6.5     21.265     25.512
REMARK  Name = AZD4547.pdbqt.pdb
REMARK  6 active torsions:
REMARK  status: ('A' for Active; 'I' for Inactive)
REMARK    1  A    between atoms: C_3  and  C_23
REMARK    2  A    between atoms: C_8  and  C_11
REMARK    3  A    between atoms: C_12  and  C_13
REMARK    4  A    between atoms: C_15  and  O_19
REMARK    5  A    between atoms: C_17  and  O_21
REMARK    6  A    between atoms: C_26  and  N_29
REMARK                            x       y       z     vdW  Elec       q    Type
REMARK                         _______ _______ _______ _____ _____    ______ ____
ROOT
ATOM      1  O   UNL     1      58.104  70.849  81.785  0.00  0.00    +0.000 OA
ATOM      2  N   UNL     1      57.859  71.609  83.959  0.00  0.00    +0.000 N 
ATOM      3  C   UNL     1      58.127  71.751  82.616  0.00  0.00    +0.000 C 
ATOM      4  H   UNL     1      57.893  72.382  84.606  0.00  0.00    +0.000 HD
ATOM      5  C   UNL     1      57.519  70.422  84.562  0.00  0.00    +0.000 A 
ATOM      6  N   UNL     1      57.284  70.412  85.878  0.00  0.00    +0.000 NA
ATOM      7  N   UNL     1      56.985  69.126  86.139  0.00  0.00    +0.000 N 
ATOM      8  C   UNL     1      57.020  68.321  85.039  0.00  0.00    +0.000 A 
ATOM      9  H   UNL     1      56.765  68.863  87.093  0.00  0.00    +0.000 HD
ATOM     10  C   UNL     1      57.367  69.135  83.990  0.00  0.00    +0.000 A 
ENDROOT
BRANCH   3  11
ATOM     11  C   UNL     1      58.471  73.122  82.164  0.00  0.00    +0.000 A 
ATOM     12  C   UNL     1      58.953  74.031  83.104  0.00  0.00    +0.000 A 
ATOM     13  C   UNL     1      59.287  75.327  82.716  0.00  0.00    +0.000 A 
ATOM     14  C   UNL     1      59.133  75.749  81.389  0.00  0.00    +0.000 A 
ATOM     15  C   UNL     1      58.664  74.816  80.454  0.00  0.00    +0.000 A 
ATOM     16  C   UNL     1      58.329  73.517  80.836  0.00  0.00    +0.000 A 
BRANCH  14  17
ATOM     17  N   UNL     1      59.514  77.052  80.989  0.00  0.00    +0.000 N 
ATOM     18  C   UNL     1      60.744  77.209  80.193  0.00  0.00    +0.000 C 
ATOM     19  C   UNL     1      61.917  78.014  80.282  0.00  0.00    +0.000 C 
ATOM     20  N   UNL     1      61.992  78.914  81.389  0.00  0.00    +0.000 N 
ATOM     21  C   UNL     1      63.036  77.918  79.308  0.00  0.00    +0.000 C 
ATOM     22  C   UNL     1      60.899  78.934  82.307  0.00  0.00    +0.000 C 
ATOM     23  H   UNL     1      62.802  79.498  81.530  0.00  0.00    +0.000 HD
ATOM     24  C   UNL     1      59.818  78.045  82.033  0.00  0.00    +0.000 C 
ATOM     25  C   UNL     1      60.930  79.813  83.506  0.00  0.00    +0.000 C 
ENDBRANCH  14  17
ENDBRANCH   3  11
BRANCH   8  26
ATOM     26  C   UNL     1      56.746  66.933  85.032  0.00  0.00    +0.000 C 
ATOM     27  C   UNL     1      56.446  65.430  85.027  0.00  0.00    +0.000 C 
BRANCH  27  28
ATOM     28  C   UNL     1      56.160  64.034  85.029  0.00  0.00    +0.000 A 
ATOM     29  C   UNL     1      56.370  63.285  86.183  0.00  0.00    +0.000 A 
ATOM     30  C   UNL     1      56.087  61.917  86.192  0.00  0.00    +0.000 A 
ATOM     31  C   UNL     1      55.587  61.313  85.036  0.00  0.00    +0.000 A 
ATOM     32  C   UNL     1      55.380  62.060  83.875  0.00  0.00    +0.000 A 
ATOM     33  C   UNL     1      55.667  63.427  83.879  0.00  0.00    +0.000 A 
BRANCH  30  34
ATOM     34  O   UNL     1      56.249  61.086  87.273  0.00  0.00    +0.000 OA
ATOM     35  C   UNL     1      55.772  61.585  88.491  0.00  0.00    +0.000 C 
ENDBRANCH  30  34
BRANCH  32  36
ATOM     36  O   UNL     1      54.885  61.362  82.801  0.00  0.00    +0.000 OA
ATOM     37  C   UNL     1      55.146  59.985  82.806  0.00  0.00    +0.000 C 
ENDBRANCH  32  36
ENDBRANCH  27  28
ENDBRANCH   8  26
TORSDOF 6
ENDMDL
MODEL 9
REMARK VINA RESULT:      -6.5      5.657     15.822
REMARK  Name = AZD4547.pdbqt.pdb
REMARK  6 active torsions:
REMARK  status: ('A' for Active; 'I' for Inactive)
REMARK    1  A    between atoms: C_3  and  C_23
REMARK    2  A    between atoms: C_8  and  C_11
REMARK    3  A    between atoms: C_12  and  C_13
REMARK    4  A    between atoms: C_15  and  O_19
REMARK    5  A    between atoms: C_17  and  O_21
REMARK    6  A    between atoms: C_26  and  N_29
REMARK                            x       y       z     vdW  Elec       q    Type
REMARK                         _______ _______ _______ _____ _____    ______ ____
ROOT
ATOM      1  O   UNL     1      69.479  55.799  62.671  0.00  0.00    +0.000 OA
ATOM      2  N   UNL     1      70.276  55.041  64.708  0.00  0.00    +0.000 N 
ATOM      3  C   UNL     1      69.771  55.988  63.846  0.00  0.00    +0.000 C 
ATOM      4  H   UNL     1      70.506  55.245  65.669  0.00  0.00    +0.000 HD
ATOM      5  C   UNL     1      70.520  53.732  64.367  0.00  0.00    +0.000 A 
ATOM      6  N   UNL     1      71.015  52.906  65.295  0.00  0.00    +0.000 NA
ATOM      7  N   UNL     1      71.131  51.732  64.647  0.00  0.00    +0.000 N 
ATOM      8  C   UNL     1      70.728  51.782  63.346  0.00  0.00    +0.000 A 
ATOM      9  H   UNL     1      71.494  50.932  65.154  0.00  0.00    +0.000 HD
ATOM     10  C   UNL     1      70.323  53.075  63.128  0.00  0.00    +0.000 A 
ENDROOT
BRANCH   3  11
ATOM     11  C   UNL     1      69.578  57.346  64.415  0.00  0.00    +0.000 A 
ATOM     12  C   UNL     1      69.059  58.344  63.593  0.00  0.00    +0.000 A 
ATOM     13  C   UNL     1      68.864  59.630  64.092  0.00  0.00    +0.000 A 
ATOM     14  C   UNL     1      69.195  59.952  65.415  0.00  0.00    +0.000 A 
ATOM     15  C   UNL     1      69.698  58.931  66.232  0.00  0.00    +0.000 A 
ATOM     16  C   UNL     1      69.895  57.642  65.739  0.00  0.00    +0.000 A 
BRANCH  14  17
ATOM     17  N   UNL     1      68.955  61.247  65.933  0.00  0.00    +0.000 N 
ATOM     18  C   UNL     1      67.753  61.970  65.483  0.00  0.00    +0.000 C 
ATOM     19  C   UNL     1      67.485  63.264  64.946  0.00  0.00    +0.000 C 
ATOM     20  N   UNL     1      68.610  64.127  64.770  0.00  0.00    +0.000 N 
ATOM     21  C   UNL     1      66.122  63.704  64.548  0.00  0.00    +0.000 C 
ATOM     22  C   UNL     1      69.896  63.632  65.141  0.00  0.00    +0.000 C 
ATOM     23  H   UNL     1      68.500  65.048  64.374  0.00  0.00    +0.000 HD
ATOM     24  C   UNL     1      69.943  62.304  65.661  0.00  0.00    +0.000 C 
ATOM     25  C   UNL     1      71.115  64.459  64.944  0.00  0.00    +0.000 C 
ENDBRANCH  14  17
ENDBRANCH   3  11
BRANCH   8  26
ATOM     26  C   UNL     1      70.743  50.693  62.442  0.00  0.00    +0.000 C 
ATOM     27  C   UNL     1      70.755  49.515  61.463  0.00  0.00    +0.000 C 
BRANCH  27  28
ATOM     28  C   UNL     1      70.758  48.422  60.549  0.00  0.00    +0.000 A 
ATOM     29  C   UNL     1      70.452  48.637  59.208  0.00  0.00    +0.000 A 
ATOM     30  C   UNL     1      70.458  47.570  58.307  0.00  0.00    +0.000 A 
ATOM     31  C   UNL     1      70.778  46.289  58.764  0.00  0.00    +0.000 A 
ATOM     32  C   UNL     1      71.079  46.068  60.109  0.00  0.00    +0.000 A 
ATOM     33  C   UNL     1      71.070  47.143  60.999  0.00  0.00    +0.000 A 
BRANCH  30  34
ATOM     34  O   UNL     1      70.181  47.670  56.966  0.00  0.00    +0.000 OA
ATOM     35  C   UNL     1      69.251  48.656  56.616  0.00  0.00    +0.000 C 
ENDBRANCH  30  34
BRANCH  32  36
ATOM     36  O   UNL     1      71.378  44.770  60.444  0.00  0.00    +0.000 OA
ATOM     37  C   UNL     1      70.365  44.075  61.119  0.00  0.00    +0.000 C 
ENDBRANCH  32  36
ENDBRANCH  27  28
ENDBRANCH   8  26
TORSDOF 6
ENDMDL
