MODEL 1
REMARK VINA RESULT:      -6.1      0.000      0.000
REMARK  Name = Belinostat.pdbqt.pdb
REMARK  6 active torsions:
REMARK  status: ('A' for Active; 'I' for Inactive)
REMARK    1  A    between atoms: C_1  and  S_7
REMARK    2  A    between atoms: C_3  and  C_18
REMARK    3  A    between atoms: S_7  and  N_10
REMARK    4  A    between atoms: N_10  and  C_12
REMARK    5  A    between atoms: C_19  and  C_20
REMARK    6  A    between atoms: N_22  and  O_24
REMARK                            x       y       z     vdW  Elec       q    Type
REMARK                         _______ _______ _______ _____ _____    ______ ____
ROOT
ATOM      1  C   UNL     1      52.223  35.521  59.334  0.00  0.00    +0.000 A 
ATOM      2  C   UNL     1      50.894  35.802  59.628  0.00  0.00    +0.000 A 
ATOM      3  C   UNL     1      50.458  35.702  60.945  0.00  0.00    +0.000 A 
ATOM      4  C   UNL     1      53.130  35.173  60.329  0.00  0.00    +0.000 A 
ATOM      5  C   UNL     1      51.351  35.340  61.954  0.00  0.00    +0.000 A 
ATOM      6  C   UNL     1      52.686  35.077  61.645  0.00  0.00    +0.000 A 
ENDROOT
BRANCH   1   7
ATOM      7  S   UNL     1      52.793  35.683  57.680  0.00  0.00    +0.000 S 
ATOM      8  O   UNL     1      54.239  35.701  57.730  0.00  0.00    +0.000 OA
ATOM      9  O   UNL     1      52.053  36.755  57.050  0.00  0.00    +0.000 OA
BRANCH   7  10
ATOM     10  N   UNL     1      52.361  34.226  56.976  0.00  0.00    +0.000 N 
ATOM     11  H   UNL     1      51.620  34.297  56.280  0.00  0.00    +0.000 HD
BRANCH  10  12
ATOM     12  C   UNL     1      53.188  33.068  57.005  0.00  0.00    +0.000 A 
ATOM     13  C   UNL     1      53.204  32.179  58.078  0.00  0.00    +0.000 A 
ATOM     14  C   UNL     1      53.971  31.018  58.020  0.00  0.00    +0.000 A 
ATOM     15  C   UNL     1      54.705  30.727  56.875  0.00  0.00    +0.000 A 
ATOM     16  C   UNL     1      54.666  31.593  55.785  0.00  0.00    +0.000 A 
ATOM     17  C   UNL     1      53.899  32.753  55.847  0.00  0.00    +0.000 A 
ENDBRANCH  10  12
ENDBRANCH   7  10
ENDBRANCH   1   7
BRANCH   3  18
ATOM     18  C   UNL     1      49.094  35.973  61.264  0.00  0.00    +0.000 C 
ATOM     19  C   UNL     1      47.946  36.203  61.530  0.00  0.00    +0.000 C 
BRANCH  19  20
ATOM     20  C   UNL     1      46.567  36.478  61.848  0.00  0.00    +0.000 C 
ATOM     21  O   UNL     1      46.271  37.436  62.553  0.00  0.00    +0.000 OA
ATOM     22  N   UNL     1      45.647  35.621  61.312  0.00  0.00    +0.000 N 
ATOM     23  H   UNL     1      45.870  34.860  60.682  0.00  0.00    +0.000 HD
BRANCH  22  24
ATOM     24  O   UNL     1      44.283  35.888  61.563  0.00  0.00    +0.000 OA
ATOM     25  H   UNL     1      44.231  36.863  61.462  0.00  0.00    +0.000 HD
ENDBRANCH  22  24
ENDBRANCH  19  20
ENDBRANCH   3  18
TORSDOF 6
ENDMDL
MODEL 2
REMARK VINA RESULT:      -5.9      2.958      8.036
REMARK  Name = Belinostat.pdbqt.pdb
REMARK  6 active torsions:
REMARK  status: ('A' for Active; 'I' for Inactive)
REMARK    1  A    between atoms: C_1  and  S_7
REMARK    2  A    between atoms: C_3  and  C_18
REMARK    3  A    between atoms: S_7  and  N_10
REMARK    4  A    between atoms: N_10  and  C_12
REMARK    5  A    between atoms: C_19  and  C_20
REMARK    6  A    between atoms: N_22  and  O_24
REMARK                            x       y       z     vdW  Elec       q    Type
REMARK                         _______ _______ _______ _____ _____    ______ ____
ROOT
ATOM      1  C   UNL     1      48.201  36.446  61.862  0.00  0.00    +0.000 A 
ATOM      2  C   UNL     1      49.001  36.396  60.726  0.00  0.00    +0.000 A 
ATOM      3  C   UNL     1      50.183  35.664  60.763  0.00  0.00    +0.000 A 
ATOM      4  C   UNL     1      48.543  35.757  63.021  0.00  0.00    +0.000 A 
ATOM      5  C   UNL     1      50.548  34.980  61.923  0.00  0.00    +0.000 A 
ATOM      6  C   UNL     1      49.726  35.026  63.050  0.00  0.00    +0.000 A 
ENDROOT
BRANCH   1   7
ATOM      7  S   UNL     1      46.687  37.334  61.813  0.00  0.00    +0.000 S 
ATOM      8  O   UNL     1      46.848  38.393  60.840  0.00  0.00    +0.000 OA
ATOM      9  O   UNL     1      46.287  37.622  63.173  0.00  0.00    +0.000 OA
BRANCH   7  10
ATOM     10  N   UNL     1      45.614  36.235  61.144  0.00  0.00    +0.000 N 
ATOM     11  H   UNL     1      45.558  36.265  60.127  0.00  0.00    +0.000 HD
BRANCH  10  12
ATOM     12  C   UNL     1      45.132  35.091  61.840  0.00  0.00    +0.000 A 
ATOM     13  C   UNL     1      44.098  35.154  62.771  0.00  0.00    +0.000 A 
ATOM     14  C   UNL     1      43.609  33.992  63.363  0.00  0.00    +0.000 A 
ATOM     15  C   UNL     1      44.136  32.755  63.003  0.00  0.00    +0.000 A 
ATOM     16  C   UNL     1      45.145  32.681  62.047  0.00  0.00    +0.000 A 
ATOM     17  C   UNL     1      45.631  33.845  61.458  0.00  0.00    +0.000 A 
ENDBRANCH  10  12
ENDBRANCH   7  10
ENDBRANCH   1   7
BRANCH   3  18
ATOM     18  C   UNL     1      51.023  35.613  59.611  0.00  0.00    +0.000 C 
ATOM     19  C   UNL     1      51.728  35.572  58.640  0.00  0.00    +0.000 C 
BRANCH  19  20
ATOM     20  C   UNL     1      52.574  35.523  57.473  0.00  0.00    +0.000 C 
ATOM     21  O   UNL     1      53.787  35.661  57.579  0.00  0.00    +0.000 OA
ATOM     22  N   UNL     1      51.938  35.307  56.283  0.00  0.00    +0.000 N 
ATOM     23  H   UNL     1      50.944  35.134  56.185  0.00  0.00    +0.000 HD
BRANCH  22  24
ATOM     24  O   UNL     1      52.739  35.205  55.124  0.00  0.00    +0.000 OA
ATOM     25  H   UNL     1      52.091  35.349  54.400  0.00  0.00    +0.000 HD
ENDBRANCH  22  24
ENDBRANCH  19  20
ENDBRANCH   3  18
TORSDOF 6
ENDMDL
MODEL 3
REMARK VINA RESULT:      -5.7     32.651     33.980
REMARK  Name = Belinostat.pdbqt.pdb
REMARK  6 active torsions:
REMARK  status: ('A' for Active; 'I' for Inactive)
REMARK    1  A    between atoms: C_1  and  S_7
REMARK    2  A    between atoms: C_3  and  C_18
REMARK    3  A    between atoms: S_7  and  N_10
REMARK    4  A    between atoms: N_10  and  C_12
REMARK    5  A    between atoms: C_19  and  C_20
REMARK    6  A    between atoms: N_22  and  O_24
REMARK                            x       y       z     vdW  Elec       q    Type
REMARK                         _______ _______ _______ _____ _____    ______ ____
ROOT
ATOM      1  C   UNL     1      58.946  66.450  70.003  0.00  0.00    +0.000 A 
ATOM      2  C   UNL     1      58.259  65.441  69.337  0.00  0.00    +0.000 A 
ATOM      3  C   UNL     1      56.870  65.406  69.412  0.00  0.00    +0.000 A 
ATOM      4  C   UNL     1      58.274  67.439  70.715  0.00  0.00    +0.000 A 
ATOM      5  C   UNL     1      56.182  66.381  70.135  0.00  0.00    +0.000 A 
ATOM      6  C   UNL     1      56.884  67.397  70.784  0.00  0.00    +0.000 A 
ENDROOT
BRANCH   1   7
ATOM      7  S   UNL     1      60.696  66.527  69.881  0.00  0.00    +0.000 S 
ATOM      8  O   UNL     1      61.178  65.164  69.825  0.00  0.00    +0.000 OA
ATOM      9  O   UNL     1      61.178  67.450  70.885  0.00  0.00    +0.000 OA
BRANCH   7  10
ATOM     10  N   UNL     1      60.951  67.183  68.361  0.00  0.00    +0.000 N 
ATOM     11  H   UNL     1      60.120  67.221  67.772  0.00  0.00    +0.000 HD
BRANCH  10  12
ATOM     12  C   UNL     1      62.076  67.992  68.038  0.00  0.00    +0.000 A 
ATOM     13  C   UNL     1      62.033  69.385  68.048  0.00  0.00    +0.000 A 
ATOM     14  C   UNL     1      63.185  70.128  67.804  0.00  0.00    +0.000 A 
ATOM     15  C   UNL     1      64.395  69.479  67.575  0.00  0.00    +0.000 A 
ATOM     16  C   UNL     1      64.453  68.089  67.600  0.00  0.00    +0.000 A 
ATOM     17  C   UNL     1      63.299  67.349  67.843  0.00  0.00    +0.000 A 
ENDBRANCH  10  12
ENDBRANCH   7  10
ENDBRANCH   1   7
BRANCH   3  18
ATOM     18  C   UNL     1      56.150  64.370  68.748  0.00  0.00    +0.000 C 
ATOM     19  C   UNL     1      55.541  63.499  68.187  0.00  0.00    +0.000 C 
BRANCH  19  20
ATOM     20  C   UNL     1      54.809  62.455  67.514  0.00  0.00    +0.000 C 
ATOM     21  O   UNL     1      54.100  62.716  66.549  0.00  0.00    +0.000 OA
ATOM     22  N   UNL     1      54.972  61.194  68.014  0.00  0.00    +0.000 N 
ATOM     23  H   UNL     1      55.598  60.953  68.773  0.00  0.00    +0.000 HD
BRANCH  22  24
ATOM     24  O   UNL     1      54.309  60.138  67.350  0.00  0.00    +0.000 OA
ATOM     25  H   UNL     1      54.727  59.340  67.742  0.00  0.00    +0.000 HD
ENDBRANCH  22  24
ENDBRANCH  19  20
ENDBRANCH   3  18
TORSDOF 6
ENDMDL
MODEL 4
REMARK VINA RESULT:      -5.4      4.067      7.328
REMARK  Name = Belinostat.pdbqt.pdb
REMARK  6 active torsions:
REMARK  status: ('A' for Active; 'I' for Inactive)
REMARK    1  A    between atoms: C_1  and  S_7
REMARK    2  A    between atoms: C_3  and  C_18
REMARK    3  A    between atoms: S_7  and  N_10
REMARK    4  A    between atoms: N_10  and  C_12
REMARK    5  A    between atoms: C_19  and  C_20
REMARK    6  A    between atoms: N_22  and  O_24
REMARK                            x       y       z     vdW  Elec       q    Type
REMARK                         _______ _______ _______ _____ _____    ______ ____
ROOT
ATOM      1  C   UNL     1      51.741  35.665  62.370  0.00  0.00    +0.000 A 
ATOM      2  C   UNL     1      52.294  35.338  61.137  0.00  0.00    +0.000 A 
ATOM      3  C   UNL     1      51.451  35.170  60.043  0.00  0.00    +0.000 A 
ATOM      4  C   UNL     1      50.372  35.856  62.525  0.00  0.00    +0.000 A 
ATOM      5  C   UNL     1      50.075  35.343  60.184  0.00  0.00    +0.000 A 
ATOM      6  C   UNL     1      49.536  35.688  61.425  0.00  0.00    +0.000 A 
ENDROOT
BRANCH   1   7
ATOM      7  S   UNL     1      52.798  35.919  63.749  0.00  0.00    +0.000 S 
ATOM      8  O   UNL     1      52.957  34.639  64.403  0.00  0.00    +0.000 OA
ATOM      9  O   UNL     1      52.323  37.077  64.476  0.00  0.00    +0.000 OA
BRANCH   7  10
ATOM     10  N   UNL     1      54.275  36.279  63.045  0.00  0.00    +0.000 N 
ATOM     11  H   UNL     1      54.217  36.887  62.230  0.00  0.00    +0.000 HD
BRANCH  10  12
ATOM     12  C   UNL     1      55.520  36.123  63.717  0.00  0.00    +0.000 A 
ATOM     13  C   UNL     1      55.961  37.004  64.702  0.00  0.00    +0.000 A 
ATOM     14  C   UNL     1      57.149  36.760  65.387  0.00  0.00    +0.000 A 
ATOM     15  C   UNL     1      57.889  35.615  65.107  0.00  0.00    +0.000 A 
ATOM     16  C   UNL     1      57.435  34.711  64.150  0.00  0.00    +0.000 A 
ATOM     17  C   UNL     1      56.248  34.960  63.467  0.00  0.00    +0.000 A 
ENDBRANCH  10  12
ENDBRANCH   7  10
ENDBRANCH   1   7
BRANCH   3  18
ATOM     18  C   UNL     1      52.000  34.820  58.773  0.00  0.00    +0.000 C 
ATOM     19  C   UNL     1      52.461  34.522  57.705  0.00  0.00    +0.000 C 
BRANCH  19  20
ATOM     20  C   UNL     1      53.016  34.164  56.423  0.00  0.00    +0.000 C 
ATOM     21  O   UNL     1      53.770  33.204  56.318  0.00  0.00    +0.000 OA
ATOM     22  N   UNL     1      52.639  34.948  55.369  0.00  0.00    +0.000 N 
ATOM     23  H   UNL     1      51.972  35.709  55.429  0.00  0.00    +0.000 HD
BRANCH  22  24
ATOM     24  O   UNL     1      53.123  34.599  54.089  0.00  0.00    +0.000 OA
ATOM     25  H   UNL     1      53.451  35.457  53.741  0.00  0.00    +0.000 HD
ENDBRANCH  22  24
ENDBRANCH  19  20
ENDBRANCH   3  18
TORSDOF 6
ENDMDL
MODEL 5
REMARK VINA RESULT:      -5.3      9.476     11.765
REMARK  Name = Belinostat.pdbqt.pdb
REMARK  6 active torsions:
REMARK  status: ('A' for Active; 'I' for Inactive)
REMARK    1  A    between atoms: C_1  and  S_7
REMARK    2  A    between atoms: C_3  and  C_18
REMARK    3  A    between atoms: S_7  and  N_10
REMARK    4  A    between atoms: N_10  and  C_12
REMARK    5  A    between atoms: C_19  and  C_20
REMARK    6  A    between atoms: N_22  and  O_24
REMARK                            x       y       z     vdW  Elec       q    Type
REMARK                         _______ _______ _______ _____ _____    ______ ____
ROOT
ATOM      1  C   UNL     1      58.912  36.431  65.300  0.00  0.00    +0.000 A 
ATOM      2  C   UNL     1      59.333  37.468  66.124  0.00  0.00    +0.000 A 
ATOM      3  C   UNL     1      60.474  37.293  66.901  0.00  0.00    +0.000 A 
ATOM      4  C   UNL     1      59.622  35.237  65.214  0.00  0.00    +0.000 A 
ATOM      5  C   UNL     1      61.189  36.097  66.838  0.00  0.00    +0.000 A 
ATOM      6  C   UNL     1      60.763  35.071  65.994  0.00  0.00    +0.000 A 
ENDROOT
BRANCH   1   7
ATOM      7  S   UNL     1      57.497  36.656  64.286  0.00  0.00    +0.000 S 
ATOM      8  O   UNL     1      57.944  37.307  63.073  0.00  0.00    +0.000 OA
ATOM      9  O   UNL     1      56.445  37.227  65.097  0.00  0.00    +0.000 OA
BRANCH   7  10
ATOM     10  N   UNL     1      57.075  35.093  63.856  0.00  0.00    +0.000 N 
ATOM     11  H   UNL     1      57.772  34.387  64.090  0.00  0.00    +0.000 HD
BRANCH  10  12
ATOM     12  C   UNL     1      55.737  34.692  63.580  0.00  0.00    +0.000 A 
ATOM     13  C   UNL     1      54.921  35.362  62.671  0.00  0.00    +0.000 A 
ATOM     14  C   UNL     1      53.648  34.880  62.376  0.00  0.00    +0.000 A 
ATOM     15  C   UNL     1      53.195  33.707  62.973  0.00  0.00    +0.000 A 
ATOM     16  C   UNL     1      54.019  33.013  63.855  0.00  0.00    +0.000 A 
ATOM     17  C   UNL     1      55.291  33.498  64.147  0.00  0.00    +0.000 A 
ENDBRANCH  10  12
ENDBRANCH   7  10
ENDBRANCH   1   7
BRANCH   3  18
ATOM     18  C   UNL     1      60.913  38.342  67.763  0.00  0.00    +0.000 C 
ATOM     19  C   UNL     1      61.284  39.222  68.491  0.00  0.00    +0.000 C 
BRANCH  19  20
ATOM     20  C   UNL     1      61.729  40.279  69.365  0.00  0.00    +0.000 C 
ATOM     21  O   UNL     1      61.182  40.463  70.446  0.00  0.00    +0.000 OA
ATOM     22  N   UNL     1      62.779  41.027  68.912  0.00  0.00    +0.000 N 
ATOM     23  H   UNL     1      63.279  40.851  68.048  0.00  0.00    +0.000 HD
BRANCH  22  24
ATOM     24  O   UNL     1      63.274  42.040  69.763  0.00  0.00    +0.000 OA
ATOM     25  H   UNL     1      63.825  42.581  69.156  0.00  0.00    +0.000 HD
ENDBRANCH  22  24
ENDBRANCH  19  20
ENDBRANCH   3  18
TORSDOF 6
ENDMDL
MODEL 6
REMARK VINA RESULT:      -5.3     31.684     32.937
REMARK  Name = Belinostat.pdbqt.pdb
REMARK  6 active torsions:
REMARK  status: ('A' for Active; 'I' for Inactive)
REMARK    1  A    between atoms: C_1  and  S_7
REMARK    2  A    between atoms: C_3  and  C_18
REMARK    3  A    between atoms: S_7  and  N_10
REMARK    4  A    between atoms: N_10  and  C_12
REMARK    5  A    between atoms: C_19  and  C_20
REMARK    6  A    between atoms: N_22  and  O_24
REMARK                            x       y       z     vdW  Elec       q    Type
REMARK                         _______ _______ _______ _____ _____    ______ ____
ROOT
ATOM      1  C   UNL     1      58.671  66.386  69.909  0.00  0.00    +0.000 A 
ATOM      2  C   UNL     1      58.007  65.441  69.135  0.00  0.00    +0.000 A 
ATOM      3  C   UNL     1      56.650  65.223  69.354  0.00  0.00    +0.000 A 
ATOM      4  C   UNL     1      58.005  67.136  70.872  0.00  0.00    +0.000 A 
ATOM      5  C   UNL     1      55.970  65.956  70.326  0.00  0.00    +0.000 A 
ATOM      6  C   UNL     1      56.647  66.912  71.083  0.00  0.00    +0.000 A 
ENDROOT
BRANCH   1   7
ATOM      7  S   UNL     1      60.374  66.698  69.614  0.00  0.00    +0.000 S 
ATOM      8  O   UNL     1      61.007  65.417  69.383  0.00  0.00    +0.000 OA
ATOM      9  O   UNL     1      60.854  67.594  70.643  0.00  0.00    +0.000 OA
BRANCH   7  10
ATOM     10  N   UNL     1      60.374  67.498  68.143  0.00  0.00    +0.000 N 
ATOM     11  H   UNL     1      60.240  68.506  68.210  0.00  0.00    +0.000 HD
BRANCH  10  12
ATOM     12  C   UNL     1      60.912  66.940  66.949  0.00  0.00    +0.000 A 
ATOM     13  C   UNL     1      60.188  66.084  66.122  0.00  0.00    +0.000 A 
ATOM     14  C   UNL     1      60.734  65.632  64.923  0.00  0.00    +0.000 A 
ATOM     15  C   UNL     1      62.000  66.056  64.533  0.00  0.00    +0.000 A 
ATOM     16  C   UNL     1      62.715  66.940  65.337  0.00  0.00    +0.000 A 
ATOM     17  C   UNL     1      62.166  67.389  66.535  0.00  0.00    +0.000 A 
ENDBRANCH  10  12
ENDBRANCH   7  10
ENDBRANCH   1   7
BRANCH   3  18
ATOM     18  C   UNL     1      55.955  64.247  68.579  0.00  0.00    +0.000 C 
ATOM     19  C   UNL     1      55.367  63.427  67.928  0.00  0.00    +0.000 C 
BRANCH  19  20
ATOM     20  C   UNL     1      54.660  62.443  67.147  0.00  0.00    +0.000 C 
ATOM     21  O   UNL     1      53.706  62.770  66.450  0.00  0.00    +0.000 OA
ATOM     22  N   UNL     1      55.128  61.162  67.234  0.00  0.00    +0.000 N 
ATOM     23  H   UNL     1      55.950  60.885  67.759  0.00  0.00    +0.000 HD
BRANCH  22  24
ATOM     24  O   UNL     1      54.491  60.179  66.445  0.00  0.00    +0.000 OA
ATOM     25  H   UNL     1      53.672  60.634  66.153  0.00  0.00    +0.000 HD
ENDBRANCH  22  24
ENDBRANCH  19  20
ENDBRANCH   3  18
TORSDOF 6
ENDMDL
MODEL 7
REMARK VINA RESULT:      -5.2     44.639     46.633
REMARK  Name = Belinostat.pdbqt.pdb
REMARK  6 active torsions:
REMARK  status: ('A' for Active; 'I' for Inactive)
REMARK    1  A    between atoms: C_1  and  S_7
REMARK    2  A    between atoms: C_3  and  C_18
REMARK    3  A    between atoms: S_7  and  N_10
REMARK    4  A    between atoms: N_10  and  C_12
REMARK    5  A    between atoms: C_19  and  C_20
REMARK    6  A    between atoms: N_22  and  O_24
REMARK                            x       y       z     vdW  Elec       q    Type
REMARK                         _______ _______ _______ _____ _____    ______ ____
ROOT
ATOM      1  C   UNL     1      58.277  70.728  85.279  0.00  0.00    +0.000 A 
ATOM      2  C   UNL     1      58.464  71.798  86.147  0.00  0.00    +0.000 A 
ATOM      3  C   UNL     1      59.077  71.572  87.375  0.00  0.00    +0.000 A 
ATOM      4  C   UNL     1      58.715  69.447  85.600  0.00  0.00    +0.000 A 
ATOM      5  C   UNL     1      59.509  70.291  87.719  0.00  0.00    +0.000 A 
ATOM      6  C   UNL     1      59.329  69.230  86.830  0.00  0.00    +0.000 A 
ENDROOT
BRANCH   1   7
ATOM      7  S   UNL     1      57.541  71.009  83.710  0.00  0.00    +0.000 S 
ATOM      8  O   UNL     1      56.173  71.416  83.950  0.00  0.00    +0.000 OA
ATOM      9  O   UNL     1      57.847  69.880  82.858  0.00  0.00    +0.000 OA
BRANCH   7  10
ATOM     10  N   UNL     1      58.345  72.363  83.141  0.00  0.00    +0.000 N 
ATOM     11  H   UNL     1      58.994  72.780  83.807  0.00  0.00    +0.000 HD
BRANCH  10  12
ATOM     12  C   UNL     1      58.458  72.681  81.758  0.00  0.00    +0.000 A 
ATOM     13  C   UNL     1      58.506  71.709  80.762  0.00  0.00    +0.000 A 
ATOM     14  C   UNL     1      58.534  72.075  79.418  0.00  0.00    +0.000 A 
ATOM     15  C   UNL     1      58.487  73.421  79.065  0.00  0.00    +0.000 A 
ATOM     16  C   UNL     1      58.403  74.396  80.054  0.00  0.00    +0.000 A 
ATOM     17  C   UNL     1      58.376  74.026  81.396  0.00  0.00    +0.000 A 
ENDBRANCH  10  12
ENDBRANCH   7  10
ENDBRANCH   1   7
BRANCH   3  18
ATOM     18  C   UNL     1      59.265  72.655  88.284  0.00  0.00    +0.000 C 
ATOM     19  C   UNL     1      59.423  73.565  89.052  0.00  0.00    +0.000 C 
BRANCH  19  20
ATOM     20  C   UNL     1      59.614  74.657  89.974  0.00  0.00    +0.000 C 
ATOM     21  O   UNL     1      59.382  74.510  91.169  0.00  0.00    +0.000 OA
ATOM     22  N   UNL     1      60.066  75.827  89.431  0.00  0.00    +0.000 N 
ATOM     23  H   UNL     1      60.317  75.948  88.456  0.00  0.00    +0.000 HD
BRANCH  22  24
ATOM     24  O   UNL     1      60.310  76.904  90.311  0.00  0.00    +0.000 OA
ATOM     25  H   UNL     1      60.417  77.664  89.697  0.00  0.00    +0.000 HD
ENDBRANCH  22  24
ENDBRANCH  19  20
ENDBRANCH   3  18
TORSDOF 6
ENDMDL
MODEL 8
REMARK VINA RESULT:      -5.1     30.112     32.640
REMARK  Name = Belinostat.pdbqt.pdb
REMARK  6 active torsions:
REMARK  status: ('A' for Active; 'I' for Inactive)
REMARK    1  A    between atoms: C_1  and  S_7
REMARK    2  A    between atoms: C_3  and  C_18
REMARK    3  A    between atoms: S_7  and  N_10
REMARK    4  A    between atoms: N_10  and  C_12
REMARK    5  A    between atoms: C_19  and  C_20
REMARK    6  A    between atoms: N_22  and  O_24
REMARK                            x       y       z     vdW  Elec       q    Type
REMARK                         _______ _______ _______ _____ _____    ______ ____
ROOT
ATOM      1  C   UNL     1      53.789  59.538  81.429  0.00  0.00    +0.000 A 
ATOM      2  C   UNL     1      53.113  59.002  80.339  0.00  0.00    +0.000 A 
ATOM      3  C   UNL     1      51.762  58.697  80.465  0.00  0.00    +0.000 A 
ATOM      4  C   UNL     1      53.137  59.803  82.629  0.00  0.00    +0.000 A 
ATOM      5  C   UNL     1      51.096  58.942  81.666  0.00  0.00    +0.000 A 
ATOM      6  C   UNL     1      51.784  59.496  82.746  0.00  0.00    +0.000 A 
ENDROOT
BRANCH   1   7
ATOM      7  S   UNL     1      55.485  59.964  81.269  0.00  0.00    +0.000 S 
ATOM      8  O   UNL     1      55.739  61.048  82.193  0.00  0.00    +0.000 OA
ATOM      9  O   UNL     1      55.787  60.095  79.860  0.00  0.00    +0.000 OA
BRANCH   7  10
ATOM     10  N   UNL     1      56.281  58.623  81.881  0.00  0.00    +0.000 N 
ATOM     11  H   UNL     1      57.143  58.385  81.393  0.00  0.00    +0.000 HD
BRANCH  10  12
ATOM     12  C   UNL     1      56.046  58.101  83.184  0.00  0.00    +0.000 A 
ATOM     13  C   UNL     1      56.423  58.772  84.345  0.00  0.00    +0.000 A 
ATOM     14  C   UNL     1      56.096  58.256  85.597  0.00  0.00    +0.000 A 
ATOM     15  C   UNL     1      55.363  57.077  85.691  0.00  0.00    +0.000 A 
ATOM     16  C   UNL     1      54.950  56.421  84.535  0.00  0.00    +0.000 A 
ATOM     17  C   UNL     1      55.281  56.939  83.286  0.00  0.00    +0.000 A 
ENDBRANCH  10  12
ENDBRANCH   7  10
ENDBRANCH   1   7
BRANCH   3  18
ATOM     18  C   UNL     1      51.056  58.133  79.360  0.00  0.00    +0.000 C 
ATOM     19  C   UNL     1      50.464  57.660  78.429  0.00  0.00    +0.000 C 
BRANCH  19  20
ATOM     20  C   UNL     1      49.754  57.091  77.310  0.00  0.00    +0.000 C 
ATOM     21  O   UNL     1      48.981  57.777  76.652  0.00  0.00    +0.000 OA
ATOM     22  N   UNL     1      50.010  55.775  77.046  0.00  0.00    +0.000 N 
ATOM     23  H   UNL     1      50.689  55.211  77.545  0.00  0.00    +0.000 HD
BRANCH  22  24
ATOM     24  O   UNL     1      49.370  55.196  75.928  0.00  0.00    +0.000 OA
ATOM     25  H   UNL     1      50.121  54.992  75.331  0.00  0.00    +0.000 HD
ENDBRANCH  22  24
ENDBRANCH  19  20
ENDBRANCH   3  18
TORSDOF 6
ENDMDL
MODEL 9
REMARK VINA RESULT:      -5.1      4.576      7.356
REMARK  Name = Belinostat.pdbqt.pdb
REMARK  6 active torsions:
REMARK  status: ('A' for Active; 'I' for Inactive)
REMARK    1  A    between atoms: C_1  and  S_7
REMARK    2  A    between atoms: C_3  and  C_18
REMARK    3  A    between atoms: S_7  and  N_10
REMARK    4  A    between atoms: N_10  and  C_12
REMARK    5  A    between atoms: C_19  and  C_20
REMARK    6  A    between atoms: N_22  and  O_24
REMARK                            x       y       z     vdW  Elec       q    Type
REMARK                         _______ _______ _______ _____ _____    ______ ____
ROOT
ATOM      1  C   UNL     1      55.655  31.257  54.874  0.00  0.00    +0.000 A 
ATOM      2  C   UNL     1      55.118  32.443  55.361  0.00  0.00    +0.000 A 
ATOM      3  C   UNL     1      53.771  32.481  55.710  0.00  0.00    +0.000 A 
ATOM      4  C   UNL     1      54.885  30.105  54.756  0.00  0.00    +0.000 A 
ATOM      5  C   UNL     1      52.981  31.339  55.583  0.00  0.00    +0.000 A 
ATOM      6  C   UNL     1      53.539  30.151  55.108  0.00  0.00    +0.000 A 
ENDROOT
BRANCH   1   7
ATOM      7  S   UNL     1      57.362  31.186  54.469  0.00  0.00    +0.000 S 
ATOM      8  O   UNL     1      57.881  29.958  55.032  0.00  0.00    +0.000 OA
ATOM      9  O   UNL     1      57.957  32.466  54.790  0.00  0.00    +0.000 OA
BRANCH   7  10
ATOM     10  N   UNL     1      57.359  30.982  52.807  0.00  0.00    +0.000 N 
ATOM     11  H   UNL     1      57.127  30.039  52.497  0.00  0.00    +0.000 HD
BRANCH  10  12
ATOM     12  C   UNL     1      57.269  32.064  51.886  0.00  0.00    +0.000 A 
ATOM     13  C   UNL     1      56.104  32.806  51.705  0.00  0.00    +0.000 A 
ATOM     14  C   UNL     1      56.094  33.907  50.852  0.00  0.00    +0.000 A 
ATOM     15  C   UNL     1      57.260  34.287  50.195  0.00  0.00    +0.000 A 
ATOM     16  C   UNL     1      58.437  33.572  50.400  0.00  0.00    +0.000 A 
ATOM     17  C   UNL     1      58.443  32.472  51.253  0.00  0.00    +0.000 A 
ENDBRANCH  10  12
ENDBRANCH   7  10
ENDBRANCH   1   7
BRANCH   3  18
ATOM     18  C   UNL     1      53.199  33.694  56.198  0.00  0.00    +0.000 C 
ATOM     19  C   UNL     1      52.719  34.716  56.607  0.00  0.00    +0.000 C 
BRANCH  19  20
ATOM     20  C   UNL     1      52.143  35.943  57.098  0.00  0.00    +0.000 C 
ATOM     21  O   UNL     1      52.604  36.492  58.092  0.00  0.00    +0.000 OA
ATOM     22  N   UNL     1      51.085  36.433  56.385  0.00  0.00    +0.000 N 
ATOM     23  H   UNL     1      50.730  36.023  55.529  0.00  0.00    +0.000 HD
BRANCH  22  24
ATOM     24  O   UNL     1      50.525  37.659  56.807  0.00  0.00    +0.000 OA
ATOM     25  H   UNL     1      51.313  38.165  57.105  0.00  0.00    +0.000 HD
ENDBRANCH  22  24
ENDBRANCH  19  20
ENDBRANCH   3  18
TORSDOF 6
ENDMDL
