MODEL 1
REMARK VINA RESULT:      -7.9      0.000      0.000
REMARK  Name = Benzo[a]pyrene.pdbqt.pdb
REMARK  0 active torsions:
REMARK  status: ('A' for Active; 'I' for Inactive)
REMARK                            x       y       z     vdW  Elec       q    Type
REMARK                         _______ _______ _______ _____ _____    ______ ____
ROOT
ATOM      1  C   UNL     1      63.118  52.775  59.633  0.00  0.00    +0.000 A 
ATOM      2  C   UNL     1      64.167  51.850  59.434  0.00  0.00    +0.000 A 
ATOM      3  C   UNL     1      63.403  54.125  59.939  0.00  0.00    +0.000 A 
ATOM      4  C   UNL     1      61.782  52.333  59.521  0.00  0.00    +0.000 A 
ATOM      5  C   UNL     1      62.331  55.030  60.133  0.00  0.00    +0.000 A 
ATOM      6  C   UNL     1      65.508  52.270  59.541  0.00  0.00    +0.000 A 
ATOM      7  C   UNL     1      63.877  50.504  59.129  0.00  0.00    +0.000 A 
ATOM      8  C   UNL     1      61.000  54.568  60.017  0.00  0.00    +0.000 A 
ATOM      9  C   UNL     1      60.740  53.234  59.714  0.00  0.00    +0.000 A 
ATOM     10  C   UNL     1      64.752  54.509  60.038  0.00  0.00    +0.000 A 
ATOM     11  C   UNL     1      61.511  51.000  59.218  0.00  0.00    +0.000 A 
ATOM     12  C   UNL     1      65.790  53.599  59.843  0.00  0.00    +0.000 A 
ATOM     13  C   UNL     1      62.550  50.090  59.024  0.00  0.00    +0.000 A 
ATOM     14  C   UNL     1      66.537  51.350  59.344  0.00  0.00    +0.000 A 
ATOM     15  C   UNL     1      64.920  49.599  58.935  0.00  0.00    +0.000 A 
ATOM     16  C   UNL     1      62.532  56.387  60.440  0.00  0.00    +0.000 A 
ATOM     17  C   UNL     1      59.930  55.442  60.203  0.00  0.00    +0.000 A 
ATOM     18  C   UNL     1      66.245  50.021  59.042  0.00  0.00    +0.000 A 
ATOM     19  C   UNL     1      61.458  57.255  60.625  0.00  0.00    +0.000 A 
ATOM     20  C   UNL     1      60.157  56.782  60.507  0.00  0.00    +0.000 A 
ENDROOT
TORSDOF 0
ENDMDL
MODEL 2
REMARK VINA RESULT:      -7.5      0.720      2.942
REMARK  Name = Benzo[a]pyrene.pdbqt.pdb
REMARK  0 active torsions:
REMARK  status: ('A' for Active; 'I' for Inactive)
REMARK                            x       y       z     vdW  Elec       q    Type
REMARK                         _______ _______ _______ _____ _____    ______ ____
ROOT
ATOM      1  C   UNL     1      63.837  53.369  59.826  0.00  0.00    +0.000 A 
ATOM      2  C   UNL     1      64.392  52.107  59.521  0.00  0.00    +0.000 A 
ATOM      3  C   UNL     1      62.437  53.561  59.798  0.00  0.00    +0.000 A 
ATOM      4  C   UNL     1      64.699  54.436  60.159  0.00  0.00    +0.000 A 
ATOM      5  C   UNL     1      61.909  54.838  60.109  0.00  0.00    +0.000 A 
ATOM      6  C   UNL     1      63.550  51.028  59.186  0.00  0.00    +0.000 A 
ATOM      7  C   UNL     1      65.791  51.921  59.551  0.00  0.00    +0.000 A 
ATOM      8  C   UNL     1      62.789  55.893  60.440  0.00  0.00    +0.000 A 
ATOM      9  C   UNL     1      64.165  55.684  60.462  0.00  0.00    +0.000 A 
ATOM     10  C   UNL     1      61.628  52.463  59.460  0.00  0.00    +0.000 A 
ATOM     11  C   UNL     1      66.079  54.238  60.185  0.00  0.00    +0.000 A 
ATOM     12  C   UNL     1      62.171  51.215  59.158  0.00  0.00    +0.000 A 
ATOM     13  C   UNL     1      66.622  52.990  59.883  0.00  0.00    +0.000 A 
ATOM     14  C   UNL     1      64.107  49.785  58.886  0.00  0.00    +0.000 A 
ATOM     15  C   UNL     1      66.327  50.670  59.248  0.00  0.00    +0.000 A 
ATOM     16  C   UNL     1      60.530  55.109  60.103  0.00  0.00    +0.000 A 
ATOM     17  C   UNL     1      62.290  57.158  60.749  0.00  0.00    +0.000 A 
ATOM     18  C   UNL     1      65.489  49.607  58.917  0.00  0.00    +0.000 A 
ATOM     19  C   UNL     1      60.038  56.374  60.412  0.00  0.00    +0.000 A 
ATOM     20  C   UNL     1      60.918  57.400  60.735  0.00  0.00    +0.000 A 
ENDROOT
TORSDOF 0
ENDMDL
MODEL 3
REMARK VINA RESULT:      -7.5      0.510      6.160
REMARK  Name = Benzo[a]pyrene.pdbqt.pdb
REMARK  0 active torsions:
REMARK  status: ('A' for Active; 'I' for Inactive)
REMARK                            x       y       z     vdW  Elec       q    Type
REMARK                         _______ _______ _______ _____ _____    ______ ____
ROOT
ATOM      1  C   UNL     1      63.370  53.870  60.006  0.00  0.00    +0.000 A 
ATOM      2  C   UNL     1      62.311  54.769  60.263  0.00  0.00    +0.000 A 
ATOM      3  C   UNL     1      63.101  52.563  59.543  0.00  0.00    +0.000 A 
ATOM      4  C   UNL     1      64.698  54.295  60.219  0.00  0.00    +0.000 A 
ATOM      5  C   UNL     1      64.183  51.682  59.294  0.00  0.00    +0.000 A 
ATOM      6  C   UNL     1      60.976  54.365  60.057  0.00  0.00    +0.000 A 
ATOM      7  C   UNL     1      62.585  56.074  60.725  0.00  0.00    +0.000 A 
ATOM      8  C   UNL     1      65.507  52.127  59.514  0.00  0.00    +0.000 A 
ATOM      9  C   UNL     1      65.750  53.420  59.971  0.00  0.00    +0.000 A 
ATOM     10  C   UNL     1      61.759  52.194  59.348  0.00  0.00    +0.000 A 
ATOM     11  C   UNL     1      64.953  55.587  60.677  0.00  0.00    +0.000 A 
ATOM     12  C   UNL     1      60.711  53.077  59.600  0.00  0.00    +0.000 A 
ATOM     13  C   UNL     1      63.905  56.471  60.929  0.00  0.00    +0.000 A 
ATOM     14  C   UNL     1      59.937  55.259  60.312  0.00  0.00    +0.000 A 
ATOM     15  C   UNL     1      61.531  56.953  60.975  0.00  0.00    +0.000 A 
ATOM     16  C   UNL     1      63.999  50.368  58.832  0.00  0.00    +0.000 A 
ATOM     17  C   UNL     1      66.586  51.277  59.275  0.00  0.00    +0.000 A 
ATOM     18  C   UNL     1      60.213  56.547  60.769  0.00  0.00    +0.000 A 
ATOM     19  C   UNL     1      65.082  49.524  58.596  0.00  0.00    +0.000 A 
ATOM     20  C   UNL     1      66.376  49.979  58.818  0.00  0.00    +0.000 A 
ENDROOT
TORSDOF 0
ENDMDL
MODEL 4
REMARK VINA RESULT:      -7.4      7.746      9.476
REMARK  Name = Benzo[a]pyrene.pdbqt.pdb
REMARK  0 active torsions:
REMARK  status: ('A' for Active; 'I' for Inactive)
REMARK                            x       y       z     vdW  Elec       q    Type
REMARK                         _______ _______ _______ _____ _____    ______ ____
ROOT
ATOM      1  C   UNL     1      69.583  57.279  64.406  0.00  0.00    +0.000 A 
ATOM      2  C   UNL     1      69.962  55.924  64.526  0.00  0.00    +0.000 A 
ATOM      3  C   UNL     1      69.642  58.140  65.525  0.00  0.00    +0.000 A 
ATOM      4  C   UNL     1      69.144  57.762  63.155  0.00  0.00    +0.000 A 
ATOM      5  C   UNL     1      69.256  59.495  65.376  0.00  0.00    +0.000 A 
ATOM      6  C   UNL     1      70.404  55.421  65.766  0.00  0.00    +0.000 A 
ATOM      7  C   UNL     1      69.900  55.069  63.405  0.00  0.00    +0.000 A 
ATOM      8  C   UNL     1      68.819  59.958  64.114  0.00  0.00    +0.000 A 
ATOM      9  C   UNL     1      68.767  59.094  63.023  0.00  0.00    +0.000 A 
ATOM     10  C   UNL     1      70.087  57.605  66.746  0.00  0.00    +0.000 A 
ATOM     11  C   UNL     1      69.088  56.905  62.056  0.00  0.00    +0.000 A 
ATOM     12  C   UNL     1      70.463  56.268  66.869  0.00  0.00    +0.000 A 
ATOM     13  C   UNL     1      69.463  55.568  62.179  0.00  0.00    +0.000 A 
ATOM     14  C   UNL     1      70.776  54.082  65.875  0.00  0.00    +0.000 A 
ATOM     15  C   UNL     1      70.277  53.732  63.535  0.00  0.00    +0.000 A 
ATOM     16  C   UNL     1      69.287  60.413  66.439  0.00  0.00    +0.000 A 
ATOM     17  C   UNL     1      68.434  61.288  63.945  0.00  0.00    +0.000 A 
ATOM     18  C   UNL     1      70.713  53.241  64.765  0.00  0.00    +0.000 A 
ATOM     19  C   UNL     1      68.901  61.740  66.264  0.00  0.00    +0.000 A 
ATOM     20  C   UNL     1      68.474  62.177  65.016  0.00  0.00    +0.000 A 
ENDROOT
TORSDOF 0
ENDMDL
MODEL 5
REMARK VINA RESULT:      -7.4      0.736      5.435
REMARK  Name = Benzo[a]pyrene.pdbqt.pdb
REMARK  0 active torsions:
REMARK  status: ('A' for Active; 'I' for Inactive)
REMARK                            x       y       z     vdW  Elec       q    Type
REMARK                         _______ _______ _______ _____ _____    ______ ____
ROOT
ATOM      1  C   UNL     1      63.081  53.478  59.781  0.00  0.00    +0.000 A 
ATOM      2  C   UNL     1      62.506  54.726  60.109  0.00  0.00    +0.000 A 
ATOM      3  C   UNL     1      64.484  53.311  59.800  0.00  0.00    +0.000 A 
ATOM      4  C   UNL     1      62.237  52.402  59.435  0.00  0.00    +0.000 A 
ATOM      5  C   UNL     1      65.034  52.049  59.467  0.00  0.00    +0.000 A 
ATOM      6  C   UNL     1      63.331  55.814  60.457  0.00  0.00    +0.000 A 
ATOM      7  C   UNL     1      61.104  54.888  60.088  0.00  0.00    +0.000 A 
ATOM      8  C   UNL     1      64.171  50.983  59.123  0.00  0.00    +0.000 A 
ATOM      9  C   UNL     1      62.791  51.168  59.110  0.00  0.00    +0.000 A 
ATOM     10  C   UNL     1      65.277  54.418  60.152  0.00  0.00    +0.000 A 
ATOM     11  C   UNL     1      60.854  52.577  59.419  0.00  0.00    +0.000 A 
ATOM     12  C   UNL     1      64.713  55.651  60.476  0.00  0.00    +0.000 A 
ATOM     13  C   UNL     1      60.290  53.810  59.743  0.00  0.00    +0.000 A 
ATOM     14  C   UNL     1      62.754  57.042  60.779  0.00  0.00    +0.000 A 
ATOM     15  C   UNL     1      60.547  56.124  60.413  0.00  0.00    +0.000 A 
ATOM     16  C   UNL     1      66.417  51.802  59.462  0.00  0.00    +0.000 A 
ATOM     17  C   UNL     1      64.690  49.732  58.792  0.00  0.00    +0.000 A 
ATOM     18  C   UNL     1      61.368  57.197  60.757  0.00  0.00    +0.000 A 
ATOM     19  C   UNL     1      66.930  50.550  59.130  0.00  0.00    +0.000 A 
ATOM     20  C   UNL     1      66.066  49.515  58.795  0.00  0.00    +0.000 A 
ENDROOT
TORSDOF 0
ENDMDL
MODEL 6
REMARK VINA RESULT:      -7.3      1.280      5.466
REMARK  Name = Benzo[a]pyrene.pdbqt.pdb
REMARK  0 active torsions:
REMARK  status: ('A' for Active; 'I' for Inactive)
REMARK                            x       y       z     vdW  Elec       q    Type
REMARK                         _______ _______ _______ _____ _____    ______ ____
ROOT
ATOM      1  C   UNL     1      64.140  51.909  59.444  0.00  0.00    +0.000 A 
ATOM      2  C   UNL     1      62.847  52.478  59.471  0.00  0.00    +0.000 A 
ATOM      3  C   UNL     1      65.283  52.727  59.584  0.00  0.00    +0.000 A 
ATOM      4  C   UNL     1      64.273  50.515  59.275  0.00  0.00    +0.000 A 
ATOM      5  C   UNL     1      66.568  52.130  59.553  0.00  0.00    +0.000 A 
ATOM      6  C   UNL     1      62.691  53.869  59.639  0.00  0.00    +0.000 A 
ATOM      7  C   UNL     1      61.708  51.657  59.331  0.00  0.00    +0.000 A 
ATOM      8  C   UNL     1      66.680  50.731  59.383  0.00  0.00    +0.000 A 
ATOM      9  C   UNL     1      65.541  49.943  59.246  0.00  0.00    +0.000 A 
ATOM     10  C   UNL     1      65.091  54.110  59.750  0.00  0.00    +0.000 A 
ATOM     11  C   UNL     1      63.139  49.716  59.137  0.00  0.00    +0.000 A 
ATOM     12  C   UNL     1      63.817  54.675  59.778  0.00  0.00    +0.000 A 
ATOM     13  C   UNL     1      61.865  50.282  59.165  0.00  0.00    +0.000 A 
ATOM     14  C   UNL     1      61.410  54.421  59.665  0.00  0.00    +0.000 A 
ATOM     15  C   UNL     1      60.437  52.229  59.360  0.00  0.00    +0.000 A 
ATOM     16  C   UNL     1      67.752  52.874  59.685  0.00  0.00    +0.000 A 
ATOM     17  C   UNL     1      67.934  50.123  59.349  0.00  0.00    +0.000 A 
ATOM     18  C   UNL     1      60.289  53.605  59.526  0.00  0.00    +0.000 A 
ATOM     19  C   UNL     1      69.002  52.260  59.651  0.00  0.00    +0.000 A 
ATOM     20  C   UNL     1      69.093  50.883  59.482  0.00  0.00    +0.000 A 
ENDROOT
TORSDOF 0
ENDMDL
MODEL 7
REMARK VINA RESULT:      -7.3      8.290     10.081
REMARK  Name = Benzo[a]pyrene.pdbqt.pdb
REMARK  0 active torsions:
REMARK  status: ('A' for Active; 'I' for Inactive)
REMARK                            x       y       z     vdW  Elec       q    Type
REMARK                         _______ _______ _______ _____ _____    ______ ____
ROOT
ATOM      1  C   UNL     1      68.841  59.244  64.549  0.00  0.00    +0.000 A 
ATOM      2  C   UNL     1      69.481  58.097  65.068  0.00  0.00    +0.000 A 
ATOM      3  C   UNL     1      68.654  60.386  65.360  0.00  0.00    +0.000 A 
ATOM      4  C   UNL     1      68.391  59.235  63.212  0.00  0.00    +0.000 A 
ATOM      5  C   UNL     1      68.008  61.523  64.814  0.00  0.00    +0.000 A 
ATOM      6  C   UNL     1      69.938  58.085  66.401  0.00  0.00    +0.000 A 
ATOM      7  C   UNL     1      69.666  56.959  64.253  0.00  0.00    +0.000 A 
ATOM      8  C   UNL     1      67.565  61.493  63.472  0.00  0.00    +0.000 A 
ATOM      9  C   UNL     1      67.759  60.358  62.689  0.00  0.00    +0.000 A 
ATOM     10  C   UNL     1      69.121  60.339  66.685  0.00  0.00    +0.000 A 
ATOM     11  C   UNL     1      68.581  58.104  62.419  0.00  0.00    +0.000 A 
ATOM     12  C   UNL     1      69.754  59.209  67.201  0.00  0.00    +0.000 A 
ATOM     13  C   UNL     1      69.213  56.973  62.935  0.00  0.00    +0.000 A 
ATOM     14  C   UNL     1      70.569  56.948  66.904  0.00  0.00    +0.000 A 
ATOM     15  C   UNL     1      70.299  55.832  64.775  0.00  0.00    +0.000 A 
ATOM     16  C   UNL     1      67.784  62.696  65.555  0.00  0.00    +0.000 A 
ATOM     17  C   UNL     1      66.928  62.601  62.914  0.00  0.00    +0.000 A 
ATOM     18  C   UNL     1      70.749  55.826  66.095  0.00  0.00    +0.000 A 
ATOM     19  C   UNL     1      67.147  63.799  64.992  0.00  0.00    +0.000 A 
ATOM     20  C   UNL     1      66.718  63.751  63.671  0.00  0.00    +0.000 A 
ENDROOT
TORSDOF 0
ENDMDL
MODEL 8
REMARK VINA RESULT:      -7.1      1.558      3.370
REMARK  Name = Benzo[a]pyrene.pdbqt.pdb
REMARK  0 active torsions:
REMARK  status: ('A' for Active; 'I' for Inactive)
REMARK                            x       y       z     vdW  Elec       q    Type
REMARK                         _______ _______ _______ _____ _____    ______ ____
ROOT
ATOM      1  C   UNL     1      64.618  52.065  59.513  0.00  0.00    +0.000 A 
ATOM      2  C   UNL     1      65.967  52.446  59.687  0.00  0.00    +0.000 A 
ATOM      3  C   UNL     1      63.586  53.025  59.607  0.00  0.00    +0.000 A 
ATOM      4  C   UNL     1      64.315  50.713  59.245  0.00  0.00    +0.000 A 
ATOM      5  C   UNL     1      62.241  52.615  59.429  0.00  0.00    +0.000 A 
ATOM      6  C   UNL     1      66.291  53.791  59.955  0.00  0.00    +0.000 A 
ATOM      7  C   UNL     1      66.993  51.483  59.592  0.00  0.00    +0.000 A 
ATOM      8  C   UNL     1      61.959  51.256  59.161  0.00  0.00    +0.000 A 
ATOM      9  C   UNL     1      62.990  50.325  59.072  0.00  0.00    +0.000 A 
ATOM     10  C   UNL     1      63.945  54.357  59.876  0.00  0.00    +0.000 A 
ATOM     11  C   UNL     1      65.340  49.772  59.154  0.00  0.00    +0.000 A 
ATOM     12  C   UNL     1      65.276  54.738  60.048  0.00  0.00    +0.000 A 
ATOM     13  C   UNL     1      66.670  50.153  59.326  0.00  0.00    +0.000 A 
ATOM     14  C   UNL     1      67.626  54.158  60.125  0.00  0.00    +0.000 A 
ATOM     15  C   UNL     1      68.322  51.870  59.765  0.00  0.00    +0.000 A 
ATOM     16  C   UNL     1      61.160  53.508  59.507  0.00  0.00    +0.000 A 
ATOM     17  C   UNL     1      60.643  50.830  58.982  0.00  0.00    +0.000 A 
ATOM     18  C   UNL     1      68.637  53.202  60.030  0.00  0.00    +0.000 A 
ATOM     19  C   UNL     1      59.848  53.077  59.327  0.00  0.00    +0.000 A 
ATOM     20  C   UNL     1      59.590  51.736  59.065  0.00  0.00    +0.000 A 
ENDROOT
TORSDOF 0
ENDMDL
MODEL 9
REMARK VINA RESULT:      -7.0     24.850     26.185
REMARK  Name = Benzo[a]pyrene.pdbqt.pdb
REMARK  0 active torsions:
REMARK  status: ('A' for Active; 'I' for Inactive)
REMARK                            x       y       z     vdW  Elec       q    Type
REMARK                         _______ _______ _______ _____ _____    ______ ____
ROOT
ATOM      1  C   UNL     1      50.770  54.952  82.071  0.00  0.00    +0.000 A 
ATOM      2  C   UNL     1      51.574  56.106  82.199  0.00  0.00    +0.000 A 
ATOM      3  C   UNL     1      50.988  53.832  82.906  0.00  0.00    +0.000 A 
ATOM      4  C   UNL     1      49.746  54.932  81.100  0.00  0.00    +0.000 A 
ATOM      5  C   UNL     1      50.165  52.688  82.755  0.00  0.00    +0.000 A 
ATOM      6  C   UNL     1      52.602  56.146  83.162  0.00  0.00    +0.000 A 
ATOM      7  C   UNL     1      51.352  57.221  81.364  0.00  0.00    +0.000 A 
ATOM      8  C   UNL     1      49.145  52.689  81.777  0.00  0.00    +0.000 A 
ATOM      9  C   UNL     1      48.947  53.802  80.965  0.00  0.00    +0.000 A 
ATOM     10  C   UNL     1      52.021  53.907  83.855  0.00  0.00    +0.000 A 
ATOM     11  C   UNL     1      49.538  56.042  80.282  0.00  0.00    +0.000 A 
ATOM     12  C   UNL     1      52.818  55.044  83.985  0.00  0.00    +0.000 A 
ATOM     13  C   UNL     1      50.335  57.179  80.412  0.00  0.00    +0.000 A 
ATOM     14  C   UNL     1      53.392  57.290  83.281  0.00  0.00    +0.000 A 
ATOM     15  C   UNL     1      52.153  58.355  81.499  0.00  0.00    +0.000 A 
ATOM     16  C   UNL     1      50.318  51.536  83.545  0.00  0.00    +0.000 A 
ATOM     17  C   UNL     1      48.324  51.574  81.612  0.00  0.00    +0.000 A 
ATOM     18  C   UNL     1      53.168  58.389  82.454  0.00  0.00    +0.000 A 
ATOM     19  C   UNL     1      49.495  50.426  83.376  0.00  0.00    +0.000 A 
ATOM     20  C   UNL     1      48.498  50.445  82.408  0.00  0.00    +0.000 A 
ENDROOT
TORSDOF 0
ENDMDL
