MODEL 1
REMARK VINA RESULT:      -6.2      0.000      0.000
REMARK  Name = Bicalutamide.pdbqt.pdb
REMARK  8 active torsions:
REMARK  status: ('A' for Active; 'I' for Inactive)
REMARK    1  A    between atoms: C_2  and  N_13
REMARK    2  A    between atoms: C_5  and  C_9
REMARK    3  A    between atoms: C_6  and  C_8
REMARK    4  A    between atoms: C_14  and  C_17
REMARK    5  A    between atoms: C_17  and  O_19
REMARK    6  A    between atoms: C_17  and  C_21
REMARK    7  A    between atoms: C_21  and  S_22
REMARK    8  A    between atoms: S_22  and  C_25
REMARK                            x       y       z     vdW  Elec       q    Type
REMARK                         _______ _______ _______ _____ _____    ______ ____
ROOT
ATOM      1  N   UNL     1      63.220  56.079  60.594  0.00  0.00    +0.000 N 
ATOM      2  C   UNL     1      62.400  55.846  61.695  0.00  0.00    +0.000 C 
ATOM      3  O   UNL     1      62.787  55.829  62.868  0.00  0.00    +0.000 OA
ATOM      4  H   UNL     1      62.754  56.165  59.689  0.00  0.00    +0.000 HD
ENDROOT
BRANCH   1   5
ATOM      5  C   UNL     1      64.609  56.287  60.628  0.00  0.00    +0.000 A 
ATOM      6  C   UNL     1      65.435  55.164  60.610  0.00  0.00    +0.000 A 
ATOM      7  C   UNL     1      65.183  57.552  60.692  0.00  0.00    +0.000 A 
ATOM      8  C   UNL     1      66.829  55.286  60.652  0.00  0.00    +0.000 A 
ATOM      9  C   UNL     1      67.395  56.568  60.713  0.00  0.00    +0.000 A 
ATOM     10  C   UNL     1      66.568  57.693  60.734  0.00  0.00    +0.000 A 
BRANCH   8  11
ATOM     11  C   UNL     1      67.671  54.044  60.629  0.00  0.00    +0.000 C 
ATOM     12  F   UNL     1      68.548  54.008  59.588  0.00  0.00    +0.000 F 
ATOM     13  F   UNL     1      68.424  53.910  61.753  0.00  0.00    +0.000 F 
ATOM     14  F   UNL     1      66.925  52.913  60.525  0.00  0.00    +0.000 F 
ENDBRANCH   8  11
BRANCH   9  16
ATOM     15  N   UNL     1      69.958  56.936  60.784  0.00  0.00    +0.000 NA
ATOM     16  C   UNL     1      68.810  56.777  60.758  0.00  0.00    +0.000 C 
ENDBRANCH   9  16
ENDBRANCH   1   5
BRANCH   2  17
ATOM     17  C   UNL     1      60.884  55.546  61.355  0.00  0.00    +0.000 C 
ATOM     18  C   UNL     1      60.145  56.830  60.884  0.00  0.00    +0.000 C 
BRANCH  17  19
ATOM     19  O   UNL     1      60.206  55.072  62.507  0.00  0.00    +0.000 OA
ATOM     20  H   UNL     1      59.983  55.877  63.012  0.00  0.00    +0.000 HD
ENDBRANCH  17  19
BRANCH  17  21
ATOM     21  C   UNL     1      60.847  54.533  60.346  0.00  0.00    +0.000 C 
BRANCH  21  22
ATOM     22  S   UNL     1      60.708  53.466  58.997  0.00  0.00    +0.000 S 
ATOM     23  O   UNL     1      61.001  54.420  57.958  0.00  0.00    +0.000 OA
ATOM     24  O   UNL     1      59.399  52.954  59.324  0.00  0.00    +0.000 OA
BRANCH  22  25
ATOM     25  C   UNL     1      61.927  52.241  59.112  0.00  0.00    +0.000 A 
ATOM     26  C   UNL     1      61.517  50.912  59.167  0.00  0.00    +0.000 A 
ATOM     27  C   UNL     1      62.477  49.911  59.282  0.00  0.00    +0.000 A 
ATOM     28  C   UNL     1      63.824  50.258  59.345  0.00  0.00    +0.000 A 
ATOM     29  F   UNL     1      64.747  49.293  59.456  0.00  0.00    +0.000 F 
ATOM     30  C   UNL     1      64.228  51.589  59.296  0.00  0.00    +0.000 A 
ATOM     31  C   UNL     1      63.271  52.592  59.181  0.00  0.00    +0.000 A 
ENDBRANCH  22  25
ENDBRANCH  21  22
ENDBRANCH  17  21
ENDBRANCH   2  17
TORSDOF 8
ENDMDL
MODEL 2
REMARK VINA RESULT:      -5.9     17.253     19.789
REMARK  Name = Bicalutamide.pdbqt.pdb
REMARK  8 active torsions:
REMARK  status: ('A' for Active; 'I' for Inactive)
REMARK    1  A    between atoms: C_2  and  N_13
REMARK    2  A    between atoms: C_5  and  C_9
REMARK    3  A    between atoms: C_6  and  C_8
REMARK    4  A    between atoms: C_14  and  C_17
REMARK    5  A    between atoms: C_17  and  O_19
REMARK    6  A    between atoms: C_17  and  C_21
REMARK    7  A    between atoms: C_21  and  S_22
REMARK    8  A    between atoms: S_22  and  C_25
REMARK                            x       y       z     vdW  Elec       q    Type
REMARK                         _______ _______ _______ _____ _____    ______ ____
ROOT
ATOM      1  N   UNL     1      56.701  39.096  69.166  0.00  0.00    +0.000 N 
ATOM      2  C   UNL     1      56.015  39.839  70.123  0.00  0.00    +0.000 C 
ATOM      3  O   UNL     1      56.548  40.436  71.064  0.00  0.00    +0.000 OA
ATOM      4  H   UNL     1      56.149  38.738  68.385  0.00  0.00    +0.000 HD
ENDROOT
BRANCH   1   5
ATOM      5  C   UNL     1      58.087  38.867  69.137  0.00  0.00    +0.000 A 
ATOM      6  C   UNL     1      58.875  39.747  68.396  0.00  0.00    +0.000 A 
ATOM      7  C   UNL     1      58.693  37.804  69.798  0.00  0.00    +0.000 A 
ATOM      8  C   UNL     1      60.262  39.583  68.308  0.00  0.00    +0.000 A 
ATOM      9  C   UNL     1      60.861  38.508  68.982  0.00  0.00    +0.000 A 
ATOM     10  C   UNL     1      60.072  37.625  69.722  0.00  0.00    +0.000 A 
BRANCH   8  11
ATOM     11  C   UNL     1      61.063  40.559  67.498  0.00  0.00    +0.000 C 
ATOM     12  F   UNL     1      60.354  41.664  67.133  0.00  0.00    +0.000 F 
ATOM     13  F   UNL     1      62.149  41.022  68.171  0.00  0.00    +0.000 F 
ATOM     14  F   UNL     1      61.526  40.017  66.341  0.00  0.00    +0.000 F 
ENDBRANCH   8  11
BRANCH   9  16
ATOM     15  N   UNL     1      63.417  38.095  68.912  0.00  0.00    +0.000 NA
ATOM     16  C   UNL     1      62.272  38.272  68.943  0.00  0.00    +0.000 C 
ENDBRANCH   9  16
ENDBRANCH   1   5
BRANCH   2  17
ATOM     17  C   UNL     1      54.440  39.850  69.967  0.00  0.00    +0.000 C 
ATOM     18  C   UNL     1      53.888  38.420  69.705  0.00  0.00    +0.000 C 
BRANCH  17  19
ATOM     19  O   UNL     1      54.061  40.654  68.862  0.00  0.00    +0.000 OA
ATOM     20  H   UNL     1      53.937  40.022  68.128  0.00  0.00    +0.000 HD
ENDBRANCH  17  19
BRANCH  17  21
ATOM     21  C   UNL     1      53.880  40.407  71.160  0.00  0.00    +0.000 C 
BRANCH  21  22
ATOM     22  S   UNL     1      53.237  40.877  72.690  0.00  0.00    +0.000 S 
ATOM     23  O   UNL     1      54.176  41.930  72.984  0.00  0.00    +0.000 OA
ATOM     24  O   UNL     1      53.237  39.561  73.282  0.00  0.00    +0.000 OA
BRANCH  22  25
ATOM     25  C   UNL     1      51.631  41.486  72.472  0.00  0.00    +0.000 A 
ATOM     26  C   UNL     1      50.668  41.150  73.417  0.00  0.00    +0.000 A 
ATOM     27  C   UNL     1      49.365  41.609  73.251  0.00  0.00    +0.000 A 
ATOM     28  C   UNL     1      49.050  42.390  72.142  0.00  0.00    +0.000 A 
ATOM     29  F   UNL     1      47.795  42.831  71.983  0.00  0.00    +0.000 F 
ATOM     30  C   UNL     1      50.016  42.718  71.194  0.00  0.00    +0.000 A 
ATOM     31  C   UNL     1      51.319  42.260  71.358  0.00  0.00    +0.000 A 
ENDBRANCH  22  25
ENDBRANCH  21  22
ENDBRANCH  17  21
ENDBRANCH   2  17
TORSDOF 8
ENDMDL
MODEL 3
REMARK VINA RESULT:      -5.9     13.939     16.285
REMARK  Name = Bicalutamide.pdbqt.pdb
REMARK  8 active torsions:
REMARK  status: ('A' for Active; 'I' for Inactive)
REMARK    1  A    between atoms: C_2  and  N_13
REMARK    2  A    between atoms: C_5  and  C_9
REMARK    3  A    between atoms: C_6  and  C_8
REMARK    4  A    between atoms: C_14  and  C_17
REMARK    5  A    between atoms: C_17  and  O_19
REMARK    6  A    between atoms: C_17  and  C_21
REMARK    7  A    between atoms: C_21  and  S_22
REMARK    8  A    between atoms: S_22  and  C_25
REMARK                            x       y       z     vdW  Elec       q    Type
REMARK                         _______ _______ _______ _____ _____    ______ ____
ROOT
ATOM      1  N   UNL     1      70.319  39.262  63.426  0.00  0.00    +0.000 N 
ATOM      2  C   UNL     1      69.248  38.385  63.276  0.00  0.00    +0.000 C 
ATOM      3  O   UNL     1      68.664  38.165  62.209  0.00  0.00    +0.000 OA
ATOM      4  H   UNL     1      70.773  39.274  64.340  0.00  0.00    +0.000 HD
ENDROOT
BRANCH   1   5
ATOM      5  C   UNL     1      70.877  40.063  62.417  0.00  0.00    +0.000 A 
ATOM      6  C   UNL     1      70.593  41.428  62.439  0.00  0.00    +0.000 A 
ATOM      7  C   UNL     1      71.681  39.553  61.403  0.00  0.00    +0.000 A 
ATOM      8  C   UNL     1      71.103  42.293  61.464  0.00  0.00    +0.000 A 
ATOM      9  C   UNL     1      71.914  41.765  60.448  0.00  0.00    +0.000 A 
ATOM     10  C   UNL     1      72.198  40.398  60.424  0.00  0.00    +0.000 A 
BRANCH   8  11
ATOM     11  C   UNL     1      70.766  43.754  61.535  0.00  0.00    +0.000 C 
ATOM     12  F   UNL     1      71.865  44.556  61.600  0.00  0.00    +0.000 F 
ATOM     13  F   UNL     1      70.063  44.176  60.451  0.00  0.00    +0.000 F 
ATOM     14  F   UNL     1      70.018  44.061  62.627  0.00  0.00    +0.000 F 
ENDBRANCH   8  11
BRANCH   9  16
ATOM     15  N   UNL     1      72.915  43.245  58.572  0.00  0.00    +0.000 NA
ATOM     16  C   UNL     1      72.474  42.583  59.415  0.00  0.00    +0.000 C 
ENDBRANCH   9  16
ENDBRANCH   1   5
BRANCH   2  17
ATOM     17  C   UNL     1      68.761  37.680  64.607  0.00  0.00    +0.000 C 
ATOM     18  C   UNL     1      69.024  36.148  64.565  0.00  0.00    +0.000 C 
BRANCH  17  19
ATOM     19  O   UNL     1      67.364  37.861  64.776  0.00  0.00    +0.000 OA
ATOM     20  H   UNL     1      67.018  36.964  64.945  0.00  0.00    +0.000 HD
ENDBRANCH  17  19
BRANCH  17  21
ATOM     21  C   UNL     1      69.444  38.289  65.706  0.00  0.00    +0.000 C 
BRANCH  21  22
ATOM     22  S   UNL     1      70.073  39.009  67.142  0.00  0.00    +0.000 S 
ATOM     23  O   UNL     1      71.268  38.212  67.256  0.00  0.00    +0.000 OA
ATOM     24  O   UNL     1      68.881  38.856  67.941  0.00  0.00    +0.000 OA
BRANCH  22  25
ATOM     25  C   UNL     1      70.434  40.674  66.834  0.00  0.00    +0.000 A 
ATOM     26  C   UNL     1      71.556  40.970  66.066  0.00  0.00    +0.000 A 
ATOM     27  C   UNL     1      71.880  42.302  65.824  0.00  0.00    +0.000 A 
ATOM     28  C   UNL     1      71.081  43.309  66.358  0.00  0.00    +0.000 A 
ATOM     29  F   UNL     1      71.393  44.591  66.125  0.00  0.00    +0.000 F 
ATOM     30  C   UNL     1      69.963  43.007  67.132  0.00  0.00    +0.000 A 
ATOM     31  C   UNL     1      69.637  41.677  67.376  0.00  0.00    +0.000 A 
ENDBRANCH  22  25
ENDBRANCH  21  22
ENDBRANCH  17  21
ENDBRANCH   2  17
TORSDOF 8
ENDMDL
MODEL 4
REMARK VINA RESULT:      -5.8     25.526     26.734
REMARK  Name = Bicalutamide.pdbqt.pdb
REMARK  8 active torsions:
REMARK  status: ('A' for Active; 'I' for Inactive)
REMARK    1  A    between atoms: C_2  and  N_13
REMARK    2  A    between atoms: C_5  and  C_9
REMARK    3  A    between atoms: C_6  and  C_8
REMARK    4  A    between atoms: C_14  and  C_17
REMARK    5  A    between atoms: C_17  and  O_19
REMARK    6  A    between atoms: C_17  and  C_21
REMARK    7  A    between atoms: C_21  and  S_22
REMARK    8  A    between atoms: S_22  and  C_25
REMARK                            x       y       z     vdW  Elec       q    Type
REMARK                         _______ _______ _______ _____ _____    ______ ____
ROOT
ATOM      1  N   UNL     1      54.007  52.135  85.171  0.00  0.00    +0.000 N 
ATOM      2  C   UNL     1      54.574  51.035  84.531  0.00  0.00    +0.000 C 
ATOM      3  O   UNL     1      55.177  51.083  83.455  0.00  0.00    +0.000 OA
ATOM      4  H   UNL     1      53.626  51.972  86.104  0.00  0.00    +0.000 HD
ENDROOT
BRANCH   1   5
ATOM      5  C   UNL     1      53.989  53.452  84.687  0.00  0.00    +0.000 A 
ATOM      6  C   UNL     1      52.810  53.914  84.103  0.00  0.00    +0.000 A 
ATOM      7  C   UNL     1      55.091  54.299  84.754  0.00  0.00    +0.000 A 
ATOM      8  C   UNL     1      52.713  55.212  83.588  0.00  0.00    +0.000 A 
ATOM      9  C   UNL     1      53.831  56.056  83.664  0.00  0.00    +0.000 A 
ATOM     10  C   UNL     1      55.013  55.594  84.246  0.00  0.00    +0.000 A 
BRANCH   8  11
ATOM     11  C   UNL     1      51.420  55.658  82.971  0.00  0.00    +0.000 C 
ATOM     12  F   UNL     1      50.846  56.707  83.623  0.00  0.00    +0.000 F 
ATOM     13  F   UNL     1      51.574  56.062  81.682  0.00  0.00    +0.000 F 
ATOM     14  F   UNL     1      50.484  54.673  82.958  0.00  0.00    +0.000 F 
ENDBRANCH   8  11
BRANCH   9  16
ATOM     15  N   UNL     1      53.792  58.485  82.765  0.00  0.00    +0.000 NA
ATOM     16  C   UNL     1      53.813  57.396  83.160  0.00  0.00    +0.000 C 
ENDBRANCH   9  16
ENDBRANCH   1   5
BRANCH   2  17
ATOM     17  C   UNL     1      54.362  49.647  85.261  0.00  0.00    +0.000 C 
ATOM     18  C   UNL     1      54.317  49.820  86.805  0.00  0.00    +0.000 C 
BRANCH  17  19
ATOM     19  O   UNL     1      55.437  48.769  84.969  0.00  0.00    +0.000 OA
ATOM     20  H   UNL     1      55.999  48.794  85.767  0.00  0.00    +0.000 HD
ENDBRANCH  17  19
BRANCH  17  21
ATOM     21  C   UNL     1      53.147  49.070  84.773  0.00  0.00    +0.000 C 
BRANCH  21  22
ATOM     22  S   UNL     1      51.630  48.337  84.399  0.00  0.00    +0.000 S 
ATOM     23  O   UNL     1      51.139  48.199  85.747  0.00  0.00    +0.000 OA
ATOM     24  O   UNL     1      52.158  47.271  83.583  0.00  0.00    +0.000 OA
BRANCH  22  25
ATOM     25  C   UNL     1      50.674  49.445  83.474  0.00  0.00    +0.000 A 
ATOM     26  C   UNL     1      50.064  48.976  82.315  0.00  0.00    +0.000 A 
ATOM     27  C   UNL     1      49.309  49.853  81.542  0.00  0.00    +0.000 A 
ATOM     28  C   UNL     1      49.184  51.181  81.940  0.00  0.00    +0.000 A 
ATOM     29  F   UNL     1      48.457  52.025  81.195  0.00  0.00    +0.000 F 
ATOM     30  C   UNL     1      49.803  51.649  83.097  0.00  0.00    +0.000 A 
ATOM     31  C   UNL     1      50.558  50.774  83.871  0.00  0.00    +0.000 A 
ENDBRANCH  22  25
ENDBRANCH  21  22
ENDBRANCH  17  21
ENDBRANCH   2  17
TORSDOF 8
ENDMDL
MODEL 5
REMARK VINA RESULT:      -5.4     17.157     18.897
REMARK  Name = Bicalutamide.pdbqt.pdb
REMARK  8 active torsions:
REMARK  status: ('A' for Active; 'I' for Inactive)
REMARK    1  A    between atoms: C_2  and  N_13
REMARK    2  A    between atoms: C_5  and  C_9
REMARK    3  A    between atoms: C_6  and  C_8
REMARK    4  A    between atoms: C_14  and  C_17
REMARK    5  A    between atoms: C_17  and  O_19
REMARK    6  A    between atoms: C_17  and  C_21
REMARK    7  A    between atoms: C_21  and  S_22
REMARK    8  A    between atoms: S_22  and  C_25
REMARK                            x       y       z     vdW  Elec       q    Type
REMARK                         _______ _______ _______ _____ _____    ______ ____
ROOT
ATOM      1  N   UNL     1      57.219  38.477  69.216  0.00  0.00    +0.000 N 
ATOM      2  C   UNL     1      56.142  39.357  69.288  0.00  0.00    +0.000 C 
ATOM      3  O   UNL     1      56.232  40.586  69.212  0.00  0.00    +0.000 OA
ATOM      4  H   UNL     1      56.993  37.482  69.191  0.00  0.00    +0.000 HD
ENDROOT
BRANCH   1   5
ATOM      5  C   UNL     1      58.571  38.837  69.091  0.00  0.00    +0.000 A 
ATOM      6  C   UNL     1      59.203  38.573  67.876  0.00  0.00    +0.000 A 
ATOM      7  C   UNL     1      59.296  39.426  70.121  0.00  0.00    +0.000 A 
ATOM      8  C   UNL     1      60.551  38.893  67.674  0.00  0.00    +0.000 A 
ATOM      9  C   UNL     1      61.270  39.489  68.722  0.00  0.00    +0.000 A 
ATOM     10  C   UNL     1      60.638  39.751  69.938  0.00  0.00    +0.000 A 
BRANCH   8  11
ATOM     11  C   UNL     1      61.183  38.588  66.348  0.00  0.00    +0.000 C 
ATOM     12  F   UNL     1      60.427  37.765  65.569  0.00  0.00    +0.000 F 
ATOM     13  F   UNL     1      61.395  39.707  65.606  0.00  0.00    +0.000 F 
ATOM     14  F   UNL     1      62.388  37.974  66.475  0.00  0.00    +0.000 F 
ENDBRANCH   8  11
BRANCH   9  16
ATOM     15  N   UNL     1      63.772  40.125  68.502  0.00  0.00    +0.000 NA
ATOM     16  C   UNL     1      62.651  39.846  68.594  0.00  0.00    +0.000 C 
ENDBRANCH   9  16
ENDBRANCH   1   5
BRANCH   2  17
ATOM     17  C   UNL     1      54.732  38.678  69.527  0.00  0.00    +0.000 C 
ATOM     18  C   UNL     1      53.595  39.738  69.576  0.00  0.00    +0.000 C 
BRANCH  17  19
ATOM     19  O   UNL     1      54.720  37.994  70.770  0.00  0.00    +0.000 OA
ATOM     20  H   UNL     1      53.780  37.977  71.033  0.00  0.00    +0.000 HD
ENDBRANCH  17  19
BRANCH  17  21
ATOM     21  C   UNL     1      54.510  37.734  68.476  0.00  0.00    +0.000 C 
BRANCH  21  22
ATOM     22  S   UNL     1      54.059  36.535  67.320  0.00  0.00    +0.000 S 
ATOM     23  O   UNL     1      52.769  37.074  66.969  0.00  0.00    +0.000 OA
ATOM     24  O   UNL     1      54.289  35.391  68.169  0.00  0.00    +0.000 OA
BRANCH  22  25
ATOM     25  C   UNL     1      55.163  36.583  65.988  0.00  0.00    +0.000 A 
ATOM     26  C   UNL     1      56.526  36.535  66.264  0.00  0.00    +0.000 A 
ATOM     27  C   UNL     1      57.434  36.595  65.211  0.00  0.00    +0.000 A 
ATOM     28  C   UNL     1      56.962  36.707  63.906  0.00  0.00    +0.000 A 
ATOM     29  F   UNL     1      57.837  36.765  62.892  0.00  0.00    +0.000 F 
ATOM     30  C   UNL     1      55.597  36.762  63.635  0.00  0.00    +0.000 A 
ATOM     31  C   UNL     1      54.688  36.702  64.686  0.00  0.00    +0.000 A 
ENDBRANCH  22  25
ENDBRANCH  21  22
ENDBRANCH  17  21
ENDBRANCH   2  17
TORSDOF 8
ENDMDL
MODEL 6
REMARK VINA RESULT:      -5.4     12.362     15.101
REMARK  Name = Bicalutamide.pdbqt.pdb
REMARK  8 active torsions:
REMARK  status: ('A' for Active; 'I' for Inactive)
REMARK    1  A    between atoms: C_2  and  N_13
REMARK    2  A    between atoms: C_5  and  C_9
REMARK    3  A    between atoms: C_6  and  C_8
REMARK    4  A    between atoms: C_14  and  C_17
REMARK    5  A    between atoms: C_17  and  O_19
REMARK    6  A    between atoms: C_17  and  C_21
REMARK    7  A    between atoms: C_21  and  S_22
REMARK    8  A    between atoms: S_22  and  C_25
REMARK                            x       y       z     vdW  Elec       q    Type
REMARK                         _______ _______ _______ _____ _____    ______ ____
ROOT
ATOM      1  N   UNL     1      56.830  63.310  66.632  0.00  0.00    +0.000 N 
ATOM      2  C   UNL     1      56.803  63.577  65.265  0.00  0.00    +0.000 C 
ATOM      3  O   UNL     1      57.047  64.677  64.759  0.00  0.00    +0.000 OA
ATOM      4  H   UNL     1      56.708  62.335  66.908  0.00  0.00    +0.000 HD
ENDROOT
BRANCH   1   5
ATOM      5  C   UNL     1      57.092  64.242  67.649  0.00  0.00    +0.000 A 
ATOM      6  C   UNL     1      58.393  64.732  67.762  0.00  0.00    +0.000 A 
ATOM      7  C   UNL     1      56.121  64.678  68.545  0.00  0.00    +0.000 A 
ATOM      8  C   UNL     1      58.737  65.656  68.755  0.00  0.00    +0.000 A 
ATOM      9  C   UNL     1      57.748  66.089  69.650  0.00  0.00    +0.000 A 
ATOM     10  C   UNL     1      56.446  65.597  69.540  0.00  0.00    +0.000 A 
BRANCH   8  11
ATOM     11  C   UNL     1      60.152  66.152  68.832  0.00  0.00    +0.000 C 
ATOM     12  F   UNL     1      60.916  65.762  67.774  0.00  0.00    +0.000 F 
ATOM     13  F   UNL     1      60.223  67.509  68.860  0.00  0.00    +0.000 F 
ATOM     14  F   UNL     1      60.799  65.707  69.941  0.00  0.00    +0.000 F 
ENDBRANCH   8  11
BRANCH   9  16
ATOM     15  N   UNL     1      58.228  67.791  71.544  0.00  0.00    +0.000 NA
ATOM     16  C   UNL     1      58.020  67.032  70.693  0.00  0.00    +0.000 C 
ENDBRANCH   9  16
ENDBRANCH   1   5
BRANCH   2  17
ATOM     17  C   UNL     1      56.382  62.358  64.348  0.00  0.00    +0.000 C 
ATOM     18  C   UNL     1      57.583  61.405  64.088  0.00  0.00    +0.000 C 
BRANCH  17  19
ATOM     19  O   UNL     1      55.937  62.824  63.084  0.00  0.00    +0.000 OA
ATOM     20  H   UNL     1      55.542  63.697  63.269  0.00  0.00    +0.000 HD
ENDBRANCH  17  19
BRANCH  17  21
ATOM     21  C   UNL     1      55.308  61.667  64.993  0.00  0.00    +0.000 C 
BRANCH  21  22
ATOM     22  S   UNL     1      54.134  60.850  65.957  0.00  0.00    +0.000 S 
ATOM     23  O   UNL     1      55.044  60.084  66.770  0.00  0.00    +0.000 OA
ATOM     24  O   UNL     1      53.348  60.336  64.862  0.00  0.00    +0.000 OA
BRANCH  22  25
ATOM     25  C   UNL     1      53.255  62.013  66.892  0.00  0.00    +0.000 A 
ATOM     26  C   UNL     1      53.261  63.336  66.465  0.00  0.00    +0.000 A 
ATOM     27  C   UNL     1      52.580  64.294  67.213  0.00  0.00    +0.000 A 
ATOM     28  C   UNL     1      51.914  63.908  68.373  0.00  0.00    +0.000 A 
ATOM     29  F   UNL     1      51.259  64.830  69.092  0.00  0.00    +0.000 F 
ATOM     30  C   UNL     1      51.917  62.583  68.800  0.00  0.00    +0.000 A 
ATOM     31  C   UNL     1      52.596  61.625  68.055  0.00  0.00    +0.000 A 
ENDBRANCH  22  25
ENDBRANCH  21  22
ENDBRANCH  17  21
ENDBRANCH   2  17
TORSDOF 8
ENDMDL
MODEL 7
REMARK VINA RESULT:      -5.4     16.581     19.487
REMARK  Name = Bicalutamide.pdbqt.pdb
REMARK  8 active torsions:
REMARK  status: ('A' for Active; 'I' for Inactive)
REMARK    1  A    between atoms: C_2  and  N_13
REMARK    2  A    between atoms: C_5  and  C_9
REMARK    3  A    between atoms: C_6  and  C_8
REMARK    4  A    between atoms: C_14  and  C_17
REMARK    5  A    between atoms: C_17  and  O_19
REMARK    6  A    between atoms: C_17  and  C_21
REMARK    7  A    between atoms: C_21  and  S_22
REMARK    8  A    between atoms: S_22  and  C_25
REMARK                            x       y       z     vdW  Elec       q    Type
REMARK                         _______ _______ _______ _____ _____    ______ ____
ROOT
ATOM      1  N   UNL     1      60.491  37.827  67.372  0.00  0.00    +0.000 N 
ATOM      2  C   UNL     1      61.172  38.916  66.835  0.00  0.00    +0.000 C 
ATOM      3  O   UNL     1      61.950  38.856  65.877  0.00  0.00    +0.000 OA
ATOM      4  H   UNL     1      59.802  38.033  68.097  0.00  0.00    +0.000 HD
ENDROOT
BRANCH   1   5
ATOM      5  C   UNL     1      60.605  36.493  66.949  0.00  0.00    +0.000 A 
ATOM      6  C   UNL     1      61.821  35.845  67.163  0.00  0.00    +0.000 A 
ATOM      7  C   UNL     1      59.570  35.806  66.323  0.00  0.00    +0.000 A 
ATOM      8  C   UNL     1      62.018  34.518  66.763  0.00  0.00    +0.000 A 
ATOM      9  C   UNL     1      60.965  33.837  66.134  0.00  0.00    +0.000 A 
ATOM     10  C   UNL     1      59.748  34.485  65.917  0.00  0.00    +0.000 A 
BRANCH   8  11
ATOM     11  C   UNL     1      63.347  33.869  67.019  0.00  0.00    +0.000 C 
ATOM     12  F   UNL     1      64.229  34.684  67.662  0.00  0.00    +0.000 F 
ATOM     13  F   UNL     1      63.239  32.756  67.792  0.00  0.00    +0.000 F 
ATOM     14  F   UNL     1      63.966  33.485  65.871  0.00  0.00    +0.000 F 
ENDBRANCH   8  11
BRANCH   9  16
ATOM     15  N   UNL     1      61.179  31.383  65.330  0.00  0.00    +0.000 NA
ATOM     16  C   UNL     1      61.088  32.479  65.696  0.00  0.00    +0.000 C 
ENDBRANCH   9  16
ENDBRANCH   1   5
BRANCH   2  17
ATOM     17  C   UNL     1      60.926  40.295  67.571  0.00  0.00    +0.000 C 
ATOM     18  C   UNL     1      59.466  40.405  68.094  0.00  0.00    +0.000 C 
BRANCH  17  19
ATOM     19  O   UNL     1      61.132  41.375  66.675  0.00  0.00    +0.000 OA
ATOM     20  H   UNL     1      60.268  41.826  66.629  0.00  0.00    +0.000 HD
ENDBRANCH  17  19
BRANCH  17  21
ATOM     21  C   UNL     1      61.865  40.399  68.646  0.00  0.00    +0.000 C 
BRANCH  21  22
ATOM     22  S   UNL     1      63.150  40.451  69.795  0.00  0.00    +0.000 S 
ATOM     23  O   UNL     1      62.575  39.567  70.776  0.00  0.00    +0.000 OA
ATOM     24  O   UNL     1      63.222  41.889  69.899  0.00  0.00    +0.000 OA
BRANCH  22  25
ATOM     25  C   UNL     1      64.580  39.784  69.083  0.00  0.00    +0.000 A 
ATOM     26  C   UNL     1      64.491  38.531  68.485  0.00  0.00    +0.000 A 
ATOM     27  C   UNL     1      65.632  37.963  67.925  0.00  0.00    +0.000 A 
ATOM     28  C   UNL     1      66.839  38.656  67.980  0.00  0.00    +0.000 A 
ATOM     29  F   UNL     1      67.937  38.109  67.442  0.00  0.00    +0.000 F 
ATOM     30  C   UNL     1      66.925  39.907  68.586  0.00  0.00    +0.000 A 
ATOM     31  C   UNL     1      65.786  40.476  69.146  0.00  0.00    +0.000 A 
ENDBRANCH  22  25
ENDBRANCH  21  22
ENDBRANCH  17  21
ENDBRANCH   2  17
TORSDOF 8
ENDMDL
MODEL 8
REMARK VINA RESULT:      -5.3     15.898     18.333
REMARK  Name = Bicalutamide.pdbqt.pdb
REMARK  8 active torsions:
REMARK  status: ('A' for Active; 'I' for Inactive)
REMARK    1  A    between atoms: C_2  and  N_13
REMARK    2  A    between atoms: C_5  and  C_9
REMARK    3  A    between atoms: C_6  and  C_8
REMARK    4  A    between atoms: C_14  and  C_17
REMARK    5  A    between atoms: C_17  and  O_19
REMARK    6  A    between atoms: C_17  and  C_21
REMARK    7  A    between atoms: C_21  and  S_22
REMARK    8  A    between atoms: S_22  and  C_25
REMARK                            x       y       z     vdW  Elec       q    Type
REMARK                         _______ _______ _______ _____ _____    ______ ____
ROOT
ATOM      1  N   UNL     1      73.085  48.181  73.886  0.00  0.00    +0.000 N 
ATOM      2  C   UNL     1      74.424  48.531  74.039  0.00  0.00    +0.000 C 
ATOM      3  O   UNL     1      75.073  48.390  75.080  0.00  0.00    +0.000 OA
ATOM      4  H   UNL     1      72.699  48.256  72.944  0.00  0.00    +0.000 HD
ENDROOT
BRANCH   1   5
ATOM      5  C   UNL     1      72.250  47.658  74.887  0.00  0.00    +0.000 A 
ATOM      6  C   UNL     1      71.243  48.482  75.389  0.00  0.00    +0.000 A 
ATOM      7  C   UNL     1      72.394  46.372  75.398  0.00  0.00    +0.000 A 
ATOM      8  C   UNL     1      70.375  48.039  76.394  0.00  0.00    +0.000 A 
ATOM      9  C   UNL     1      70.530  46.740  76.899  0.00  0.00    +0.000 A 
ATOM     10  C   UNL     1      71.539  45.915  76.398  0.00  0.00    +0.000 A 
BRANCH   8  11
ATOM     11  C   UNL     1      69.309  48.967  76.899  0.00  0.00    +0.000 C 
ATOM     12  F   UNL     1      69.007  49.966  76.023  0.00  0.00    +0.000 F 
ATOM     13  F   UNL     1      68.138  48.324  77.145  0.00  0.00    +0.000 F 
ATOM     14  F   UNL     1      69.663  49.584  78.057  0.00  0.00    +0.000 F 
ENDBRANCH   8  11
BRANCH   9  16
ATOM     15  N   UNL     1      69.006  45.792  78.767  0.00  0.00    +0.000 NA
ATOM     16  C   UNL     1      69.683  46.213  77.926  0.00  0.00    +0.000 C 
ENDBRANCH   9  16
ENDBRANCH   1   5
BRANCH   2  17
ATOM     17  C   UNL     1      75.098  49.190  72.767  0.00  0.00    +0.000 C 
ATOM     18  C   UNL     1      75.703  48.112  71.825  0.00  0.00    +0.000 C 
BRANCH  17  19
ATOM     19  O   UNL     1      76.159  50.045  73.161  0.00  0.00    +0.000 OA
ATOM     20  H   UNL     1      76.852  49.905  72.488  0.00  0.00    +0.000 HD
ENDBRANCH  17  19
BRANCH  17  21
ATOM     21  C   UNL     1      74.104  49.965  72.090  0.00  0.00    +0.000 C 
BRANCH  21  22
ATOM     22  S   UNL     1      72.800  50.907  71.469  0.00  0.00    +0.000 S 
ATOM     23  O   UNL     1      71.726  50.240  72.161  0.00  0.00    +0.000 OA
ATOM     24  O   UNL     1      73.128  50.747  70.073  0.00  0.00    +0.000 OA
BRANCH  22  25
ATOM     25  C   UNL     1      72.982  52.548  71.991  0.00  0.00    +0.000 A 
ATOM     26  C   UNL     1      73.863  52.810  73.035  0.00  0.00    +0.000 A 
ATOM     27  C   UNL     1      74.010  54.118  73.487  0.00  0.00    +0.000 A 
ATOM     28  C   UNL     1      73.270  55.135  72.891  0.00  0.00    +0.000 A 
ATOM     29  F   UNL     1      73.412  56.394  73.327  0.00  0.00    +0.000 F 
ATOM     30  C   UNL     1      72.384  54.868  71.851  0.00  0.00    +0.000 A 
ATOM     31  C   UNL     1      72.236  53.561  71.397  0.00  0.00    +0.000 A 
ENDBRANCH  22  25
ENDBRANCH  21  22
ENDBRANCH  17  21
ENDBRANCH   2  17
TORSDOF 8
ENDMDL
MODEL 9
REMARK VINA RESULT:      -5.3      5.625      7.377
REMARK  Name = Bicalutamide.pdbqt.pdb
REMARK  8 active torsions:
REMARK  status: ('A' for Active; 'I' for Inactive)
REMARK    1  A    between atoms: C_2  and  N_13
REMARK    2  A    between atoms: C_5  and  C_9
REMARK    3  A    between atoms: C_6  and  C_8
REMARK    4  A    between atoms: C_14  and  C_17
REMARK    5  A    between atoms: C_17  and  O_19
REMARK    6  A    between atoms: C_17  and  C_21
REMARK    7  A    between atoms: C_21  and  S_22
REMARK    8  A    between atoms: S_22  and  C_25
REMARK                            x       y       z     vdW  Elec       q    Type
REMARK                         _______ _______ _______ _____ _____    ______ ____
ROOT
ATOM      1  N   UNL     1      60.676  58.262  60.335  0.00  0.00    +0.000 N 
ATOM      2  C   UNL     1      59.810  57.258  59.910  0.00  0.00    +0.000 C 
ATOM      3  O   UNL     1      58.851  57.432  59.152  0.00  0.00    +0.000 OA
ATOM      4  H   UNL     1      61.487  57.964  60.879  0.00  0.00    +0.000 HD
ENDROOT
BRANCH   1   5
ATOM      5  C   UNL     1      60.578  59.626  60.015  0.00  0.00    +0.000 A 
ATOM      6  C   UNL     1      59.485  60.334  60.515  0.00  0.00    +0.000 A 
ATOM      7  C   UNL     1      61.509  60.286  59.219  0.00  0.00    +0.000 A 
ATOM      8  C   UNL     1      59.310  61.694  60.233  0.00  0.00    +0.000 A 
ATOM      9  C   UNL     1      60.258  62.347  59.431  0.00  0.00    +0.000 A 
ATOM     10  C   UNL     1      61.351  61.638  58.929  0.00  0.00    +0.000 A 
BRANCH   8  11
ATOM     11  C   UNL     1      58.117  62.408  60.797  0.00  0.00    +0.000 C 
ATOM     12  F   UNL     1      57.341  61.617  61.588  0.00  0.00    +0.000 F 
ATOM     13  F   UNL     1      58.467  63.472  61.567  0.00  0.00    +0.000 F 
ATOM     14  F   UNL     1      57.292  62.886  59.828  0.00  0.00    +0.000 F 
ENDBRANCH   8  11
BRANCH   9  16
ATOM     15  N   UNL     1      60.054  64.861  58.839  0.00  0.00    +0.000 NA
ATOM     16  C   UNL     1      60.151  63.735  59.098  0.00  0.00    +0.000 C 
ENDBRANCH   9  16
ENDBRANCH   1   5
BRANCH   2  17
ATOM     17  C   UNL     1      60.101  55.820  60.504  0.00  0.00    +0.000 C 
ATOM     18  C   UNL     1      59.819  54.707  59.456  0.00  0.00    +0.000 C 
BRANCH  17  19
ATOM     19  O   UNL     1      59.260  55.569  61.619  0.00  0.00    +0.000 OA
ATOM     20  H   UNL     1      58.399  55.325  61.228  0.00  0.00    +0.000 HD
ENDBRANCH  17  19
BRANCH  17  21
ATOM     21  C   UNL     1      61.465  55.785  60.936  0.00  0.00    +0.000 C 
BRANCH  21  22
ATOM     22  S   UNL     1      63.039  55.609  61.620  0.00  0.00    +0.000 S 
ATOM     23  O   UNL     1      62.640  55.083  62.900  0.00  0.00    +0.000 OA
ATOM     24  O   UNL     1      63.482  56.959  61.366  0.00  0.00    +0.000 OA
BRANCH  22  25
ATOM     25  C   UNL     1      63.936  54.452  60.696  0.00  0.00    +0.000 A 
ATOM     26  C   UNL     1      63.226  53.501  59.969  0.00  0.00    +0.000 A 
ATOM     27  C   UNL     1      63.925  52.545  59.237  0.00  0.00    +0.000 A 
ATOM     28  C   UNL     1      65.317  52.557  59.251  0.00  0.00    +0.000 A 
ATOM     29  F   UNL     1      65.989  51.636  58.547  0.00  0.00    +0.000 F 
ATOM     30  C   UNL     1      66.023  53.506  59.986  0.00  0.00    +0.000 A 
ATOM     31  C   UNL     1      65.327  54.461  60.718  0.00  0.00    +0.000 A 
ENDBRANCH  22  25
ENDBRANCH  21  22
ENDBRANCH  17  21
ENDBRANCH   2  17
TORSDOF 8
ENDMDL
