MODEL 1
REMARK VINA RESULT:      -5.4      0.000      0.000
REMARK  Name = Bisphenol_A.pdbqt.pdb
REMARK  4 active torsions:
REMARK  status: ('A' for Active; 'I' for Inactive)
REMARK    1  A    between atoms: C_1  and  C_4
REMARK    2  A    between atoms: C_1  and  C_12
REMARK    3  A    between atoms: C_7  and  O_10
REMARK    4  A    between atoms: C_15  and  O_18
REMARK                            x       y       z     vdW  Elec       q    Type
REMARK                         _______ _______ _______ _____ _____    ______ ____
ROOT
ATOM      1  C   UNL     1      63.277  41.799  53.298  0.00  0.00    +0.000 C 
ATOM      2  C   UNL     1      62.155  42.836  52.942  0.00  0.00    +0.000 C 
ATOM      3  C   UNL     1      63.589  40.957  52.010  0.00  0.00    +0.000 C 
ENDROOT
BRANCH   1   4
ATOM      4  C   UNL     1      64.499  42.606  53.760  0.00  0.00    +0.000 A 
ATOM      5  C   UNL     1      64.372  43.982  54.024  0.00  0.00    +0.000 A 
ATOM      6  C   UNL     1      65.464  44.749  54.427  0.00  0.00    +0.000 A 
ATOM      7  C   UNL     1      66.706  44.142  54.565  0.00  0.00    +0.000 A 
ATOM      8  C   UNL     1      66.870  42.787  54.304  0.00  0.00    +0.000 A 
ATOM      9  C   UNL     1      65.771  42.032  53.899  0.00  0.00    +0.000 A 
BRANCH   7  10
ATOM     10  O   UNL     1      67.794  44.862  54.961  0.00  0.00    +0.000 OA
ATOM     11  H   UNL     1      68.241  44.378  55.677  0.00  0.00    +0.000 HD
ENDBRANCH   7  10
ENDBRANCH   1   4
BRANCH   1  12
ATOM     12  C   UNL     1      62.816  40.807  54.376  0.00  0.00    +0.000 A 
ATOM     13  C   UNL     1      63.046  39.429  54.208  0.00  0.00    +0.000 A 
ATOM     14  C   UNL     1      62.626  38.501  55.157  0.00  0.00    +0.000 A 
ATOM     15  C   UNL     1      61.960  38.945  56.293  0.00  0.00    +0.000 A 
ATOM     16  C   UNL     1      61.710  40.298  56.489  0.00  0.00    +0.000 A 
ATOM     17  C   UNL     1      62.133  41.217  55.531  0.00  0.00    +0.000 A 
BRANCH  15  18
ATOM     18  O   UNL     1      61.540  38.064  57.246  0.00  0.00    +0.000 OA
ATOM     19  H   UNL     1      60.837  37.509  56.865  0.00  0.00    +0.000 HD
ENDBRANCH  15  18
ENDBRANCH   1  12
TORSDOF 4
ENDMDL
MODEL 2
REMARK VINA RESULT:      -5.4      0.050      5.742
REMARK  Name = Bisphenol_A.pdbqt.pdb
REMARK  4 active torsions:
REMARK  status: ('A' for Active; 'I' for Inactive)
REMARK    1  A    between atoms: C_1  and  C_4
REMARK    2  A    between atoms: C_1  and  C_12
REMARK    3  A    between atoms: C_7  and  O_10
REMARK    4  A    between atoms: C_15  and  O_18
REMARK                            x       y       z     vdW  Elec       q    Type
REMARK                         _______ _______ _______ _____ _____    ______ ____
ROOT
ATOM      1  C   UNL     1      63.240  41.852  53.318  0.00  0.00    +0.000 C 
ATOM      2  C   UNL     1      63.527  41.035  52.008  0.00  0.00    +0.000 C 
ATOM      3  C   UNL     1      62.113  42.898  53.002  0.00  0.00    +0.000 C 
ENDROOT
BRANCH   1   4
ATOM      4  C   UNL     1      62.794  40.840  54.384  0.00  0.00    +0.000 A 
ATOM      5  C   UNL     1      63.040  39.468  54.196  0.00  0.00    +0.000 A 
ATOM      6  C   UNL     1      62.633  38.521  55.134  0.00  0.00    +0.000 A 
ATOM      7  C   UNL     1      61.965  38.941  56.277  0.00  0.00    +0.000 A 
ATOM      8  C   UNL     1      61.698  40.288  56.492  0.00  0.00    +0.000 A 
ATOM      9  C   UNL     1      62.107  41.225  55.545  0.00  0.00    +0.000 A 
BRANCH   7  10
ATOM     10  O   UNL     1      61.557  38.042  57.218  0.00  0.00    +0.000 OA
ATOM     11  H   UNL     1      61.697  37.145  56.870  0.00  0.00    +0.000 HD
ENDBRANCH   7  10
ENDBRANCH   1   4
BRANCH   1  12
ATOM     12  C   UNL     1      64.470  42.649  53.775  0.00  0.00    +0.000 A 
ATOM     13  C   UNL     1      64.355  44.024  54.049  0.00  0.00    +0.000 A 
ATOM     14  C   UNL     1      65.453  44.780  54.449  0.00  0.00    +0.000 A 
ATOM     15  C   UNL     1      66.692  44.164  54.576  0.00  0.00    +0.000 A 
ATOM     16  C   UNL     1      66.844  42.809  54.307  0.00  0.00    +0.000 A 
ATOM     17  C   UNL     1      65.738  42.063  53.905  0.00  0.00    +0.000 A 
BRANCH  15  18
ATOM     18  O   UNL     1      67.788  44.873  54.971  0.00  0.00    +0.000 OA
ATOM     19  H   UNL     1      67.502  45.563  55.594  0.00  0.00    +0.000 HD
ENDBRANCH  15  18
ENDBRANCH   1  12
TORSDOF 4
ENDMDL
MODEL 3
REMARK VINA RESULT:      -5.3      1.717      2.148
REMARK  Name = Bisphenol_A.pdbqt.pdb
REMARK  4 active torsions:
REMARK  status: ('A' for Active; 'I' for Inactive)
REMARK    1  A    between atoms: C_1  and  C_4
REMARK    2  A    between atoms: C_1  and  C_12
REMARK    3  A    between atoms: C_7  and  O_10
REMARK    4  A    between atoms: C_15  and  O_18
REMARK                            x       y       z     vdW  Elec       q    Type
REMARK                         _______ _______ _______ _____ _____    ______ ____
ROOT
ATOM      1  C   UNL     1      62.928  41.531  53.081  0.00  0.00    +0.000 C 
ATOM      2  C   UNL     1      62.088  41.633  51.759  0.00  0.00    +0.000 C 
ATOM      3  C   UNL     1      64.284  40.814  52.744  0.00  0.00    +0.000 C 
ENDROOT
BRANCH   1   4
ATOM      4  C   UNL     1      63.152  42.967  53.578  0.00  0.00    +0.000 A 
ATOM      5  C   UNL     1      62.058  43.841  53.713  0.00  0.00    +0.000 A 
ATOM      6  C   UNL     1      62.227  45.156  54.143  0.00  0.00    +0.000 A 
ATOM      7  C   UNL     1      63.504  45.614  54.440  0.00  0.00    +0.000 A 
ATOM      8  C   UNL     1      64.608  44.781  54.311  0.00  0.00    +0.000 A 
ATOM      9  C   UNL     1      64.426  43.469  53.877  0.00  0.00    +0.000 A 
BRANCH   7  10
ATOM     10  O   UNL     1      63.705  46.893  54.868  0.00  0.00    +0.000 OA
ATOM     11  H   UNL     1      63.078  47.477  54.406  0.00  0.00    +0.000 HD
ENDBRANCH   7  10
ENDBRANCH   1   4
BRANCH   1  12
ATOM     12  C   UNL     1      62.223  40.671  54.140  0.00  0.00    +0.000 A 
ATOM     13  C   UNL     1      61.477  39.544  53.748  0.00  0.00    +0.000 A 
ATOM     14  C   UNL     1      60.811  38.753  54.680  0.00  0.00    +0.000 A 
ATOM     15  C   UNL     1      60.881  39.086  56.027  0.00  0.00    +0.000 A 
ATOM     16  C   UNL     1      61.602  40.195  56.450  0.00  0.00    +0.000 A 
ATOM     17  C   UNL     1      62.262  40.981  55.508  0.00  0.00    +0.000 A 
BRANCH  15  18
ATOM     18  O   UNL     1      60.245  38.329  56.967  0.00  0.00    +0.000 OA
ATOM     19  H   UNL     1      60.583  37.418  56.911  0.00  0.00    +0.000 HD
ENDBRANCH  15  18
ENDBRANCH   1  12
TORSDOF 4
ENDMDL
MODEL 4
REMARK VINA RESULT:      -5.2     30.951     33.192
REMARK  Name = Bisphenol_A.pdbqt.pdb
REMARK  4 active torsions:
REMARK  status: ('A' for Active; 'I' for Inactive)
REMARK    1  A    between atoms: C_1  and  C_4
REMARK    2  A    between atoms: C_1  and  C_12
REMARK    3  A    between atoms: C_7  and  O_10
REMARK    4  A    between atoms: C_15  and  O_18
REMARK                            x       y       z     vdW  Elec       q    Type
REMARK                         _______ _______ _______ _____ _____    ______ ____
ROOT
ATOM      1  C   UNL     1      48.781  51.590  82.892  0.00  0.00    +0.000 C 
ATOM      2  C   UNL     1      47.640  51.596  81.813  0.00  0.00    +0.000 C 
ATOM      3  C   UNL     1      48.111  51.661  84.310  0.00  0.00    +0.000 C 
ENDROOT
BRANCH   1   4
ATOM      4  C   UNL     1      49.568  50.285  82.699  0.00  0.00    +0.000 A 
ATOM      5  C   UNL     1      49.428  49.551  81.507  0.00  0.00    +0.000 A 
ATOM      6  C   UNL     1      50.113  48.354  81.306  0.00  0.00    +0.000 A 
ATOM      7  C   UNL     1      50.948  47.873  82.308  0.00  0.00    +0.000 A 
ATOM      8  C   UNL     1      51.103  48.568  83.501  0.00  0.00    +0.000 A 
ATOM      9  C   UNL     1      50.410  49.762  83.690  0.00  0.00    +0.000 A 
BRANCH   7  10
ATOM     10  O   UNL     1      51.636  46.707  82.143  0.00  0.00    +0.000 OA
ATOM     11  H   UNL     1      52.226  46.585  82.906  0.00  0.00    +0.000 HD
ENDBRANCH   7  10
ENDBRANCH   1   4
BRANCH   1  12
ATOM     12  C   UNL     1      49.690  52.821  82.768  0.00  0.00    +0.000 A 
ATOM     13  C   UNL     1      49.445  53.777  81.765  0.00  0.00    +0.000 A 
ATOM     14  C   UNL     1      50.260  54.896  81.614  0.00  0.00    +0.000 A 
ATOM     15  C   UNL     1      51.341  55.070  82.469  0.00  0.00    +0.000 A 
ATOM     16  C   UNL     1      51.616  54.143  83.467  0.00  0.00    +0.000 A 
ATOM     17  C   UNL     1      50.796  53.025  83.606  0.00  0.00    +0.000 A 
BRANCH  15  18
ATOM     18  O   UNL     1      52.156  56.157  82.353  0.00  0.00    +0.000 OA
ATOM     19  H   UNL     1      52.235  56.580  83.226  0.00  0.00    +0.000 HD
ENDBRANCH  15  18
ENDBRANCH   1  12
TORSDOF 4
ENDMDL
MODEL 5
REMARK VINA RESULT:      -5.2     39.962     42.359
REMARK  Name = Bisphenol_A.pdbqt.pdb
REMARK  4 active torsions:
REMARK  status: ('A' for Active; 'I' for Inactive)
REMARK    1  A    between atoms: C_1  and  C_4
REMARK    2  A    between atoms: C_1  and  C_12
REMARK    3  A    between atoms: C_7  and  O_10
REMARK    4  A    between atoms: C_15  and  O_18
REMARK                            x       y       z     vdW  Elec       q    Type
REMARK                         _______ _______ _______ _____ _____    ______ ____
ROOT
ATOM      1  C   UNL     1      58.825  75.386  78.714  0.00  0.00    +0.000 C 
ATOM      2  C   UNL     1      58.926  74.909  77.221  0.00  0.00    +0.000 C 
ATOM      3  C   UNL     1      57.623  76.390  78.824  0.00  0.00    +0.000 C 
ENDROOT
BRANCH   1   4
ATOM      4  C   UNL     1      58.597  74.130  79.568  0.00  0.00    +0.000 A 
ATOM      5  C   UNL     1      58.528  72.866  78.953  0.00  0.00    +0.000 A 
ATOM      6  C   UNL     1      58.304  71.708  79.695  0.00  0.00    +0.000 A 
ATOM      7  C   UNL     1      58.140  71.805  81.071  0.00  0.00    +0.000 A 
ATOM      8  C   UNL     1      58.195  73.037  81.711  0.00  0.00    +0.000 A 
ATOM      9  C   UNL     1      58.417  74.188  80.957  0.00  0.00    +0.000 A 
BRANCH   7  10
ATOM     10  O   UNL     1      57.924  70.691  81.828  0.00  0.00    +0.000 OA
ATOM     11  H   UNL     1      57.677  70.970  82.727  0.00  0.00    +0.000 HD
ENDBRANCH   7  10
ENDBRANCH   1   4
BRANCH   1  12
ATOM     12  C   UNL     1      60.083  76.148  79.155  0.00  0.00    +0.000 A 
ATOM     13  C   UNL     1      61.257  76.075  78.383  0.00  0.00    +0.000 A 
ATOM     14  C   UNL     1      62.419  76.740  78.764  0.00  0.00    +0.000 A 
ATOM     15  C   UNL     1      62.422  77.488  79.935  0.00  0.00    +0.000 A 
ATOM     16  C   UNL     1      61.283  77.577  80.725  0.00  0.00    +0.000 A 
ATOM     17  C   UNL     1      60.126  76.905  80.336  0.00  0.00    +0.000 A 
BRANCH  15  18
ATOM     18  O   UNL     1      63.542  78.156  80.334  0.00  0.00    +0.000 OA
ATOM     19  H   UNL     1      63.747  77.897  81.249  0.00  0.00    +0.000 HD
ENDBRANCH  15  18
ENDBRANCH   1  12
TORSDOF 4
ENDMDL
MODEL 6
REMARK VINA RESULT:      -5.2     39.977     42.021
REMARK  Name = Bisphenol_A.pdbqt.pdb
REMARK  4 active torsions:
REMARK  status: ('A' for Active; 'I' for Inactive)
REMARK    1  A    between atoms: C_1  and  C_4
REMARK    2  A    between atoms: C_1  and  C_12
REMARK    3  A    between atoms: C_7  and  O_10
REMARK    4  A    between atoms: C_15  and  O_18
REMARK                            x       y       z     vdW  Elec       q    Type
REMARK                         _______ _______ _______ _____ _____    ______ ____
ROOT
ATOM      1  C   UNL     1      58.831  75.428  78.719  0.00  0.00    +0.000 C 
ATOM      2  C   UNL     1      57.634  76.436  78.843  0.00  0.00    +0.000 C 
ATOM      3  C   UNL     1      58.925  74.966  77.221  0.00  0.00    +0.000 C 
ENDROOT
BRANCH   1   4
ATOM      4  C   UNL     1      60.094  76.180  79.163  0.00  0.00    +0.000 A 
ATOM      5  C   UNL     1      61.271  76.090  78.396  0.00  0.00    +0.000 A 
ATOM      6  C   UNL     1      62.440  76.744  78.779  0.00  0.00    +0.000 A 
ATOM      7  C   UNL     1      62.445  77.498  79.947  0.00  0.00    +0.000 A 
ATOM      8  C   UNL     1      61.303  77.602  80.732  0.00  0.00    +0.000 A 
ATOM      9  C   UNL     1      60.141  76.941  80.340  0.00  0.00    +0.000 A 
BRANCH   7  10
ATOM     10  O   UNL     1      63.570  78.155  80.349  0.00  0.00    +0.000 OA
ATOM     11  H   UNL     1      63.702  78.926  79.770  0.00  0.00    +0.000 HD
ENDBRANCH   7  10
ENDBRANCH   1   4
BRANCH   1  12
ATOM     12  C   UNL     1      58.602  74.164  79.560  0.00  0.00    +0.000 A 
ATOM     13  C   UNL     1      58.564  72.902  78.937  0.00  0.00    +0.000 A 
ATOM     14  C   UNL     1      58.341  71.738  79.667  0.00  0.00    +0.000 A 
ATOM     15  C   UNL     1      58.147  71.824  81.041  0.00  0.00    +0.000 A 
ATOM     16  C   UNL     1      58.171  73.053  81.688  0.00  0.00    +0.000 A 
ATOM     17  C   UNL     1      58.392  74.212  80.946  0.00  0.00    +0.000 A 
BRANCH  15  18
ATOM     18  O   UNL     1      57.932  70.703  81.787  0.00  0.00    +0.000 OA
ATOM     19  H   UNL     1      57.149  70.849  82.347  0.00  0.00    +0.000 HD
ENDBRANCH  15  18
ENDBRANCH   1  12
TORSDOF 4
ENDMDL
MODEL 7
REMARK VINA RESULT:      -5.1     14.027     15.380
REMARK  Name = Bisphenol_A.pdbqt.pdb
REMARK  4 active torsions:
REMARK  status: ('A' for Active; 'I' for Inactive)
REMARK    1  A    between atoms: C_1  and  C_4
REMARK    2  A    between atoms: C_1  and  C_12
REMARK    3  A    between atoms: C_7  and  O_10
REMARK    4  A    between atoms: C_15  and  O_18
REMARK                            x       y       z     vdW  Elec       q    Type
REMARK                         _______ _______ _______ _____ _____    ______ ____
ROOT
ATOM      1  C   UNL     1      50.666  35.114  61.147  0.00  0.00    +0.000 C 
ATOM      2  C   UNL     1      50.329  33.601  61.400  0.00  0.00    +0.000 C 
ATOM      3  C   UNL     1      49.386  35.960  61.479  0.00  0.00    +0.000 C 
ENDROOT
BRANCH   1   4
ATOM      4  C   UNL     1      51.839  35.469  62.073  0.00  0.00    +0.000 A 
ATOM      5  C   UNL     1      51.602  36.179  63.264  0.00  0.00    +0.000 A 
ATOM      6  C   UNL     1      52.644  36.533  64.119  0.00  0.00    +0.000 A 
ATOM      7  C   UNL     1      53.946  36.183  63.783  0.00  0.00    +0.000 A 
ATOM      8  C   UNL     1      54.217  35.489  62.611  0.00  0.00    +0.000 A 
ATOM      9  C   UNL     1      53.167  35.142  61.763  0.00  0.00    +0.000 A 
BRANCH   7  10
ATOM     10  O   UNL     1      54.989  36.510  64.598  0.00  0.00    +0.000 OA
ATOM     11  H   UNL     1      55.805  36.524  64.068  0.00  0.00    +0.000 HD
ENDBRANCH   7  10
ENDBRANCH   1   4
BRANCH   1  12
ATOM     12  C   UNL     1      51.007  35.384  59.675  0.00  0.00    +0.000 A 
ATOM     13  C   UNL     1      51.004  36.702  59.182  0.00  0.00    +0.000 A 
ATOM     14  C   UNL     1      51.292  36.980  57.849  0.00  0.00    +0.000 A 
ATOM     15  C   UNL     1      51.585  35.933  56.984  0.00  0.00    +0.000 A 
ATOM     16  C   UNL     1      51.591  34.618  57.434  0.00  0.00    +0.000 A 
ATOM     17  C   UNL     1      51.298  34.352  58.770  0.00  0.00    +0.000 A 
BRANCH  15  18
ATOM     18  O   UNL     1      51.877  36.171  55.673  0.00  0.00    +0.000 OA
ATOM     19  H   UNL     1      52.115  37.109  55.574  0.00  0.00    +0.000 HD
ENDBRANCH  15  18
ENDBRANCH   1  12
TORSDOF 4
ENDMDL
MODEL 8
REMARK VINA RESULT:      -5.1     10.799     13.250
REMARK  Name = Bisphenol_A.pdbqt.pdb
REMARK  4 active torsions:
REMARK  status: ('A' for Active; 'I' for Inactive)
REMARK    1  A    between atoms: C_1  and  C_4
REMARK    2  A    between atoms: C_1  and  C_12
REMARK    3  A    between atoms: C_7  and  O_10
REMARK    4  A    between atoms: C_15  and  O_18
REMARK                            x       y       z     vdW  Elec       q    Type
REMARK                         _______ _______ _______ _____ _____    ______ ____
ROOT
ATOM      1  C   UNL     1      64.142  53.804  59.246  0.00  0.00    +0.000 C 
ATOM      2  C   UNL     1      64.340  54.936  58.177  0.00  0.00    +0.000 C 
ATOM      3  C   UNL     1      65.548  53.452  59.849  0.00  0.00    +0.000 C 
ENDROOT
BRANCH   1   4
ATOM      4  C   UNL     1      63.189  54.362  60.314  0.00  0.00    +0.000 A 
ATOM      5  C   UNL     1      61.801  54.361  60.085  0.00  0.00    +0.000 A 
ATOM      6  C   UNL     1      60.909  54.876  61.024  0.00  0.00    +0.000 A 
ATOM      7  C   UNL     1      61.403  55.407  62.209  0.00  0.00    +0.000 A 
ATOM      8  C   UNL     1      62.768  55.431  62.465  0.00  0.00    +0.000 A 
ATOM      9  C   UNL     1      63.650  54.915  61.517  0.00  0.00    +0.000 A 
BRANCH   7  10
ATOM     10  O   UNL     1      60.558  55.915  63.152  0.00  0.00    +0.000 OA
ATOM     11  H   UNL     1      60.637  55.379  63.960  0.00  0.00    +0.000 HD
ENDBRANCH   7  10
ENDBRANCH   1   4
BRANCH   1  12
ATOM     12  C   UNL     1      63.593  52.515  58.618  0.00  0.00    +0.000 A 
ATOM     13  C   UNL     1      63.070  52.537  57.312  0.00  0.00    +0.000 A 
ATOM     14  C   UNL     1      62.548  51.390  56.718  0.00  0.00    +0.000 A 
ATOM     15  C   UNL     1      62.540  50.199  57.433  0.00  0.00    +0.000 A 
ATOM     16  C   UNL     1      63.042  50.141  58.728  0.00  0.00    +0.000 A 
ATOM     17  C   UNL     1      63.558  51.296  59.312  0.00  0.00    +0.000 A 
BRANCH  15  18
ATOM     18  O   UNL     1      62.042  49.056  56.880  0.00  0.00    +0.000 OA
ATOM     19  H   UNL     1      62.481  48.293  57.297  0.00  0.00    +0.000 HD
ENDBRANCH  15  18
ENDBRANCH   1  12
TORSDOF 4
ENDMDL
MODEL 9
REMARK VINA RESULT:      -5.0     12.239     13.629
REMARK  Name = Bisphenol_A.pdbqt.pdb
REMARK  4 active torsions:
REMARK  status: ('A' for Active; 'I' for Inactive)
REMARK    1  A    between atoms: C_1  and  C_4
REMARK    2  A    between atoms: C_1  and  C_12
REMARK    3  A    between atoms: C_7  and  O_10
REMARK    4  A    between atoms: C_15  and  O_18
REMARK                            x       y       z     vdW  Elec       q    Type
REMARK                         _______ _______ _______ _____ _____    ______ ____
ROOT
ATOM      1  C   UNL     1      59.272  36.459  66.614  0.00  0.00    +0.000 C 
ATOM      2  C   UNL     1      60.437  35.587  66.025  0.00  0.00    +0.000 C 
ATOM      3  C   UNL     1      58.759  35.765  67.926  0.00  0.00    +0.000 C 
ENDROOT
BRANCH   1   4
ATOM      4  C   UNL     1      59.858  37.850  66.898  0.00  0.00    +0.000 A 
ATOM      5  C   UNL     1      60.946  38.321  66.141  0.00  0.00    +0.000 A 
ATOM      6  C   UNL     1      61.513  39.571  66.384  0.00  0.00    +0.000 A 
ATOM      7  C   UNL     1      60.997  40.365  67.400  0.00  0.00    +0.000 A 
ATOM      8  C   UNL     1      59.928  39.928  68.173  0.00  0.00    +0.000 A 
ATOM      9  C   UNL     1      59.371  38.676  67.922  0.00  0.00    +0.000 A 
BRANCH   7  10
ATOM     10  O   UNL     1      61.526  41.595  67.662  0.00  0.00    +0.000 OA
ATOM     11  H   UNL     1      61.818  41.991  66.823  0.00  0.00    +0.000 HD
ENDBRANCH   7  10
ENDBRANCH   1   4
BRANCH   1  12
ATOM     12  C   UNL     1      58.075  36.535  65.655  0.00  0.00    +0.000 A 
ATOM     13  C   UNL     1      56.764  36.486  66.162  0.00  0.00    +0.000 A 
ATOM     14  C   UNL     1      55.656  36.535  65.320  0.00  0.00    +0.000 A 
ATOM     15  C   UNL     1      55.851  36.631  63.947  0.00  0.00    +0.000 A 
ATOM     16  C   UNL     1      57.132  36.676  63.411  0.00  0.00    +0.000 A 
ATOM     17  C   UNL     1      58.232  36.622  64.264  0.00  0.00    +0.000 A 
BRANCH  15  18
ATOM     18  O   UNL     1      54.789  36.688  63.094  0.00  0.00    +0.000 OA
ATOM     19  H   UNL     1      54.207  37.418  63.370  0.00  0.00    +0.000 HD
ENDBRANCH  15  18
ENDBRANCH   1  12
TORSDOF 4
ENDMDL
