MODEL 1
REMARK VINA RESULT:      -5.0      0.000      0.000
REMARK  Name = BX795.pdbqt.pdb
REMARK  7 active torsions:
REMARK  status: ('A' for Active; 'I' for Inactive)
REMARK    1  A    between atoms: C_4  and  N_25
REMARK    2  A    between atoms: N_8  and  C_10
REMARK    3  A    between atoms: C_12  and  N_16
REMARK    4  A    between atoms: N_25  and  C_27
REMARK    5  A    between atoms: C_27  and  C_28
REMARK    6  A    between atoms: C_29  and  N_30
REMARK    7  A    between atoms: C_31  and  C_34
REMARK                            x       y       z     vdW  Elec       q    Type
REMARK                         _______ _______ _______ _____ _____    ______ ____
ROOT
ATOM      1  I   UNL     1      56.969  77.948  89.616  0.00  0.00    +0.000 I 
ATOM      2  N   UNL     1      58.087  74.008  88.229  0.00  0.00    +0.000 NA
ATOM      3  N   UNL     1      56.461  73.708  89.904  0.00  0.00    +0.000 NA
ATOM      4  C   UNL     1      58.052  75.348  88.387  0.00  0.00    +0.000 A 
ATOM      5  C   UNL     1      57.302  73.227  88.985  0.00  0.00    +0.000 A 
ATOM      6  C   UNL     1      57.173  75.924  89.283  0.00  0.00    +0.000 A 
ATOM      7  C   UNL     1      56.410  75.049  90.015  0.00  0.00    +0.000 A 
ATOM      8  N   UNL     1      57.367  71.842  88.869  0.00  0.00    +0.000 N 
ATOM      9  H   UNL     1      56.777  71.387  89.549  0.00  0.00    +0.000 HD
ENDROOT
BRANCH   8  10
ATOM     10  C   UNL     1      57.945  71.047  87.873  0.00  0.00    +0.000 A 
ATOM     11  C   UNL     1      57.406  70.945  86.587  0.00  0.00    +0.000 A 
ATOM     12  C   UNL     1      58.042  70.230  85.574  0.00  0.00    +0.000 A 
ATOM     13  C   UNL     1      59.263  69.619  85.838  0.00  0.00    +0.000 A 
ATOM     14  C   UNL     1      59.828  69.713  87.107  0.00  0.00    +0.000 A 
ATOM     15  C   UNL     1      59.173  70.424  88.113  0.00  0.00    +0.000 A 
BRANCH  12  16
ATOM     16  N   UNL     1      57.379  70.128  84.337  0.00  0.00    +0.000 N 
ATOM     17  C   UNL     1      57.536  70.978  83.256  0.00  0.00    +0.000 C 
ATOM     18  O   UNL     1      58.181  72.024  83.289  0.00  0.00    +0.000 OA
ATOM     19  N   UNL     1      56.863  70.554  82.111  0.00  0.00    +0.000 N 
ATOM     20  C   UNL     1      56.081  69.468  81.851  0.00  0.00    +0.000 A 
ATOM     21  C   UNL     1      56.801  71.154  80.889  0.00  0.00    +0.000 A 
ATOM     22  C   UNL     1      55.447  69.280  80.469  0.00  0.00    +0.000 A 
ATOM     23  C   UNL     1      55.981  70.531  79.754  0.00  0.00    +0.000 A 
ATOM     24  H   UNL     1      56.670  69.408  84.263  0.00  0.00    +0.000 HD
ENDBRANCH  12  16
ENDBRANCH   8  10
BRANCH   4  25
ATOM     25  N   UNL     1      58.884  76.152  87.567  0.00  0.00    +0.000 N 
ATOM     26  H   UNL     1      59.827  76.172  87.950  0.00  0.00    +0.000 HD
BRANCH  25  27
ATOM     27  C   UNL     1      58.822  75.881  86.134  0.00  0.00    +0.000 C 
BRANCH  27  28
ATOM     28  C   UNL     1      58.863  75.573  84.633  0.00  0.00    +0.000 C 
ATOM     29  C   UNL     1      58.816  75.233  83.141  0.00  0.00    +0.000 C 
BRANCH  29  30
ATOM     30  N   UNL     1      58.719  74.941  81.824  0.00  0.00    +0.000 N 
ATOM     31  C   UNL     1      59.089  75.712  80.731  0.00  0.00    +0.000 C 
ATOM     32  O   UNL     1      59.608  76.817  80.881  0.00  0.00    +0.000 OA
ATOM     33  H   UNL     1      58.255  74.059  81.640  0.00  0.00    +0.000 HD
BRANCH  31  34
ATOM     34  C   UNL     1      58.794  75.120  79.437  0.00  0.00    +0.000 A 
ATOM     35  S   UNL     1      58.474  76.133  78.082  0.00  0.00    +0.000 S 
ATOM     36  C   UNL     1      58.230  74.795  77.072  0.00  0.00    +0.000 A 
ATOM     37  C   UNL     1      58.383  73.599  77.716  0.00  0.00    +0.000 A 
ATOM     38  C   UNL     1      58.708  73.791  79.077  0.00  0.00    +0.000 A 
ENDBRANCH  31  34
ENDBRANCH  29  30
ENDBRANCH  27  28
ENDBRANCH  25  27
ENDBRANCH   4  25
TORSDOF 7
ENDMDL
MODEL 2
REMARK VINA RESULT:      -4.8     35.673     39.018
REMARK  Name = BX795.pdbqt.pdb
REMARK  7 active torsions:
REMARK  status: ('A' for Active; 'I' for Inactive)
REMARK    1  A    between atoms: C_4  and  N_25
REMARK    2  A    between atoms: N_8  and  C_10
REMARK    3  A    between atoms: C_12  and  N_16
REMARK    4  A    between atoms: N_25  and  C_27
REMARK    5  A    between atoms: C_27  and  C_28
REMARK    6  A    between atoms: C_29  and  N_30
REMARK    7  A    between atoms: C_31  and  C_34
REMARK                            x       y       z     vdW  Elec       q    Type
REMARK                         _______ _______ _______ _____ _____    ______ ____
ROOT
ATOM      1  I   UNL     1      67.763  32.633  72.486  0.00  0.00    +0.000 I 
ATOM      2  N   UNL     1      66.842  36.857  72.604  0.00  0.00    +0.000 NA
ATOM      3  N   UNL     1      69.119  36.668  72.041  0.00  0.00    +0.000 NA
ATOM      4  C   UNL     1      66.720  35.516  72.702  0.00  0.00    +0.000 A 
ATOM      5  C   UNL     1      68.027  37.396  72.282  0.00  0.00    +0.000 A 
ATOM      6  C   UNL     1      67.792  34.693  72.420  0.00  0.00    +0.000 A 
ATOM      7  C   UNL     1      68.966  35.332  72.102  0.00  0.00    +0.000 A 
ATOM      8  N   UNL     1      68.179  38.778  72.230  0.00  0.00    +0.000 N 
ATOM      9  H   UNL     1      69.137  39.037  72.050  0.00  0.00    +0.000 HD
ENDROOT
BRANCH   8  10
ATOM     10  C   UNL     1      67.214  39.791  72.195  0.00  0.00    +0.000 A 
ATOM     11  C   UNL     1      66.091  39.729  71.364  0.00  0.00    +0.000 A 
ATOM     12  C   UNL     1      65.085  40.693  71.406  0.00  0.00    +0.000 A 
ATOM     13  C   UNL     1      65.185  41.737  72.320  0.00  0.00    +0.000 A 
ATOM     14  C   UNL     1      66.287  41.817  73.167  0.00  0.00    +0.000 A 
ATOM     15  C   UNL     1      67.290  40.849  73.104  0.00  0.00    +0.000 A 
BRANCH  12  16
ATOM     16  N   UNL     1      64.036  40.578  70.477  0.00  0.00    +0.000 N 
ATOM     17  C   UNL     1      62.812  39.972  70.701  0.00  0.00    +0.000 C 
ATOM     18  O   UNL     1      62.536  39.327  71.712  0.00  0.00    +0.000 OA
ATOM     19  N   UNL     1      61.909  40.132  69.651  0.00  0.00    +0.000 N 
ATOM     20  C   UNL     1      61.999  40.767  68.448  0.00  0.00    +0.000 A 
ATOM     21  C   UNL     1      60.635  39.661  69.545  0.00  0.00    +0.000 A 
ATOM     22  C   UNL     1      60.818  40.752  67.472  0.00  0.00    +0.000 A 
ATOM     23  C   UNL     1      59.805  39.931  68.285  0.00  0.00    +0.000 A 
ATOM     24  H   UNL     1      64.226  40.907  69.538  0.00  0.00    +0.000 HD
ENDBRANCH  12  16
ENDBRANCH   8  10
BRANCH   4  25
ATOM     25  N   UNL     1      65.453  34.970  73.033  0.00  0.00    +0.000 N 
ATOM     26  H   UNL     1      65.188  35.263  73.971  0.00  0.00    +0.000 HD
BRANCH  25  27
ATOM     27  C   UNL     1      64.405  35.137  72.030  0.00  0.00    +0.000 C 
BRANCH  27  28
ATOM     28  C   UNL     1      63.373  35.377  70.923  0.00  0.00    +0.000 C 
ATOM     29  C   UNL     1      62.395  35.562  69.760  0.00  0.00    +0.000 C 
BRANCH  29  30
ATOM     30  N   UNL     1      61.546  35.675  68.713  0.00  0.00    +0.000 N 
ATOM     31  C   UNL     1      61.611  36.537  67.628  0.00  0.00    +0.000 C 
ATOM     32  O   UNL     1      62.547  37.326  67.499  0.00  0.00    +0.000 OA
ATOM     33  H   UNL     1      60.730  35.079  68.790  0.00  0.00    +0.000 HD
BRANCH  31  34
ATOM     34  C   UNL     1      60.497  36.439  66.700  0.00  0.00    +0.000 A 
ATOM     35  S   UNL     1      59.561  34.996  66.630  0.00  0.00    +0.000 S 
ATOM     36  C   UNL     1      58.577  35.630  65.406  0.00  0.00    +0.000 A 
ATOM     37  C   UNL     1      58.922  36.902  65.041  0.00  0.00    +0.000 A 
ATOM     38  C   UNL     1      60.028  37.363  65.789  0.00  0.00    +0.000 A 
ENDBRANCH  31  34
ENDBRANCH  29  30
ENDBRANCH  27  28
ENDBRANCH  25  27
ENDBRANCH   4  25
TORSDOF 7
ENDMDL
MODEL 3
REMARK VINA RESULT:      -4.6     35.828     39.203
REMARK  Name = BX795.pdbqt.pdb
REMARK  7 active torsions:
REMARK  status: ('A' for Active; 'I' for Inactive)
REMARK    1  A    between atoms: C_4  and  N_25
REMARK    2  A    between atoms: N_8  and  C_10
REMARK    3  A    between atoms: C_12  and  N_16
REMARK    4  A    between atoms: N_25  and  C_27
REMARK    5  A    between atoms: C_27  and  C_28
REMARK    6  A    between atoms: C_29  and  N_30
REMARK    7  A    between atoms: C_31  and  C_34
REMARK                            x       y       z     vdW  Elec       q    Type
REMARK                         _______ _______ _______ _____ _____    ______ ____
ROOT
ATOM      1  I   UNL     1      72.249  38.799  61.470  0.00  0.00    +0.000 I 
ATOM      2  N   UNL     1      69.873  38.095  65.015  0.00  0.00    +0.000 NA
ATOM      3  N   UNL     1      68.382  38.177  63.196  0.00  0.00    +0.000 NA
ATOM      4  C   UNL     1      70.925  38.340  64.206  0.00  0.00    +0.000 A 
ATOM      5  C   UNL     1      68.638  38.023  64.497  0.00  0.00    +0.000 A 
ATOM      6  C   UNL     1      70.748  38.462  62.843  0.00  0.00    +0.000 A 
ATOM      7  C   UNL     1      69.450  38.377  62.402  0.00  0.00    +0.000 A 
ATOM      8  N   UNL     1      67.539  37.824  65.326  0.00  0.00    +0.000 N 
ATOM      9  H   UNL     1      66.674  37.867  64.809  0.00  0.00    +0.000 HD
ENDROOT
BRANCH   8  10
ATOM     10  C   UNL     1      67.479  37.401  66.659  0.00  0.00    +0.000 A 
ATOM     11  C   UNL     1      67.282  38.290  67.720  0.00  0.00    +0.000 A 
ATOM     12  C   UNL     1      67.125  37.850  69.033  0.00  0.00    +0.000 A 
ATOM     13  C   UNL     1      67.136  36.484  69.297  0.00  0.00    +0.000 A 
ATOM     14  C   UNL     1      67.319  35.576  68.257  0.00  0.00    +0.000 A 
ATOM     15  C   UNL     1      67.486  36.034  66.950  0.00  0.00    +0.000 A 
BRANCH  12  16
ATOM     16  N   UNL     1      67.007  38.829  70.036  0.00  0.00    +0.000 N 
ATOM     17  C   UNL     1      65.957  39.717  70.188  0.00  0.00    +0.000 C 
ATOM     18  O   UNL     1      65.046  39.856  69.372  0.00  0.00    +0.000 OA
ATOM     19  N   UNL     1      66.033  40.478  71.354  0.00  0.00    +0.000 N 
ATOM     20  C   UNL     1      66.942  40.517  72.370  0.00  0.00    +0.000 A 
ATOM     21  C   UNL     1      65.178  41.440  71.800  0.00  0.00    +0.000 A 
ATOM     22  C   UNL     1      66.763  41.498  73.534  0.00  0.00    +0.000 A 
ATOM     23  C   UNL     1      65.455  42.183  73.112  0.00  0.00    +0.000 A 
ATOM     24  H   UNL     1      67.799  38.936  70.658  0.00  0.00    +0.000 HD
ENDBRANCH  12  16
ENDBRANCH   8  10
BRANCH   4  25
ATOM     25  N   UNL     1      72.223  38.400  64.777  0.00  0.00    +0.000 N 
ATOM     26  H   UNL     1      72.916  38.132  64.082  0.00  0.00    +0.000 HD
BRANCH  25  27
ATOM     27  C   UNL     1      72.543  39.624  65.507  0.00  0.00    +0.000 C 
BRANCH  27  28
ATOM     28  C   UNL     1      72.787  40.950  66.234  0.00  0.00    +0.000 C 
ATOM     29  C   UNL     1      73.098  42.294  66.898  0.00  0.00    +0.000 C 
BRANCH  29  30
ATOM     30  N   UNL     1      73.390  43.501  67.435  0.00  0.00    +0.000 N 
ATOM     31  C   UNL     1      72.667  44.683  67.366  0.00  0.00    +0.000 C 
ATOM     32  O   UNL     1      71.586  44.733  66.780  0.00  0.00    +0.000 OA
ATOM     33  H   UNL     1      74.294  43.530  67.893  0.00  0.00    +0.000 HD
BRANCH  31  34
ATOM     34  C   UNL     1      73.295  45.823  68.011  0.00  0.00    +0.000 A 
ATOM     35  S   UNL     1      73.128  46.050  69.709  0.00  0.00    +0.000 S 
ATOM     36  C   UNL     1      74.046  47.474  69.663  0.00  0.00    +0.000 A 
ATOM     37  C   UNL     1      74.484  47.793  68.408  0.00  0.00    +0.000 A 
ATOM     38  C   UNL     1      74.050  46.839  67.460  0.00  0.00    +0.000 A 
ENDBRANCH  31  34
ENDBRANCH  29  30
ENDBRANCH  27  28
ENDBRANCH  25  27
ENDBRANCH   4  25
TORSDOF 7
ENDMDL
MODEL 4
REMARK VINA RESULT:      -4.6     29.116     32.079
REMARK  Name = BX795.pdbqt.pdb
REMARK  7 active torsions:
REMARK  status: ('A' for Active; 'I' for Inactive)
REMARK    1  A    between atoms: C_4  and  N_25
REMARK    2  A    between atoms: N_8  and  C_10
REMARK    3  A    between atoms: C_12  and  N_16
REMARK    4  A    between atoms: N_25  and  C_27
REMARK    5  A    between atoms: C_27  and  C_28
REMARK    6  A    between atoms: C_29  and  N_30
REMARK    7  A    between atoms: C_31  and  C_34
REMARK                            x       y       z     vdW  Elec       q    Type
REMARK                         _______ _______ _______ _____ _____    ______ ____
ROOT
ATOM      1  I   UNL     1      50.132  55.211  56.378  0.00  0.00    +0.000 I 
ATOM      2  N   UNL     1      54.047  53.701  57.426  0.00  0.00    +0.000 NA
ATOM      3  N   UNL     1      52.492  52.576  58.788  0.00  0.00    +0.000 NA
ATOM      4  C   UNL     1      53.067  54.428  56.849  0.00  0.00    +0.000 A 
ATOM      5  C   UNL     1      53.741  52.804  58.374  0.00  0.00    +0.000 A 
ATOM      6  C   UNL     1      51.745  54.216  57.188  0.00  0.00    +0.000 A 
ATOM      7  C   UNL     1      51.526  53.280  58.169  0.00  0.00    +0.000 A 
ATOM      8  N   UNL     1      54.746  52.087  59.014  0.00  0.00    +0.000 N 
ATOM      9  H   UNL     1      54.374  51.507  59.751  0.00  0.00    +0.000 HD
ENDROOT
BRANCH   8  10
ATOM     10  C   UNL     1      56.092  51.915  58.668  0.00  0.00    +0.000 A 
ATOM     11  C   UNL     1      57.122  52.628  59.288  0.00  0.00    +0.000 A 
ATOM     12  C   UNL     1      58.465  52.380  59.008  0.00  0.00    +0.000 A 
ATOM     13  C   UNL     1      58.795  51.375  58.106  0.00  0.00    +0.000 A 
ATOM     14  C   UNL     1      57.789  50.641  57.483  0.00  0.00    +0.000 A 
ATOM     15  C   UNL     1      56.450  50.910  57.766  0.00  0.00    +0.000 A 
BRANCH  12  16
ATOM     16  N   UNL     1      59.421  53.204  59.630  0.00  0.00    +0.000 N 
ATOM     17  C   UNL     1      60.097  54.257  59.039  0.00  0.00    +0.000 C 
ATOM     18  O   UNL     1      60.047  54.523  57.839  0.00  0.00    +0.000 OA
ATOM     19  N   UNL     1      60.878  54.990  59.932  0.00  0.00    +0.000 N 
ATOM     20  C   UNL     1      61.105  54.869  61.270  0.00  0.00    +0.000 A 
ATOM     21  C   UNL     1      61.667  56.072  59.682  0.00  0.00    +0.000 A 
ATOM     22  C   UNL     1      62.053  55.835  61.988  0.00  0.00    +0.000 A 
ATOM     23  C   UNL     1      62.471  56.728  60.810  0.00  0.00    +0.000 A 
ATOM     24  H   UNL     1      59.687  52.953  60.574  0.00  0.00    +0.000 HD
ENDBRANCH  12  16
ENDBRANCH   8  10
BRANCH   4  25
ATOM     25  N   UNL     1      53.416  55.363  55.841  0.00  0.00    +0.000 N 
ATOM     26  H   UNL     1      52.581  55.848  55.519  0.00  0.00    +0.000 HD
BRANCH  25  27
ATOM     27  C   UNL     1      54.543  56.241  56.147  0.00  0.00    +0.000 C 
BRANCH  27  28
ATOM     28  C   UNL     1      55.683  57.174  56.567  0.00  0.00    +0.000 C 
ATOM     29  C   UNL     1      56.867  58.031  57.022  0.00  0.00    +0.000 C 
BRANCH  29  30
ATOM     30  N   UNL     1      57.947  58.744  57.416  0.00  0.00    +0.000 N 
ATOM     31  C   UNL     1      58.819  58.494  58.466  0.00  0.00    +0.000 C 
ATOM     32  O   UNL     1      58.688  57.498  59.177  0.00  0.00    +0.000 OA
ATOM     33  H   UNL     1      58.077  59.602  56.893  0.00  0.00    +0.000 HD
BRANCH  31  34
ATOM     34  C   UNL     1      59.852  59.498  58.655  0.00  0.00    +0.000 A 
ATOM     35  S   UNL     1      61.254  59.486  57.656  0.00  0.00    +0.000 S 
ATOM     36  C   UNL     1      61.903  60.830  58.459  0.00  0.00    +0.000 A 
ATOM     37  C   UNL     1      61.100  61.299  59.461  0.00  0.00    +0.000 A 
ATOM     38  C   UNL     1      59.920  60.529  59.570  0.00  0.00    +0.000 A 
ENDBRANCH  31  34
ENDBRANCH  29  30
ENDBRANCH  27  28
ENDBRANCH  25  27
ENDBRANCH   4  25
TORSDOF 7
ENDMDL
MODEL 5
REMARK VINA RESULT:      -4.5     37.619     41.698
REMARK  Name = BX795.pdbqt.pdb
REMARK  7 active torsions:
REMARK  status: ('A' for Active; 'I' for Inactive)
REMARK    1  A    between atoms: C_4  and  N_25
REMARK    2  A    between atoms: N_8  and  C_10
REMARK    3  A    between atoms: C_12  and  N_16
REMARK    4  A    between atoms: N_25  and  C_27
REMARK    5  A    between atoms: C_27  and  C_28
REMARK    6  A    between atoms: C_29  and  N_30
REMARK    7  A    between atoms: C_31  and  C_34
REMARK                            x       y       z     vdW  Elec       q    Type
REMARK                         _______ _______ _______ _____ _____    ______ ____
ROOT
ATOM      1  I   UNL     1      62.863  29.330  69.085  0.00  0.00    +0.000 I 
ATOM      2  N   UNL     1      62.003  33.358  67.766  0.00  0.00    +0.000 NA
ATOM      3  N   UNL     1      63.865  32.616  66.532  0.00  0.00    +0.000 NA
ATOM      4  C   UNL     1      61.952  32.196  68.451  0.00  0.00    +0.000 A 
ATOM      5  C   UNL     1      62.951  33.540  66.834  0.00  0.00    +0.000 A 
ATOM      6  C   UNL     1      62.832  31.172  68.161  0.00  0.00    +0.000 A 
ATOM      7  C   UNL     1      63.768  31.448  67.195  0.00  0.00    +0.000 A 
ATOM      8  N   UNL     1      63.047  34.752  66.159  0.00  0.00    +0.000 N 
ATOM      9  H   UNL     1      63.848  34.770  65.545  0.00  0.00    +0.000 HD
ENDROOT
BRANCH   8  10
ATOM     10  C   UNL     1      62.135  35.809  66.067  0.00  0.00    +0.000 A 
ATOM     11  C   UNL     1      60.819  35.627  65.631  0.00  0.00    +0.000 A 
ATOM     12  C   UNL     1      59.888  36.666  65.635  0.00  0.00    +0.000 A 
ATOM     13  C   UNL     1      60.269  37.915  66.112  0.00  0.00    +0.000 A 
ATOM     14  C   UNL     1      61.570  38.121  66.563  0.00  0.00    +0.000 A 
ATOM     15  C   UNL     1      62.492  37.074  66.541  0.00  0.00    +0.000 A 
BRANCH  12  16
ATOM     16  N   UNL     1      58.613  36.397  65.107  0.00  0.00    +0.000 N 
ATOM     17  C   UNL     1      57.405  36.799  65.650  0.00  0.00    +0.000 C 
ATOM     18  O   UNL     1      57.287  37.333  66.752  0.00  0.00    +0.000 OA
ATOM     19  N   UNL     1      56.306  36.517  64.838  0.00  0.00    +0.000 N 
ATOM     20  C   UNL     1      56.193  35.921  63.618  0.00  0.00    +0.000 A 
ATOM     21  C   UNL     1      54.988  36.769  65.072  0.00  0.00    +0.000 A 
ATOM     22  C   UNL     1      54.817  35.727  62.973  0.00  0.00    +0.000 A 
ATOM     23  C   UNL     1      53.922  36.356  64.051  0.00  0.00    +0.000 A 
ATOM     24  H   UNL     1      58.578  35.792  64.295  0.00  0.00    +0.000 HD
ENDBRANCH  12  16
ENDBRANCH   8  10
BRANCH   4  25
ATOM     25  N   UNL     1      60.934  32.024  69.424  0.00  0.00    +0.000 N 
ATOM     26  H   UNL     1      61.350  31.753  70.312  0.00  0.00    +0.000 HD
BRANCH  25  27
ATOM     27  C   UNL     1      59.956  33.103  69.521  0.00  0.00    +0.000 C 
BRANCH  27  28
ATOM     28  C   UNL     1      59.000  34.300  69.572  0.00  0.00    +0.000 C 
ATOM     29  C   UNL     1      57.988  35.449  69.565  0.00  0.00    +0.000 C 
BRANCH  29  30
ATOM     30  N   UNL     1      57.053  36.426  69.549  0.00  0.00    +0.000 N 
ATOM     31  C   UNL     1      57.016  37.607  70.277  0.00  0.00    +0.000 C 
ATOM     32  O   UNL     1      57.927  37.907  71.048  0.00  0.00    +0.000 OA
ATOM     33  H   UNL     1      56.254  36.211  68.964  0.00  0.00    +0.000 HD
BRANCH  31  34
ATOM     34  C   UNL     1      55.830  38.419  70.065  0.00  0.00    +0.000 A 
ATOM     35  S   UNL     1      55.635  39.896  70.928  0.00  0.00    +0.000 S 
ATOM     36  C   UNL     1      54.134  40.187  70.196  0.00  0.00    +0.000 A 
ATOM     37  C   UNL     1      53.766  39.210  69.314  0.00  0.00    +0.000 A 
ATOM     38  C   UNL     1      54.746  38.195  69.242  0.00  0.00    +0.000 A 
ENDBRANCH  31  34
ENDBRANCH  29  30
ENDBRANCH  27  28
ENDBRANCH  25  27
ENDBRANCH   4  25
TORSDOF 7
ENDMDL
MODEL 6
REMARK VINA RESULT:      -4.5     25.563     28.382
REMARK  Name = BX795.pdbqt.pdb
REMARK  7 active torsions:
REMARK  status: ('A' for Active; 'I' for Inactive)
REMARK    1  A    between atoms: C_4  and  N_25
REMARK    2  A    between atoms: N_8  and  C_10
REMARK    3  A    between atoms: C_12  and  N_16
REMARK    4  A    between atoms: N_25  and  C_27
REMARK    5  A    between atoms: C_27  and  C_28
REMARK    6  A    between atoms: C_29  and  N_30
REMARK    7  A    between atoms: C_31  and  C_34
REMARK                            x       y       z     vdW  Elec       q    Type
REMARK                         _______ _______ _______ _____ _____    ______ ____
ROOT
ATOM      1  I   UNL     1      77.059  57.259  73.940  0.00  0.00    +0.000 I 
ATOM      2  N   UNL     1      75.001  53.577  72.985  0.00  0.00    +0.000 NA
ATOM      3  N   UNL     1      74.561  55.082  71.231  0.00  0.00    +0.000 NA
ATOM      4  C   UNL     1      75.729  54.504  73.643  0.00  0.00    +0.000 A 
ATOM      5  C   UNL     1      74.437  53.885  71.808  0.00  0.00    +0.000 A 
ATOM      6  C   UNL     1      75.944  55.749  73.087  0.00  0.00    +0.000 A 
ATOM      7  C   UNL     1      75.328  55.977  71.881  0.00  0.00    +0.000 A 
ATOM      8  N   UNL     1      73.640  52.957  71.147  0.00  0.00    +0.000 N 
ATOM      9  H   UNL     1      73.226  53.352  70.316  0.00  0.00    +0.000 HD
ENDROOT
BRANCH   8  10
ATOM     10  C   UNL     1      73.502  51.579  71.349  0.00  0.00    +0.000 A 
ATOM     11  C   UNL     1      72.778  51.048  72.421  0.00  0.00    +0.000 A 
ATOM     12  C   UNL     1      72.563  49.677  72.561  0.00  0.00    +0.000 A 
ATOM     13  C   UNL     1      73.057  48.811  71.592  0.00  0.00    +0.000 A 
ATOM     14  C   UNL     1      73.772  49.314  70.508  0.00  0.00    +0.000 A 
ATOM     15  C   UNL     1      73.988  50.687  70.389  0.00  0.00    +0.000 A 
BRANCH  12  16
ATOM     16  N   UNL     1      71.886  49.241  73.714  0.00  0.00    +0.000 N 
ATOM     17  C   UNL     1      72.469  48.686  74.840  0.00  0.00    +0.000 C 
ATOM     18  O   UNL     1      73.656  48.374  74.920  0.00  0.00    +0.000 OA
ATOM     19  N   UNL     1      71.573  48.480  75.889  0.00  0.00    +0.000 N 
ATOM     20  C   UNL     1      70.237  48.716  76.017  0.00  0.00    +0.000 A 
ATOM     21  C   UNL     1      71.812  47.950  77.120  0.00  0.00    +0.000 A 
ATOM     22  C   UNL     1      69.506  48.355  77.315  0.00  0.00    +0.000 A 
ATOM     23  C   UNL     1      70.674  47.787  78.134  0.00  0.00    +0.000 A 
ATOM     24  H   UNL     1      70.874  49.271  73.682  0.00  0.00    +0.000 HD
ENDBRANCH  12  16
ENDBRANCH   8  10
BRANCH   4  25
ATOM     25  N   UNL     1      76.324  54.149  74.881  0.00  0.00    +0.000 N 
ATOM     26  H   UNL     1      77.222  54.619  74.977  0.00  0.00    +0.000 HD
BRANCH  25  27
ATOM     27  C   UNL     1      75.463  54.251  76.056  0.00  0.00    +0.000 C 
BRANCH  27  28
ATOM     28  C   UNL     1      74.473  54.357  77.221  0.00  0.00    +0.000 C 
ATOM     29  C   UNL     1      73.499  54.371  78.402  0.00  0.00    +0.000 C 
BRANCH  29  30
ATOM     30  N   UNL     1      72.667  54.341  79.468  0.00  0.00    +0.000 N 
ATOM     31  C   UNL     1      71.953  53.270  79.986  0.00  0.00    +0.000 C 
ATOM     32  O   UNL     1      72.044  52.148  79.491  0.00  0.00    +0.000 OA
ATOM     33  H   UNL     1      72.519  55.251  79.889  0.00  0.00    +0.000 HD
BRANCH  31  34
ATOM     34  C   UNL     1      71.099  53.593  81.116  0.00  0.00    +0.000 A 
ATOM     35  S   UNL     1      71.200  52.664  82.562  0.00  0.00    +0.000 S 
ATOM     36  C   UNL     1      69.983  53.584  83.301  0.00  0.00    +0.000 A 
ATOM     37  C   UNL     1      69.497  54.578  82.499  0.00  0.00    +0.000 A 
ATOM     38  C   UNL     1      70.143  54.580  81.242  0.00  0.00    +0.000 A 
ENDBRANCH  31  34
ENDBRANCH  29  30
ENDBRANCH  27  28
ENDBRANCH  25  27
ENDBRANCH   4  25
TORSDOF 7
ENDMDL
MODEL 7
REMARK VINA RESULT:      -4.4     12.176     15.495
REMARK  Name = BX795.pdbqt.pdb
REMARK  7 active torsions:
REMARK  status: ('A' for Active; 'I' for Inactive)
REMARK    1  A    between atoms: C_4  and  N_25
REMARK    2  A    between atoms: N_8  and  C_10
REMARK    3  A    between atoms: C_12  and  N_16
REMARK    4  A    between atoms: N_25  and  C_27
REMARK    5  A    between atoms: C_27  and  C_28
REMARK    6  A    between atoms: C_29  and  N_30
REMARK    7  A    between atoms: C_31  and  C_34
REMARK                            x       y       z     vdW  Elec       q    Type
REMARK                         _______ _______ _______ _____ _____    ______ ____
ROOT
ATOM      1  I   UNL     1      51.181  66.153  86.117  0.00  0.00    +0.000 I 
ATOM      2  N   UNL     1      53.130  63.075  83.787  0.00  0.00    +0.000 NA
ATOM      3  N   UNL     1      54.545  63.557  85.604  0.00  0.00    +0.000 NA
ATOM      4  C   UNL     1      52.243  64.010  84.186  0.00  0.00    +0.000 A 
ATOM      5  C   UNL     1      54.251  62.875  84.495  0.00  0.00    +0.000 A 
ATOM      6  C   UNL     1      52.452  64.723  85.350  0.00  0.00    +0.000 A 
ATOM      7  C   UNL     1      53.626  64.453  86.010  0.00  0.00    +0.000 A 
ATOM      8  N   UNL     1      55.199  61.952  84.065  0.00  0.00    +0.000 N 
ATOM      9  H   UNL     1      56.018  61.963  84.654  0.00  0.00    +0.000 HD
ENDROOT
BRANCH   8  10
ATOM     10  C   UNL     1      55.099  60.934  83.110  0.00  0.00    +0.000 A 
ATOM     11  C   UNL     1      54.349  59.774  83.326  0.00  0.00    +0.000 A 
ATOM     12  C   UNL     1      54.174  58.811  82.333  0.00  0.00    +0.000 A 
ATOM     13  C   UNL     1      54.738  59.020  81.079  0.00  0.00    +0.000 A 
ATOM     14  C   UNL     1      55.480  60.172  80.833  0.00  0.00    +0.000 A 
ATOM     15  C   UNL     1      55.654  61.121  81.841  0.00  0.00    +0.000 A 
BRANCH  12  16
ATOM     16  N   UNL     1      53.465  57.646  82.677  0.00  0.00    +0.000 N 
ATOM     17  C   UNL     1      52.318  57.179  82.059  0.00  0.00    +0.000 C 
ATOM     18  O   UNL     1      51.688  57.805  81.209  0.00  0.00    +0.000 OA
ATOM     19  N   UNL     1      51.912  55.924  82.512  0.00  0.00    +0.000 N 
ATOM     20  C   UNL     1      52.424  55.072  83.445  0.00  0.00    +0.000 A 
ATOM     21  C   UNL     1      50.833  55.188  82.125  0.00  0.00    +0.000 A 
ATOM     22  C   UNL     1      51.727  53.741  83.746  0.00  0.00    +0.000 A 
ATOM     23  C   UNL     1      50.546  53.826  82.767  0.00  0.00    +0.000 A 
ATOM     24  H   UNL     1      53.786  57.147  83.498  0.00  0.00    +0.000 HD
ENDBRANCH  12  16
ENDBRANCH   8  10
BRANCH   4  25
ATOM     25  N   UNL     1      51.060  64.195  83.425  0.00  0.00    +0.000 N 
ATOM     26  H   UNL     1      51.092  65.097  82.955  0.00  0.00    +0.000 HD
BRANCH  25  27
ATOM     27  C   UNL     1      50.675  63.080  82.563  0.00  0.00    +0.000 C 
BRANCH  27  28
ATOM     28  C   UNL     1      50.350  61.941  81.592  0.00  0.00    +0.000 C 
ATOM     29  C   UNL     1      50.026  60.743  80.694  0.00  0.00    +0.000 C 
BRANCH  29  30
ATOM     30  N   UNL     1      49.715  59.661  79.945  0.00  0.00    +0.000 N 
ATOM     31  C   UNL     1      49.660  59.546  78.563  0.00  0.00    +0.000 C 
ATOM     32  O   UNL     1      49.942  60.496  77.835  0.00  0.00    +0.000 OA
ATOM     33  H   UNL     1      49.429  58.859  80.494  0.00  0.00    +0.000 HD
BRANCH  31  34
ATOM     34  C   UNL     1      49.232  58.246  78.075  0.00  0.00    +0.000 A 
ATOM     35  S   UNL     1      47.553  57.890  77.938  0.00  0.00    +0.000 S 
ATOM     36  C   UNL     1      47.876  56.325  77.373  0.00  0.00    +0.000 A 
ATOM     37  C   UNL     1      49.212  56.052  77.276  0.00  0.00    +0.000 A 
ATOM     38  C   UNL     1      49.989  57.161  77.681  0.00  0.00    +0.000 A 
ENDBRANCH  31  34
ENDBRANCH  29  30
ENDBRANCH  27  28
ENDBRANCH  25  27
ENDBRANCH   4  25
TORSDOF 7
ENDMDL
MODEL 8
REMARK VINA RESULT:      -4.4     34.562     37.624
REMARK  Name = BX795.pdbqt.pdb
REMARK  7 active torsions:
REMARK  status: ('A' for Active; 'I' for Inactive)
REMARK    1  A    between atoms: C_4  and  N_25
REMARK    2  A    between atoms: N_8  and  C_10
REMARK    3  A    between atoms: C_12  and  N_16
REMARK    4  A    between atoms: N_25  and  C_27
REMARK    5  A    between atoms: C_27  and  C_28
REMARK    6  A    between atoms: C_29  and  N_30
REMARK    7  A    between atoms: C_31  and  C_34
REMARK                            x       y       z     vdW  Elec       q    Type
REMARK                         _______ _______ _______ _____ _____    ______ ____
ROOT
ATOM      1  I   UNL     1      63.031  46.694  50.852  0.00  0.00    +0.000 I 
ATOM      2  N   UNL     1      62.840  48.673  54.693  0.00  0.00    +0.000 NA
ATOM      3  N   UNL     1      64.777  47.336  54.707  0.00  0.00    +0.000 NA
ATOM      4  C   UNL     1      62.521  48.256  53.450  0.00  0.00    +0.000 A 
ATOM      5  C   UNL     1      63.947  48.206  55.288  0.00  0.00    +0.000 A 
ATOM      6  C   UNL     1      63.354  47.395  52.764  0.00  0.00    +0.000 A 
ATOM      7  C   UNL     1      64.463  46.967  53.451  0.00  0.00    +0.000 A 
ATOM      8  N   UNL     1      64.260  48.587  56.589  0.00  0.00    +0.000 N 
ATOM      9  H   UNL     1      65.076  48.102  56.929  0.00  0.00    +0.000 HD
ENDROOT
BRANCH   8  10
ATOM     10  C   UNL     1      63.752  49.632  57.370  0.00  0.00    +0.000 A 
ATOM     11  C   UNL     1      62.383  49.904  57.458  0.00  0.00    +0.000 A 
ATOM     12  C   UNL     1      61.879  50.882  58.315  0.00  0.00    +0.000 A 
ATOM     13  C   UNL     1      62.757  51.591  59.127  0.00  0.00    +0.000 A 
ATOM     14  C   UNL     1      64.123  51.332  59.067  0.00  0.00    +0.000 A 
ATOM     15  C   UNL     1      64.613  50.358  58.196  0.00  0.00    +0.000 A 
BRANCH  12  16
ATOM     16  N   UNL     1      60.494  51.129  58.274  0.00  0.00    +0.000 N 
ATOM     17  C   UNL     1      59.824  51.851  57.302  0.00  0.00    +0.000 C 
ATOM     18  O   UNL     1      60.380  52.493  56.412  0.00  0.00    +0.000 OA
ATOM     19  N   UNL     1      58.436  51.812  57.435  0.00  0.00    +0.000 N 
ATOM     20  C   UNL     1      57.615  51.204  58.337  0.00  0.00    +0.000 A 
ATOM     21  C   UNL     1      57.490  52.413  56.662  0.00  0.00    +0.000 A 
ATOM     22  C   UNL     1      56.095  51.365  58.235  0.00  0.00    +0.000 A 
ATOM     23  C   UNL     1      56.001  52.263  56.992  0.00  0.00    +0.000 A 
ATOM     24  H   UNL     1      59.955  50.808  59.068  0.00  0.00    +0.000 HD
ENDBRANCH  12  16
ENDBRANCH   8  10
BRANCH   4  25
ATOM     25  N   UNL     1      61.350  48.774  52.838  0.00  0.00    +0.000 N 
ATOM     26  H   UNL     1      61.258  48.394  51.898  0.00  0.00    +0.000 HD
BRANCH  25  27
ATOM     27  C   UNL     1      60.129  48.707  53.637  0.00  0.00    +0.000 C 
BRANCH  27  28
ATOM     28  C   UNL     1      58.817  48.730  54.428  0.00  0.00    +0.000 C 
ATOM     29  C   UNL     1      57.471  48.810  55.152  0.00  0.00    +0.000 C 
BRANCH  29  30
ATOM     30  N   UNL     1      56.257  48.890  55.743  0.00  0.00    +0.000 N 
ATOM     31  C   UNL     1      55.380  47.867  56.072  0.00  0.00    +0.000 C 
ATOM     32  O   UNL     1      55.669  46.690  55.860  0.00  0.00    +0.000 OA
ATOM     33  H   UNL     1      55.947  49.842  55.900  0.00  0.00    +0.000 HD
BRANCH  31  34
ATOM     34  C   UNL     1      54.120  48.302  56.651  0.00  0.00    +0.000 A 
ATOM     35  S   UNL     1      52.752  48.558  55.639  0.00  0.00    +0.000 S 
ATOM     36  C   UNL     1      51.796  49.027  56.958  0.00  0.00    +0.000 A 
ATOM     37  C   UNL     1      52.469  48.997  58.148  0.00  0.00    +0.000 A 
ATOM     38  C   UNL     1      53.806  48.579  57.966  0.00  0.00    +0.000 A 
ENDBRANCH  31  34
ENDBRANCH  29  30
ENDBRANCH  27  28
ENDBRANCH  25  27
ENDBRANCH   4  25
TORSDOF 7
ENDMDL
MODEL 9
REMARK VINA RESULT:      -4.4      5.300      8.015
REMARK  Name = BX795.pdbqt.pdb
REMARK  7 active torsions:
REMARK  status: ('A' for Active; 'I' for Inactive)
REMARK    1  A    between atoms: C_4  and  N_25
REMARK    2  A    between atoms: N_8  and  C_10
REMARK    3  A    between atoms: C_12  and  N_16
REMARK    4  A    between atoms: N_25  and  C_27
REMARK    5  A    between atoms: C_27  and  C_28
REMARK    6  A    between atoms: C_29  and  N_30
REMARK    7  A    between atoms: C_31  and  C_34
REMARK                            x       y       z     vdW  Elec       q    Type
REMARK                         _______ _______ _______ _____ _____    ______ ____
ROOT
ATOM      1  I   UNL     1      54.561  77.076  89.953  0.00  0.00    +0.000 I 
ATOM      2  N   UNL     1      56.809  73.589  88.732  0.00  0.00    +0.000 NA
ATOM      3  N   UNL     1      54.907  72.811  89.880  0.00  0.00    +0.000 NA
ATOM      4  C   UNL     1      56.451  74.873  88.941  0.00  0.00    +0.000 A 
ATOM      5  C   UNL     1      56.039  72.598  89.205  0.00  0.00    +0.000 A 
ATOM      6  C   UNL     1      55.269  75.175  89.589  0.00  0.00    +0.000 A 
ATOM      7  C   UNL     1      54.546  74.097  90.039  0.00  0.00    +0.000 A 
ATOM      8  N   UNL     1      56.424  71.271  89.043  0.00  0.00    +0.000 N 
ATOM      9  H   UNL     1      55.789  70.642  89.511  0.00  0.00    +0.000 HD
ENDROOT
BRANCH   8  10
ATOM     10  C   UNL     1      57.395  70.709  88.206  0.00  0.00    +0.000 A 
ATOM     11  C   UNL     1      57.427  70.949  86.829  0.00  0.00    +0.000 A 
ATOM     12  C   UNL     1      58.454  70.466  86.019  0.00  0.00    +0.000 A 
ATOM     13  C   UNL     1      59.493  69.745  86.598  0.00  0.00    +0.000 A 
ATOM     14  C   UNL     1      59.491  69.501  87.968  0.00  0.00    +0.000 A 
ATOM     15  C   UNL     1      58.450  69.982  88.763  0.00  0.00    +0.000 A 
BRANCH  12  16
ATOM     16  N   UNL     1      58.354  70.700  84.635  0.00  0.00    +0.000 N 
ATOM     17  C   UNL     1      57.353  70.237  83.801  0.00  0.00    +0.000 C 
ATOM     18  O   UNL     1      56.484  69.435  84.143  0.00  0.00    +0.000 OA
ATOM     19  N   UNL     1      57.428  70.743  82.503  0.00  0.00    +0.000 N 
ATOM     20  C   UNL     1      58.296  71.603  81.900  0.00  0.00    +0.000 A 
ATOM     21  C   UNL     1      56.613  70.488  81.442  0.00  0.00    +0.000 A 
ATOM     22  C   UNL     1      58.130  71.963  80.420  0.00  0.00    +0.000 A 
ATOM     23  C   UNL     1      56.882  71.137  80.079  0.00  0.00    +0.000 A 
ATOM     24  H   UNL     1      59.127  71.193  84.204  0.00  0.00    +0.000 HD
ENDBRANCH  12  16
ENDBRANCH   8  10
BRANCH   4  25
ATOM     25  N   UNL     1      57.277  75.903  88.422  0.00  0.00    +0.000 N 
ATOM     26  H   UNL     1      56.701  76.690  88.130  0.00  0.00    +0.000 HD
BRANCH  25  27
ATOM     27  C   UNL     1      58.430  76.270  89.240  0.00  0.00    +0.000 C 
BRANCH  27  28
ATOM     28  C   UNL     1      59.570  76.690  90.173  0.00  0.00    +0.000 C 
ATOM     29  C   UNL     1      60.728  77.018  91.119  0.00  0.00    +0.000 C 
BRANCH  29  30
ATOM     30  N   UNL     1      61.776  77.260  91.939  0.00  0.00    +0.000 N 
ATOM     31  C   UNL     1      61.781  77.858  93.191  0.00  0.00    +0.000 C 
ATOM     32  O   UNL     1      60.736  78.229  93.723  0.00  0.00    +0.000 OA
ATOM     33  H   UNL     1      62.671  77.015  91.533  0.00  0.00    +0.000 HD
BRANCH  31  34
ATOM     34  C   UNL     1      63.097  78.020  93.786  0.00  0.00    +0.000 A 
ATOM     35  S   UNL     1      63.346  77.625  95.443  0.00  0.00    +0.000 S 
ATOM     36  C   UNL     1      64.978  78.073  95.361  0.00  0.00    +0.000 A 
ATOM     37  C   UNL     1      65.355  78.511  94.122  0.00  0.00    +0.000 A 
ATOM     38  C   UNL     1      64.269  78.478  93.219  0.00  0.00    +0.000 A 
ENDBRANCH  31  34
ENDBRANCH  29  30
ENDBRANCH  27  28
ENDBRANCH  25  27
ENDBRANCH   4  25
TORSDOF 7
ENDMDL
