MODEL 1
REMARK VINA RESULT:      -2.9      0.000      0.000
REMARK  Name = CadmiumAcetate.pdbqt.pdb
REMARK  1 active torsions:
REMARK  status: ('A' for Active; 'I' for Inactive)
REMARK    1  A    between atoms: C_3  and  O_4
REMARK                            x       y       z     vdW  Elec       q    Type
REMARK                         _______ _______ _______ _____ _____    ______ ____
ROOT
ATOM      1  O   UNL     1      50.220  37.642  57.028  0.00  0.00    +0.000 OA
ATOM      2  C   UNL     1      51.851  36.024  56.951  0.00  0.00    +0.000 C 
ATOM      3  C   UNL     1      51.269  37.261  57.504  0.00  0.00    +0.000 C 
ENDROOT
BRANCH   3   4
ATOM      4  O   UNL     1      51.957  37.848  58.482  0.00  0.00    +0.000 OA
ATOM      5  H   UNL     1      52.129  38.736  58.119  0.00  0.00    +0.000 HD
ENDBRANCH   3   4
TORSDOF 1
ENDMDL
MODEL 2
REMARK VINA RESULT:      -2.8     10.784     11.291
REMARK  Name = CadmiumAcetate.pdbqt.pdb
REMARK  1 active torsions:
REMARK  status: ('A' for Active; 'I' for Inactive)
REMARK    1  A    between atoms: C_3  and  O_4
REMARK                            x       y       z     vdW  Elec       q    Type
REMARK                         _______ _______ _______ _____ _____    ______ ____
ROOT
ATOM      1  O   UNL     1      61.373  37.171  57.147  0.00  0.00    +0.000 OA
ATOM      2  C   UNL     1      62.698  37.880  55.407  0.00  0.00    +0.000 C 
ATOM      3  C   UNL     1      62.490  37.517  56.821  0.00  0.00    +0.000 C 
ENDROOT
BRANCH   3   4
ATOM      4  O   UNL     1      63.557  37.604  57.612  0.00  0.00    +0.000 OA
ATOM      5  H   UNL     1      63.722  36.674  57.851  0.00  0.00    +0.000 HD
ENDBRANCH   3   4
TORSDOF 1
ENDMDL
MODEL 3
REMARK VINA RESULT:      -2.6     10.492     10.751
REMARK  Name = CadmiumAcetate.pdbqt.pdb
REMARK  1 active torsions:
REMARK  status: ('A' for Active; 'I' for Inactive)
REMARK    1  A    between atoms: C_3  and  O_4
REMARK                            x       y       z     vdW  Elec       q    Type
REMARK                         _______ _______ _______ _____ _____    ______ ____
ROOT
ATOM      1  O   UNL     1      61.814  40.951  56.143  0.00  0.00    +0.000 OA
ATOM      2  C   UNL     1      60.619  39.054  55.635  0.00  0.00    +0.000 C 
ATOM      3  C   UNL     1      61.685  39.765  56.365  0.00  0.00    +0.000 C 
ENDROOT
BRANCH   3   4
ATOM      4  O   UNL     1      62.412  39.030  57.206  0.00  0.00    +0.000 OA
ATOM      5  H   UNL     1      61.877  38.220  57.295  0.00  0.00    +0.000 HD
ENDBRANCH   3   4
TORSDOF 1
ENDMDL
MODEL 4
REMARK VINA RESULT:      -2.6     26.379     27.029
REMARK  Name = CadmiumAcetate.pdbqt.pdb
REMARK  1 active torsions:
REMARK  status: ('A' for Active; 'I' for Inactive)
REMARK    1  A    between atoms: C_3  and  O_4
REMARK                            x       y       z     vdW  Elec       q    Type
REMARK                         _______ _______ _______ _____ _____    ______ ____
ROOT
ATOM      1  O   UNL     1      51.036  48.309  82.371  0.00  0.00    +0.000 OA
ATOM      2  C   UNL     1      49.391  49.914  82.309  0.00  0.00    +0.000 C 
ATOM      3  C   UNL     1      50.099  48.752  81.739  0.00  0.00    +0.000 C 
ENDROOT
BRANCH   3   4
ATOM      4  O   UNL     1      49.638  48.296  80.576  0.00  0.00    +0.000 OA
ATOM      5  H   UNL     1      50.347  48.546  79.954  0.00  0.00    +0.000 HD
ENDBRANCH   3   4
TORSDOF 1
ENDMDL
MODEL 5
REMARK VINA RESULT:      -2.6      6.159      6.535
REMARK  Name = CadmiumAcetate.pdbqt.pdb
REMARK  1 active torsions:
REMARK  status: ('A' for Active; 'I' for Inactive)
REMARK    1  A    between atoms: C_3  and  O_4
REMARK                            x       y       z     vdW  Elec       q    Type
REMARK                         _______ _______ _______ _____ _____    ______ ____
ROOT
ATOM      1  O   UNL     1      45.649  37.203  62.538  0.00  0.00    +0.000 OA
ATOM      2  C   UNL     1      47.720  36.873  61.594  0.00  0.00    +0.000 C 
ATOM      3  C   UNL     1      46.364  37.455  61.590  0.00  0.00    +0.000 C 
ENDROOT
BRANCH   3   4
ATOM      4  O   UNL     1      46.051  38.209  60.538  0.00  0.00    +0.000 OA
ATOM      5  H   UNL     1      46.080  39.111  60.906  0.00  0.00    +0.000 HD
ENDBRANCH   3   4
TORSDOF 1
ENDMDL
MODEL 6
REMARK VINA RESULT:      -2.5     55.823     56.139
REMARK  Name = CadmiumAcetate.pdbqt.pdb
REMARK  1 active torsions:
REMARK  status: ('A' for Active; 'I' for Inactive)
REMARK    1  A    between atoms: C_3  and  O_4
REMARK                            x       y       z     vdW  Elec       q    Type
REMARK                         _______ _______ _______ _____ _____    ______ ____
ROOT
ATOM      1  O   UNL     1      72.623  81.583  85.574  0.00  0.00    +0.000 OA
ATOM      2  C   UNL     1      74.323  80.044  85.734  0.00  0.00    +0.000 C 
ATOM      3  C   UNL     1      72.932  80.477  85.965  0.00  0.00    +0.000 C 
ENDROOT
BRANCH   3   4
ATOM      4  O   UNL     1      72.141  79.603  86.585  0.00  0.00    +0.000 OA
ATOM      5  H   UNL     1      71.292  79.716  86.119  0.00  0.00    +0.000 HD
ENDBRANCH   3   4
TORSDOF 1
ENDMDL
MODEL 7
REMARK VINA RESULT:      -2.4     26.143     26.711
REMARK  Name = CadmiumAcetate.pdbqt.pdb
REMARK  1 active torsions:
REMARK  status: ('A' for Active; 'I' for Inactive)
REMARK    1  A    between atoms: C_3  and  O_4
REMARK                            x       y       z     vdW  Elec       q    Type
REMARK                         _______ _______ _______ _____ _____    ______ ____
ROOT
ATOM      1  O   UNL     1      49.979  48.126  80.914  0.00  0.00    +0.000 OA
ATOM      2  C   UNL     1      51.011  46.433  82.078  0.00  0.00    +0.000 C 
ATOM      3  C   UNL     1      50.440  47.790  81.985  0.00  0.00    +0.000 C 
ENDROOT
BRANCH   3   4
ATOM      4  O   UNL     1      50.485  48.523  83.097  0.00  0.00    +0.000 OA
ATOM      5  H   UNL     1      49.629  48.322  83.519  0.00  0.00    +0.000 HD
ENDBRANCH   3   4
TORSDOF 1
ENDMDL
MODEL 8
REMARK VINA RESULT:      -2.4     54.307     54.955
REMARK  Name = CadmiumAcetate.pdbqt.pdb
REMARK  1 active torsions:
REMARK  status: ('A' for Active; 'I' for Inactive)
REMARK    1  A    between atoms: C_3  and  O_4
REMARK                            x       y       z     vdW  Elec       q    Type
REMARK                         _______ _______ _______ _____ _____    ______ ____
ROOT
ATOM      1  O   UNL     1      75.806  78.713  84.701  0.00  0.00    +0.000 OA
ATOM      2  C   UNL     1      77.987  77.993  84.824  0.00  0.00    +0.000 C 
ATOM      3  C   UNL     1      76.590  77.847  84.372  0.00  0.00    +0.000 C 
ENDROOT
BRANCH   3   4
ATOM      4  O   UNL     1      76.320  76.768  83.639  0.00  0.00    +0.000 OA
ATOM      5  H   UNL     1      75.903  77.149  82.845  0.00  0.00    +0.000 HD
ENDBRANCH   3   4
TORSDOF 1
ENDMDL
MODEL 9
REMARK VINA RESULT:      -2.4     54.044     54.226
REMARK  Name = CadmiumAcetate.pdbqt.pdb
REMARK  1 active torsions:
REMARK  status: ('A' for Active; 'I' for Inactive)
REMARK    1  A    between atoms: C_3  and  O_4
REMARK                            x       y       z     vdW  Elec       q    Type
REMARK                         _______ _______ _______ _____ _____    ______ ____
ROOT
ATOM      1  O   UNL     1      70.365  82.163  81.838  0.00  0.00    +0.000 OA
ATOM      2  C   UNL     1      68.169  81.842  82.438  0.00  0.00    +0.000 C 
ATOM      3  C   UNL     1      69.616  81.625  82.626  0.00  0.00    +0.000 C 
ENDROOT
BRANCH   3   4
ATOM      4  O   UNL     1      69.964  80.852  83.653  0.00  0.00    +0.000 OA
ATOM      5  H   UNL     1      69.107  80.658  84.074  0.00  0.00    +0.000 HD
ENDBRANCH   3   4
TORSDOF 1
ENDMDL
