MODEL 1
REMARK VINA RESULT:      -6.8      0.000      0.000
REMARK  Name = Calcitriol.pdbqt.pdb
REMARK  9 active torsions:
REMARK  status: ('A' for Active; 'I' for Inactive)
REMARK    1  A    between atoms: C_2  and  C_24
REMARK    2  A    between atoms: C_7  and  C_11
REMARK    3  A    between atoms: C_12  and  C_13
REMARK    4  A    between atoms: C_16  and  O_20
REMARK    5  A    between atoms: C_18  and  O_22
REMARK    6  A    between atoms: C_24  and  C_26
REMARK    7  A    between atoms: C_27  and  C_28
REMARK    8  A    between atoms: C_28  and  C_29
REMARK    9  A    between atoms: C_29  and  O_32
REMARK                            x       y       z     vdW  Elec       q    Type
REMARK                         _______ _______ _______ _____ _____    ______ ____
ROOT
ATOM      1  C   UNL     1      59.654  65.980  68.839  0.00  0.00    +0.000 C 
ATOM      2  C   UNL     1      58.764  66.735  69.822  0.00  0.00    +0.000 C 
ATOM      3  C   UNL     1      61.049  66.809  68.901  0.00  0.00    +0.000 C 
ATOM      4  C   UNL     1      59.529  67.738  70.489  0.00  0.00    +0.000 C 
ATOM      5  C   UNL     1      60.933  67.772  69.952  0.00  0.00    +0.000 C 
ATOM      6  C   UNL     1      59.197  66.031  67.441  0.00  0.00    +0.000 C 
ATOM      7  C   UNL     1      61.798  67.114  67.676  0.00  0.00    +0.000 C 
ATOM      8  C   UNL     1      59.963  64.546  69.356  0.00  0.00    +0.000 C 
ATOM      9  C   UNL     1      59.713  66.410  66.064  0.00  0.00    +0.000 C 
ATOM     10  C   UNL     1      61.084  66.915  66.464  0.00  0.00    +0.000 C 
ENDROOT
BRANCH   7  11
ATOM     11  C   UNL     1      62.971  67.664  67.652  0.00  0.00    +0.000 C 
ATOM     12  C   UNL     1      64.366  68.302  67.625  0.00  0.00    +0.000 C 
BRANCH  12  13
ATOM     13  C   UNL     1      65.550  68.834  67.599  0.00  0.00    +0.000 A 
ATOM     14  C   UNL     1      66.698  67.998  67.419  0.00  0.00    +0.000 A 
ATOM     15  C   UNL     1      65.887  70.279  67.799  0.00  0.00    +0.000 A 
ATOM     16  C   UNL     1      68.099  68.259  67.391  0.00  0.00    +0.000 A 
ATOM     17  C   UNL     1      68.272  69.656  67.600  0.00  0.00    +0.000 A 
ATOM     18  C   UNL     1      67.323  70.700  67.800  0.00  0.00    +0.000 A 
ATOM     19  C   UNL     1      64.939  71.218  67.970  0.00  0.00    +0.000 C 
BRANCH  16  20
ATOM     20  O   UNL     1      68.938  67.535  66.594  0.00  0.00    +0.000 OA
ATOM     21  H   UNL     1      68.441  66.980  65.970  0.00  0.00    +0.000 HD
ENDBRANCH  16  20
BRANCH  18  22
ATOM     22  O   UNL     1      67.694  72.012  67.970  0.00  0.00    +0.000 OA
ATOM     23  H   UNL     1      68.181  72.330  67.185  0.00  0.00    +0.000 HD
ENDBRANCH  18  22
ENDBRANCH  12  13
ENDBRANCH   7  11
BRANCH   2  24
ATOM     24  C   UNL     1      57.419  66.386  70.151  0.00  0.00    +0.000 C 
ATOM     25  C   UNL     1      56.690  66.952  71.343  0.00  0.00    +0.000 C 
BRANCH  24  26
ATOM     26  C   UNL     1      56.746  65.332  69.473  0.00  0.00    +0.000 C 
ATOM     27  C   UNL     1      56.019  64.188  68.756  0.00  0.00    +0.000 C 
BRANCH  27  28
ATOM     28  C   UNL     1      55.290  63.037  68.051  0.00  0.00    +0.000 C 
BRANCH  28  29
ATOM     29  C   UNL     1      54.594  61.938  67.382  0.00  0.00    +0.000 C 
ATOM     30  C   UNL     1      53.082  61.949  67.637  0.00  0.00    +0.000 C 
ATOM     31  C   UNL     1      54.888  61.863  65.880  0.00  0.00    +0.000 C 
BRANCH  29  32
ATOM     32  O   UNL     1      55.054  60.715  67.911  0.00  0.00    +0.000 OA
ATOM     33  H   UNL     1      54.756  60.130  67.198  0.00  0.00    +0.000 HD
ENDBRANCH  29  32
ENDBRANCH  28  29
ENDBRANCH  27  28
ENDBRANCH  24  26
ENDBRANCH   2  24
TORSDOF 9
ENDMDL
MODEL 2
REMARK VINA RESULT:      -6.7     19.975     23.520
REMARK  Name = Calcitriol.pdbqt.pdb
REMARK  9 active torsions:
REMARK  status: ('A' for Active; 'I' for Inactive)
REMARK    1  A    between atoms: C_2  and  C_24
REMARK    2  A    between atoms: C_7  and  C_11
REMARK    3  A    between atoms: C_12  and  C_13
REMARK    4  A    between atoms: C_16  and  O_20
REMARK    5  A    between atoms: C_18  and  O_22
REMARK    6  A    between atoms: C_24  and  C_26
REMARK    7  A    between atoms: C_27  and  C_28
REMARK    8  A    between atoms: C_28  and  C_29
REMARK    9  A    between atoms: C_29  and  O_32
REMARK                            x       y       z     vdW  Elec       q    Type
REMARK                         _______ _______ _______ _____ _____    ______ ____
ROOT
ATOM      1  C   UNL     1      63.776  47.028  54.074  0.00  0.00    +0.000 C 
ATOM      2  C   UNL     1      64.833  45.983  54.416  0.00  0.00    +0.000 C 
ATOM      3  C   UNL     1      63.994  48.155  55.223  0.00  0.00    +0.000 C 
ATOM      4  C   UNL     1      65.657  46.463  55.477  0.00  0.00    +0.000 C 
ATOM      5  C   UNL     1      65.169  47.802  55.957  0.00  0.00    +0.000 C 
ATOM      6  C   UNL     1      62.388  46.557  54.206  0.00  0.00    +0.000 C 
ATOM      7  C   UNL     1      62.846  48.782  55.890  0.00  0.00    +0.000 C 
ATOM      8  C   UNL     1      64.089  47.712  52.713  0.00  0.00    +0.000 C 
ATOM      9  C   UNL     1      61.094  46.938  54.904  0.00  0.00    +0.000 C 
ATOM     10  C   UNL     1      61.600  48.132  55.688  0.00  0.00    +0.000 C 
ENDROOT
BRANCH   7  11
ATOM     11  C   UNL     1      62.934  49.768  56.727  0.00  0.00    +0.000 C 
ATOM     12  C   UNL     1      63.025  50.939  57.712  0.00  0.00    +0.000 C 
BRANCH  12  13
ATOM     13  C   UNL     1      63.092  51.932  58.547  0.00  0.00    +0.000 A 
ATOM     14  C   UNL     1      61.902  52.648  58.893  0.00  0.00    +0.000 A 
ATOM     15  C   UNL     1      64.330  52.485  59.182  0.00  0.00    +0.000 A 
ATOM     16  C   UNL     1      61.653  53.782  59.720  0.00  0.00    +0.000 A 
ATOM     17  C   UNL     1      62.906  54.204  60.247  0.00  0.00    +0.000 A 
ATOM     18  C   UNL     1      64.220  53.682  60.073  0.00  0.00    +0.000 A 
ATOM     19  C   UNL     1      65.542  51.935  58.985  0.00  0.00    +0.000 C 
BRANCH  16  20
ATOM     20  O   UNL     1      60.492  53.901  60.427  0.00  0.00    +0.000 OA
ATOM     21  H   UNL     1      60.605  53.598  61.344  0.00  0.00    +0.000 HD
ENDBRANCH  16  20
BRANCH  18  22
ATOM     22  O   UNL     1      65.319  54.230  60.690  0.00  0.00    +0.000 OA
ATOM     23  H   UNL     1      65.770  53.557  61.237  0.00  0.00    +0.000 HD
ENDBRANCH  18  22
ENDBRANCH  12  13
ENDBRANCH   7  11
BRANCH   2  24
ATOM     24  C   UNL     1      65.072  44.781  53.681  0.00  0.00    +0.000 C 
ATOM     25  C   UNL     1      65.902  44.739  52.424  0.00  0.00    +0.000 C 
BRANCH  24  26
ATOM     26  C   UNL     1      64.380  43.579  53.992  0.00  0.00    +0.000 C 
ATOM     27  C   UNL     1      63.619  42.289  54.322  0.00  0.00    +0.000 C 
BRANCH  27  28
ATOM     28  C   UNL     1      62.847  41.004  54.648  0.00  0.00    +0.000 C 
BRANCH  28  29
ATOM     29  C   UNL     1      62.110  39.778  54.954  0.00  0.00    +0.000 C 
ATOM     30  C   UNL     1      62.857  38.511  54.525  0.00  0.00    +0.000 C 
ATOM     31  C   UNL     1      61.683  39.682  56.423  0.00  0.00    +0.000 C 
BRANCH  29  32
ATOM     32  O   UNL     1      60.906  39.771  54.219  0.00  0.00    +0.000 OA
ATOM     33  H   UNL     1      60.975  38.881  53.842  0.00  0.00    +0.000 HD
ENDBRANCH  29  32
ENDBRANCH  28  29
ENDBRANCH  27  28
ENDBRANCH  24  26
ENDBRANCH   2  24
TORSDOF 9
ENDMDL
MODEL 3
REMARK VINA RESULT:      -6.7     15.689     18.831
REMARK  Name = Calcitriol.pdbqt.pdb
REMARK  9 active torsions:
REMARK  status: ('A' for Active; 'I' for Inactive)
REMARK    1  A    between atoms: C_2  and  C_24
REMARK    2  A    between atoms: C_7  and  C_11
REMARK    3  A    between atoms: C_12  and  C_13
REMARK    4  A    between atoms: C_16  and  O_20
REMARK    5  A    between atoms: C_18  and  O_22
REMARK    6  A    between atoms: C_24  and  C_26
REMARK    7  A    between atoms: C_27  and  C_28
REMARK    8  A    between atoms: C_28  and  C_29
REMARK    9  A    between atoms: C_29  and  O_32
REMARK                            x       y       z     vdW  Elec       q    Type
REMARK                         _______ _______ _______ _____ _____    ______ ____
ROOT
ATOM      1  C   UNL     1      74.001  55.611  73.416  0.00  0.00    +0.000 C 
ATOM      2  C   UNL     1      74.368  54.272  74.049  0.00  0.00    +0.000 C 
ATOM      3  C   UNL     1      73.301  55.173  72.018  0.00  0.00    +0.000 C 
ATOM      4  C   UNL     1      73.837  53.208  73.262  0.00  0.00    +0.000 C 
ATOM      5  C   UNL     1      73.160  53.750  72.033  0.00  0.00    +0.000 C 
ATOM      6  C   UNL     1      75.155  56.453  73.061  0.00  0.00    +0.000 C 
ATOM      7  C   UNL     1      73.597  55.889  70.771  0.00  0.00    +0.000 C 
ATOM      8  C   UNL     1      72.912  56.343  74.251  0.00  0.00    +0.000 C 
ATOM      9  C   UNL     1      75.734  57.186  71.864  0.00  0.00    +0.000 C 
ATOM     10  C   UNL     1      74.726  56.749  70.820  0.00  0.00    +0.000 C 
ENDROOT
BRANCH   7  11
ATOM     11  C   UNL     1      72.993  55.678  69.644  0.00  0.00    +0.000 C 
ATOM     12  C   UNL     1      72.267  55.436  68.315  0.00  0.00    +0.000 C 
BRANCH  12  13
ATOM     13  C   UNL     1      71.648  55.238  67.191  0.00  0.00    +0.000 A 
ATOM     14  C   UNL     1      71.792  53.985  66.513  0.00  0.00    +0.000 A 
ATOM     15  C   UNL     1      70.802  56.226  66.449  0.00  0.00    +0.000 A 
ATOM     16  C   UNL     1      71.296  53.484  65.275  0.00  0.00    +0.000 A 
ATOM     17  C   UNL     1      70.523  54.521  64.679  0.00  0.00    +0.000 A 
ATOM     18  C   UNL     1      70.218  55.839  65.127  0.00  0.00    +0.000 A 
ATOM     19  C   UNL     1      70.541  57.453  66.936  0.00  0.00    +0.000 C 
BRANCH  16  20
ATOM     20  O   UNL     1      70.981  52.166  65.119  0.00  0.00    +0.000 OA
ATOM     21  H   UNL     1      70.425  52.026  64.335  0.00  0.00    +0.000 HD
ENDBRANCH  16  20
BRANCH  18  22
ATOM     22  O   UNL     1      69.427  56.700  64.403  0.00  0.00    +0.000 OA
ATOM     23  H   UNL     1      68.697  57.034  64.958  0.00  0.00    +0.000 HD
ENDBRANCH  18  22
ENDBRANCH  12  13
ENDBRANCH   7  11
BRANCH   2  24
ATOM     24  C   UNL     1      74.998  54.107  75.321  0.00  0.00    +0.000 C 
ATOM     25  C   UNL     1      76.376  53.520  75.485  0.00  0.00    +0.000 C 
BRANCH  24  26
ATOM     26  C   UNL     1      74.279  54.318  76.529  0.00  0.00    +0.000 C 
ATOM     27  C   UNL     1      73.509  54.561  77.833  0.00  0.00    +0.000 C 
BRANCH  27  28
ATOM     28  C   UNL     1      72.742  54.817  79.137  0.00  0.00    +0.000 C 
BRANCH  28  29
ATOM     29  C   UNL     1      72.014  55.058  80.382  0.00  0.00    +0.000 C 
ATOM     30  C   UNL     1      71.908  56.547  80.732  0.00  0.00    +0.000 C 
ATOM     31  C   UNL     1      70.631  54.397  80.409  0.00  0.00    +0.000 C 
BRANCH  29  32
ATOM     32  O   UNL     1      72.724  54.471  81.450  0.00  0.00    +0.000 OA
ATOM     33  H   UNL     1      72.038  54.537  82.131  0.00  0.00    +0.000 HD
ENDBRANCH  29  32
ENDBRANCH  28  29
ENDBRANCH  27  28
ENDBRANCH  24  26
ENDBRANCH   2  24
TORSDOF 9
ENDMDL
MODEL 4
REMARK VINA RESULT:      -6.4     15.477     19.301
REMARK  Name = Calcitriol.pdbqt.pdb
REMARK  9 active torsions:
REMARK  status: ('A' for Active; 'I' for Inactive)
REMARK    1  A    between atoms: C_2  and  C_24
REMARK    2  A    between atoms: C_7  and  C_11
REMARK    3  A    between atoms: C_12  and  C_13
REMARK    4  A    between atoms: C_16  and  O_20
REMARK    5  A    between atoms: C_18  and  O_22
REMARK    6  A    between atoms: C_24  and  C_26
REMARK    7  A    between atoms: C_27  and  C_28
REMARK    8  A    between atoms: C_28  and  C_29
REMARK    9  A    between atoms: C_29  and  O_32
REMARK                            x       y       z     vdW  Elec       q    Type
REMARK                         _______ _______ _______ _____ _____    ______ ____
ROOT
ATOM      1  C   UNL     1      63.862  54.126  59.361  0.00  0.00    +0.000 C 
ATOM      2  C   UNL     1      62.691  54.300  60.323  0.00  0.00    +0.000 C 
ATOM      3  C   UNL     1      63.466  52.778  58.546  0.00  0.00    +0.000 C 
ATOM      4  C   UNL     1      61.684  53.333  60.033  0.00  0.00    +0.000 C 
ATOM      5  C   UNL     1      62.137  52.416  58.930  0.00  0.00    +0.000 C 
ATOM      6  C   UNL     1      65.153  53.857  60.015  0.00  0.00    +0.000 C 
ATOM      7  C   UNL     1      64.474  51.752  58.253  0.00  0.00    +0.000 C 
ATOM      8  C   UNL     1      63.905  55.281  58.320  0.00  0.00    +0.000 C 
ATOM      9  C   UNL     1      66.280  52.840  59.984  0.00  0.00    +0.000 C 
ATOM     10  C   UNL     1      65.690  51.874  58.977  0.00  0.00    +0.000 C 
ENDROOT
BRANCH   7  11
ATOM     11  C   UNL     1      64.265  50.711  57.510  0.00  0.00    +0.000 C 
ATOM     12  C   UNL     1      64.018  49.471  56.642  0.00  0.00    +0.000 C 
BRANCH  12  13
ATOM     13  C   UNL     1      63.804  48.417  55.915  0.00  0.00    +0.000 A 
ATOM     14  C   UNL     1      62.481  48.138  55.443  0.00  0.00    +0.000 A 
ATOM     15  C   UNL     1      64.808  47.373  55.535  0.00  0.00    +0.000 A 
ATOM     16  C   UNL     1      61.922  47.069  54.684  0.00  0.00    +0.000 A 
ATOM     17  C   UNL     1      62.977  46.155  54.402  0.00  0.00    +0.000 A 
ATOM     18  C   UNL     1      64.360  46.186  54.740  0.00  0.00    +0.000 A 
ATOM     19  C   UNL     1      66.106  47.470  55.877  0.00  0.00    +0.000 C 
BRANCH  16  20
ATOM     20  O   UNL     1      60.895  47.282  53.812  0.00  0.00    +0.000 OA
ATOM     21  H   UNL     1      61.213  47.666  52.978  0.00  0.00    +0.000 HD
ENDBRANCH  16  20
BRANCH  18  22
ATOM     22  O   UNL     1      65.237  45.200  54.355  0.00  0.00    +0.000 OA
ATOM     23  H   UNL     1      65.440  44.615  55.110  0.00  0.00    +0.000 HD
ENDBRANCH  18  22
ENDBRANCH  12  13
ENDBRANCH   7  11
BRANCH   2  24
ATOM     24  C   UNL     1      62.546  55.369  61.259  0.00  0.00    +0.000 C 
ATOM     25  C   UNL     1      63.001  55.274  62.693  0.00  0.00    +0.000 C 
BRANCH  24  26
ATOM     26  C   UNL     1      61.788  56.528  60.939  0.00  0.00    +0.000 C 
ATOM     27  C   UNL     1      60.982  57.784  60.582  0.00  0.00    +0.000 C 
BRANCH  27  28
ATOM     28  C   UNL     1      60.187  59.044  60.217  0.00  0.00    +0.000 C 
BRANCH  28  29
ATOM     29  C   UNL     1      59.425  60.242  59.867  0.00  0.00    +0.000 C 
ATOM     30  C   UNL     1      60.321  61.445  59.547  0.00  0.00    +0.000 C 
ATOM     31  C   UNL     1      58.414  60.007  58.740  0.00  0.00    +0.000 C 
BRANCH  29  32
ATOM     32  O   UNL     1      58.653  60.636  60.980  0.00  0.00    +0.000 OA
ATOM     33  H   UNL     1      58.651  61.592  60.821  0.00  0.00    +0.000 HD
ENDBRANCH  29  32
ENDBRANCH  28  29
ENDBRANCH  27  28
ENDBRANCH  24  26
ENDBRANCH   2  24
TORSDOF 9
ENDMDL
MODEL 5
REMARK VINA RESULT:      -6.3     15.757     17.553
REMARK  Name = Calcitriol.pdbqt.pdb
REMARK  9 active torsions:
REMARK  status: ('A' for Active; 'I' for Inactive)
REMARK    1  A    between atoms: C_2  and  C_24
REMARK    2  A    between atoms: C_7  and  C_11
REMARK    3  A    between atoms: C_12  and  C_13
REMARK    4  A    between atoms: C_16  and  O_20
REMARK    5  A    between atoms: C_18  and  O_22
REMARK    6  A    between atoms: C_24  and  C_26
REMARK    7  A    between atoms: C_27  and  C_28
REMARK    8  A    between atoms: C_28  and  C_29
REMARK    9  A    between atoms: C_29  and  O_32
REMARK                            x       y       z     vdW  Elec       q    Type
REMARK                         _______ _______ _______ _____ _____    ______ ____
ROOT
ATOM      1  C   UNL     1      54.859  61.034  83.810  0.00  0.00    +0.000 C 
ATOM      2  C   UNL     1      55.190  60.660  82.368  0.00  0.00    +0.000 C 
ATOM      3  C   UNL     1      55.304  62.594  83.892  0.00  0.00    +0.000 C 
ATOM      4  C   UNL     1      55.602  61.823  81.653  0.00  0.00    +0.000 C 
ATOM      5  C   UNL     1      55.648  63.015  82.569  0.00  0.00    +0.000 C 
ATOM      6  C   UNL     1      55.653  60.318  84.822  0.00  0.00    +0.000 C 
ATOM      7  C   UNL     1      56.026  63.111  85.060  0.00  0.00    +0.000 C 
ATOM      8  C   UNL     1      53.325  60.994  84.058  0.00  0.00    +0.000 C 
ATOM      9  C   UNL     1      56.551  60.608  86.012  0.00  0.00    +0.000 C 
ATOM     10  C   UNL     1      56.558  62.121  85.929  0.00  0.00    +0.000 C 
ENDROOT
BRANCH   7  11
ATOM     11  C   UNL     1      56.310  64.361  85.253  0.00  0.00    +0.000 C 
ATOM     12  C   UNL     1      56.659  65.836  85.482  0.00  0.00    +0.000 C 
BRANCH  12  13
ATOM     13  C   UNL     1      56.964  67.084  85.673  0.00  0.00    +0.000 A 
ATOM     14  C   UNL     1      57.693  67.798  84.668  0.00  0.00    +0.000 A 
ATOM     15  C   UNL     1      56.684  67.896  86.900  0.00  0.00    +0.000 A 
ATOM     16  C   UNL     1      58.206  69.124  84.594  0.00  0.00    +0.000 A 
ATOM     17  C   UNL     1      57.877  69.773  85.818  0.00  0.00    +0.000 A 
ATOM     18  C   UNL     1      57.171  69.309  86.965  0.00  0.00    +0.000 A 
ATOM     19  C   UNL     1      55.998  67.399  87.945  0.00  0.00    +0.000 C 
BRANCH  16  20
ATOM     20  O   UNL     1      58.260  69.798  83.409  0.00  0.00    +0.000 OA
ATOM     21  H   UNL     1      59.169  70.073  83.201  0.00  0.00    +0.000 HD
ENDBRANCH  16  20
BRANCH  18  22
ATOM     22  O   UNL     1      56.937  70.106  88.060  0.00  0.00    +0.000 OA
ATOM     23  H   UNL     1      56.159  70.676  87.904  0.00  0.00    +0.000 HD
ENDBRANCH  18  22
ENDBRANCH  12  13
ENDBRANCH   7  11
BRANCH   2  24
ATOM     24  C   UNL     1      54.962  59.379  81.777  0.00  0.00    +0.000 C 
ATOM     25  C   UNL     1      56.021  58.310  81.698  0.00  0.00    +0.000 C 
BRANCH  24  26
ATOM     26  C   UNL     1      53.767  59.105  81.056  0.00  0.00    +0.000 C 
ATOM     27  C   UNL     1      52.486  58.797  80.270  0.00  0.00    +0.000 C 
BRANCH  27  28
ATOM     28  C   UNL     1      51.213  58.481  79.477  0.00  0.00    +0.000 C 
BRANCH  28  29
ATOM     29  C   UNL     1      49.999  58.175  78.720  0.00  0.00    +0.000 C 
ATOM     30  C   UNL     1      49.451  59.387  77.958  0.00  0.00    +0.000 C 
ATOM     31  C   UNL     1      50.161  56.975  77.779  0.00  0.00    +0.000 C 
BRANCH  29  32
ATOM     32  O   UNL     1      48.978  57.804  79.619  0.00  0.00    +0.000 OA
ATOM     33  H   UNL     1      48.391  57.356  78.992  0.00  0.00    +0.000 HD
ENDBRANCH  29  32
ENDBRANCH  28  29
ENDBRANCH  27  28
ENDBRANCH  24  26
ENDBRANCH   2  24
TORSDOF 9
ENDMDL
MODEL 6
REMARK VINA RESULT:      -6.3     16.973     21.546
REMARK  Name = Calcitriol.pdbqt.pdb
REMARK  9 active torsions:
REMARK  status: ('A' for Active; 'I' for Inactive)
REMARK    1  A    between atoms: C_2  and  C_24
REMARK    2  A    between atoms: C_7  and  C_11
REMARK    3  A    between atoms: C_12  and  C_13
REMARK    4  A    between atoms: C_16  and  O_20
REMARK    5  A    between atoms: C_18  and  O_22
REMARK    6  A    between atoms: C_24  and  C_26
REMARK    7  A    between atoms: C_27  and  C_28
REMARK    8  A    between atoms: C_28  and  C_29
REMARK    9  A    between atoms: C_29  and  O_32
REMARK                            x       y       z     vdW  Elec       q    Type
REMARK                         _______ _______ _______ _____ _____    ______ ____
ROOT
ATOM      1  C   UNL     1      62.751  52.280  58.708  0.00  0.00    +0.000 C 
ATOM      2  C   UNL     1      63.594  51.035  58.965  0.00  0.00    +0.000 C 
ATOM      3  C   UNL     1      61.231  51.719  58.825  0.00  0.00    +0.000 C 
ATOM      4  C   UNL     1      62.747  49.950  59.339  0.00  0.00    +0.000 C 
ATOM      5  C   UNL     1      61.303  50.366  59.283  0.00  0.00    +0.000 C 
ATOM      6  C   UNL     1      62.888  52.839  57.353  0.00  0.00    +0.000 C 
ATOM      7  C   UNL     1      60.198  52.139  57.870  0.00  0.00    +0.000 C 
ATOM      8  C   UNL     1      62.932  53.321  59.848  0.00  0.00    +0.000 C 
ATOM      9  C   UNL     1      62.026  53.236  56.168  0.00  0.00    +0.000 C 
ATOM     10  C   UNL     1      60.680  52.793  56.705  0.00  0.00    +0.000 C 
ENDROOT
BRANCH   7  11
ATOM     11  C   UNL     1      58.942  51.832  57.967  0.00  0.00    +0.000 C 
ATOM     12  C   UNL     1      57.458  51.468  58.095  0.00  0.00    +0.000 C 
BRANCH  12  13
ATOM     13  C   UNL     1      56.202  51.162  58.213  0.00  0.00    +0.000 A 
ATOM     14  C   UNL     1      55.742  49.876  57.782  0.00  0.00    +0.000 A 
ATOM     15  C   UNL     1      55.108  52.052  58.717  0.00  0.00    +0.000 A 
ATOM     16  C   UNL     1      54.454  49.268  57.734  0.00  0.00    +0.000 A 
ATOM     17  C   UNL     1      53.519  50.220  58.231  0.00  0.00    +0.000 A 
ATOM     18  C   UNL     1      53.699  51.545  58.719  0.00  0.00    +0.000 A 
ATOM     19  C   UNL     1      55.349  53.293  59.178  0.00  0.00    +0.000 C 
BRANCH  16  20
ATOM     20  O   UNL     1      54.297  47.927  57.931  0.00  0.00    +0.000 OA
ATOM     21  H   UNL     1      54.492  47.680  58.851  0.00  0.00    +0.000 HD
ENDBRANCH  16  20
BRANCH  18  22
ATOM     22  O   UNL     1      52.654  52.312  59.177  0.00  0.00    +0.000 OA
ATOM     23  H   UNL     1      52.239  52.794  58.436  0.00  0.00    +0.000 HD
ENDBRANCH  18  22
ENDBRANCH  12  13
ENDBRANCH   7  11
BRANCH   2  24
ATOM     24  C   UNL     1      65.022  50.999  58.994  0.00  0.00    +0.000 C 
ATOM     25  C   UNL     1      65.861  52.116  59.559  0.00  0.00    +0.000 C 
BRANCH  24  26
ATOM     26  C   UNL     1      65.745  49.979  58.317  0.00  0.00    +0.000 C 
ATOM     27  C   UNL     1      66.540  48.887  57.589  0.00  0.00    +0.000 C 
BRANCH  27  28
ATOM     28  C   UNL     1      67.345  47.803  56.863  0.00  0.00    +0.000 C 
BRANCH  28  29
ATOM     29  C   UNL     1      68.111  46.766  56.171  0.00  0.00    +0.000 C 
ATOM     30  C   UNL     1      67.255  45.556  55.778  0.00  0.00    +0.000 C 
ATOM     31  C   UNL     1      68.886  47.295  54.959  0.00  0.00    +0.000 C 
BRANCH  29  32
ATOM     32  O   UNL     1      69.094  46.261  57.047  0.00  0.00    +0.000 OA
ATOM     33  H   UNL     1      69.484  45.599  56.457  0.00  0.00    +0.000 HD
ENDBRANCH  29  32
ENDBRANCH  28  29
ENDBRANCH  27  28
ENDBRANCH  24  26
ENDBRANCH   2  24
TORSDOF 9
ENDMDL
MODEL 7
REMARK VINA RESULT:      -6.2     26.889     31.080
REMARK  Name = Calcitriol.pdbqt.pdb
REMARK  9 active torsions:
REMARK  status: ('A' for Active; 'I' for Inactive)
REMARK    1  A    between atoms: C_2  and  C_24
REMARK    2  A    between atoms: C_7  and  C_11
REMARK    3  A    between atoms: C_12  and  C_13
REMARK    4  A    between atoms: C_16  and  O_20
REMARK    5  A    between atoms: C_18  and  O_22
REMARK    6  A    between atoms: C_24  and  C_26
REMARK    7  A    between atoms: C_27  and  C_28
REMARK    8  A    between atoms: C_28  and  C_29
REMARK    9  A    between atoms: C_29  and  O_32
REMARK                            x       y       z     vdW  Elec       q    Type
REMARK                         _______ _______ _______ _____ _____    ______ ____
ROOT
ATOM      1  C   UNL     1      54.149  36.280  65.223  0.00  0.00    +0.000 C 
ATOM      2  C   UNL     1      54.061  35.901  63.747  0.00  0.00    +0.000 C 
ATOM      3  C   UNL     1      55.664  36.846  65.363  0.00  0.00    +0.000 C 
ATOM      4  C   UNL     1      55.247  36.318  63.073  0.00  0.00    +0.000 C 
ATOM      5  C   UNL     1      56.221  36.922  64.047  0.00  0.00    +0.000 C 
ATOM      6  C   UNL     1      54.039  35.142  66.150  0.00  0.00    +0.000 C 
ATOM      7  C   UNL     1      56.499  36.488  66.516  0.00  0.00    +0.000 C 
ATOM      8  C   UNL     1      53.197  37.464  65.552  0.00  0.00    +0.000 C 
ATOM      9  C   UNL     1      54.797  34.507  67.303  0.00  0.00    +0.000 C 
ATOM     10  C   UNL     1      56.015  35.408  67.301  0.00  0.00    +0.000 C 
ENDROOT
BRANCH   7  11
ATOM     11  C   UNL     1      57.668  36.992  66.759  0.00  0.00    +0.000 C 
ATOM     12  C   UNL     1      59.051  37.594  67.033  0.00  0.00    +0.000 C 
BRANCH  12  13
ATOM     13  C   UNL     1      60.221  38.110  67.260  0.00  0.00    +0.000 A 
ATOM     14  C   UNL     1      61.399  37.343  66.986  0.00  0.00    +0.000 A 
ATOM     15  C   UNL     1      60.506  39.455  67.854  0.00  0.00    +0.000 A 
ATOM     16  C   UNL     1      62.790  37.598  67.163  0.00  0.00    +0.000 A 
ATOM     17  C   UNL     1      62.913  38.895  67.737  0.00  0.00    +0.000 A 
ATOM     18  C   UNL     1      61.927  39.856  68.102  0.00  0.00    +0.000 A 
ATOM     19  C   UNL     1      59.526  40.322  68.165  0.00  0.00    +0.000 C 
BRANCH  16  20
ATOM     20  O   UNL     1      63.717  37.099  66.294  0.00  0.00    +0.000 OA
ATOM     21  H   UNL     1      64.595  37.047  66.707  0.00  0.00    +0.000 HD
ENDBRANCH  16  20
BRANCH  18  22
ATOM     22  O   UNL     1      62.251  41.079  68.637  0.00  0.00    +0.000 OA
ATOM     23  H   UNL     1      61.537  41.391  69.226  0.00  0.00    +0.000 HD
ENDBRANCH  18  22
ENDBRANCH  12  13
ENDBRANCH   7  11
BRANCH   2  24
ATOM     24  C   UNL     1      52.904  35.366  63.102  0.00  0.00    +0.000 C 
ATOM     25  C   UNL     1      51.677  34.919  63.853  0.00  0.00    +0.000 C 
BRANCH  24  26
ATOM     26  C   UNL     1      52.917  35.048  61.716  0.00  0.00    +0.000 C 
ATOM     27  C   UNL     1      52.918  34.696  60.223  0.00  0.00    +0.000 C 
BRANCH  27  28
ATOM     28  C   UNL     1      52.908  34.334  58.732  0.00  0.00    +0.000 C 
BRANCH  28  29
ATOM     29  C   UNL     1      52.901  33.993  57.310  0.00  0.00    +0.000 C 
ATOM     30  C   UNL     1      53.320  32.543  57.043  0.00  0.00    +0.000 C 
ATOM     31  C   UNL     1      51.567  34.306  56.622  0.00  0.00    +0.000 C 
BRANCH  29  32
ATOM     32  O   UNL     1      53.856  34.788  56.643  0.00  0.00    +0.000 OA
ATOM     33  H   UNL     1      53.344  34.986  55.844  0.00  0.00    +0.000 HD
ENDBRANCH  29  32
ENDBRANCH  28  29
ENDBRANCH  27  28
ENDBRANCH  24  26
ENDBRANCH   2  24
TORSDOF 9
ENDMDL
MODEL 8
REMARK VINA RESULT:      -6.2     24.402     26.400
REMARK  Name = Calcitriol.pdbqt.pdb
REMARK  9 active torsions:
REMARK  status: ('A' for Active; 'I' for Inactive)
REMARK    1  A    between atoms: C_2  and  C_24
REMARK    2  A    between atoms: C_7  and  C_11
REMARK    3  A    between atoms: C_12  and  C_13
REMARK    4  A    between atoms: C_16  and  O_20
REMARK    5  A    between atoms: C_18  and  O_22
REMARK    6  A    between atoms: C_24  and  C_26
REMARK    7  A    between atoms: C_27  and  C_28
REMARK    8  A    between atoms: C_28  and  C_29
REMARK    9  A    between atoms: C_29  and  O_32
REMARK                            x       y       z     vdW  Elec       q    Type
REMARK                         _______ _______ _______ _____ _____    ______ ____
ROOT
ATOM      1  C   UNL     1      65.205  42.081  80.851  0.00  0.00    +0.000 C 
ATOM      2  C   UNL     1      64.562  41.028  79.952  0.00  0.00    +0.000 C 
ATOM      3  C   UNL     1      65.922  43.078  79.787  0.00  0.00    +0.000 C 
ATOM      4  C   UNL     1      64.715  41.406  78.585  0.00  0.00    +0.000 C 
ATOM      5  C   UNL     1      65.520  42.672  78.476  0.00  0.00    +0.000 C 
ATOM      6  C   UNL     1      66.270  41.567  81.727  0.00  0.00    +0.000 C 
ATOM      7  C   UNL     1      67.271  43.600  80.036  0.00  0.00    +0.000 C 
ATOM      8  C   UNL     1      64.122  42.919  81.588  0.00  0.00    +0.000 C 
ATOM      9  C   UNL     1      67.724  41.838  82.069  0.00  0.00    +0.000 C 
ATOM     10  C   UNL     1      67.990  42.948  81.073  0.00  0.00    +0.000 C 
ENDROOT
BRANCH   7  11
ATOM     11  C   UNL     1      67.860  44.488  79.299  0.00  0.00    +0.000 C 
ATOM     12  C   UNL     1      68.545  45.543  78.422  0.00  0.00    +0.000 C 
BRANCH  12  13
ATOM     13  C   UNL     1      69.117  46.441  77.679  0.00  0.00    +0.000 A 
ATOM     14  C   UNL     1      70.388  46.162  77.081  0.00  0.00    +0.000 A 
ATOM     15  C   UNL     1      68.615  47.824  77.399  0.00  0.00    +0.000 A 
ATOM     16  C   UNL     1      71.275  46.930  76.273  0.00  0.00    +0.000 A 
ATOM     17  C   UNL     1      70.681  48.212  76.096  0.00  0.00    +0.000 A 
ATOM     18  C   UNL     1      69.448  48.748  76.566  0.00  0.00    +0.000 A 
ATOM     19  C   UNL     1      67.432  48.264  77.865  0.00  0.00    +0.000 C 
BRANCH  16  20
ATOM     20  O   UNL     1      72.038  46.345  75.305  0.00  0.00    +0.000 OA
ATOM     21  H   UNL     1      72.776  46.919  75.042  0.00  0.00    +0.000 HD
ENDBRANCH  16  20
BRANCH  18  22
ATOM     22  O   UNL     1      69.037  50.025  76.269  0.00  0.00    +0.000 OA
ATOM     23  H   UNL     1      68.360  50.007  75.565  0.00  0.00    +0.000 HD
ENDBRANCH  18  22
ENDBRANCH  12  13
ENDBRANCH   7  11
BRANCH   2  24
ATOM     24  C   UNL     1      63.781  39.922  80.408  0.00  0.00    +0.000 C 
ATOM     25  C   UNL     1      64.362  38.554  80.657  0.00  0.00    +0.000 C 
BRANCH  24  26
ATOM     26  C   UNL     1      62.363  40.002  80.475  0.00  0.00    +0.000 C 
ATOM     27  C   UNL     1      60.834  40.080  80.561  0.00  0.00    +0.000 C 
BRANCH  27  28
ATOM     28  C   UNL     1      59.305  40.150  80.659  0.00  0.00    +0.000 C 
BRANCH  28  29
ATOM     29  C   UNL     1      57.847  40.222  80.752  0.00  0.00    +0.000 C 
ATOM     30  C   UNL     1      57.166  38.877  80.470  0.00  0.00    +0.000 C 
ATOM     31  C   UNL     1      57.355  40.808  82.080  0.00  0.00    +0.000 C 
BRANCH  29  32
ATOM     32  O   UNL     1      57.367  41.100  79.759  0.00  0.00    +0.000 OA
ATOM     33  H   UNL     1      57.189  40.448  79.065  0.00  0.00    +0.000 HD
ENDBRANCH  29  32
ENDBRANCH  28  29
ENDBRANCH  27  28
ENDBRANCH  24  26
ENDBRANCH   2  24
TORSDOF 9
ENDMDL
MODEL 9
REMARK VINA RESULT:      -6.2     19.302     22.268
REMARK  Name = Calcitriol.pdbqt.pdb
REMARK  9 active torsions:
REMARK  status: ('A' for Active; 'I' for Inactive)
REMARK    1  A    between atoms: C_2  and  C_24
REMARK    2  A    between atoms: C_7  and  C_11
REMARK    3  A    between atoms: C_12  and  C_13
REMARK    4  A    between atoms: C_16  and  O_20
REMARK    5  A    between atoms: C_18  and  O_22
REMARK    6  A    between atoms: C_24  and  C_26
REMARK    7  A    between atoms: C_27  and  C_28
REMARK    8  A    between atoms: C_28  and  C_29
REMARK    9  A    between atoms: C_29  and  O_32
REMARK                            x       y       z     vdW  Elec       q    Type
REMARK                         _______ _______ _______ _____ _____    ______ ____
ROOT
ATOM      1  C   UNL     1      73.801  50.194  71.364  0.00  0.00    +0.000 C 
ATOM      2  C   UNL     1      73.180  51.415  70.692  0.00  0.00    +0.000 C 
ATOM      3  C   UNL     1      72.656  49.741  72.424  0.00  0.00    +0.000 C 
ATOM      4  C   UNL     1      71.835  51.577  71.139  0.00  0.00    +0.000 C 
ATOM      5  C   UNL     1      71.497  50.542  72.177  0.00  0.00    +0.000 C 
ATOM      6  C   UNL     1      75.011  50.481  72.151  0.00  0.00    +0.000 C 
ATOM      7  C   UNL     1      73.013  49.329  73.787  0.00  0.00    +0.000 C 
ATOM      8  C   UNL     1      73.961  49.023  70.353  0.00  0.00    +0.000 C 
ATOM      9  C   UNL     1      75.559  50.280  73.552  0.00  0.00    +0.000 C 
ATOM     10  C   UNL     1      74.339  49.645  74.187  0.00  0.00    +0.000 C 
ENDROOT
BRANCH   7  11
ATOM     11  C   UNL     1      72.175  48.844  74.649  0.00  0.00    +0.000 C 
ATOM     12  C   UNL     1      71.174  48.280  75.664  0.00  0.00    +0.000 C 
BRANCH  12  13
ATOM     13  C   UNL     1      70.320  47.806  76.519  0.00  0.00    +0.000 A 
ATOM     14  C   UNL     1      70.566  46.538  77.138  0.00  0.00    +0.000 A 
ATOM     15  C   UNL     1      69.015  48.423  76.917  0.00  0.00    +0.000 A 
ATOM     16  C   UNL     1      69.824  45.742  78.057  0.00  0.00    +0.000 A 
ATOM     17  C   UNL     1      68.615  46.439  78.339  0.00  0.00    +0.000 A 
ATOM     18  C   UNL     1      68.125  47.693  77.874  0.00  0.00    +0.000 A 
ATOM     19  C   UNL     1      68.617  49.620  76.449  0.00  0.00    +0.000 C 
BRANCH  16  20
ATOM     20  O   UNL     1      70.450  44.969  78.992  0.00  0.00    +0.000 OA
ATOM     21  H   UNL     1      70.721  44.114  78.618  0.00  0.00    +0.000 HD
ENDBRANCH  16  20
BRANCH  18  22
ATOM     22  O   UNL     1      66.920  48.213  78.283  0.00  0.00    +0.000 OA
ATOM     23  H   UNL     1      66.784  48.042  79.235  0.00  0.00    +0.000 HD
ENDBRANCH  18  22
ENDBRANCH  12  13
ENDBRANCH   7  11
BRANCH   2  24
ATOM     24  C   UNL     1      73.789  52.180  69.650  0.00  0.00    +0.000 C 
ATOM     25  C   UNL     1      75.000  53.050  69.870  0.00  0.00    +0.000 C 
BRANCH  24  26
ATOM     26  C   UNL     1      73.169  52.311  68.377  0.00  0.00    +0.000 C 
ATOM     27  C   UNL     1      72.498  52.468  67.007  0.00  0.00    +0.000 C 
BRANCH  27  28
ATOM     28  C   UNL     1      71.823  52.638  65.640  0.00  0.00    +0.000 C 
BRANCH  28  29
ATOM     29  C   UNL     1      71.179  52.805  64.338  0.00  0.00    +0.000 C 
ATOM     30  C   UNL     1      70.290  54.053  64.268  0.00  0.00    +0.000 C 
ATOM     31  C   UNL     1      72.168  52.780  63.167  0.00  0.00    +0.000 C 
BRANCH  29  32
ATOM     32  O   UNL     1      70.313  51.715  64.112  0.00  0.00    +0.000 OA
ATOM     33  H   UNL     1      69.515  52.079  64.523  0.00  0.00    +0.000 HD
ENDBRANCH  29  32
ENDBRANCH  28  29
ENDBRANCH  27  28
ENDBRANCH  24  26
ENDBRANCH   2  24
TORSDOF 9
ENDMDL
