MODEL 1
REMARK VINA RESULT:      -8.7      0.000      0.000
REMARK  Name = 
REMARK  17 active torsions:
REMARK  status: ('A' for Active; 'I' for Inactive)
REMARK    1  A    between atoms: O_1  and  C_14
REMARK    2  A    between atoms: O_2  and  C_32
REMARK    3  A    between atoms: O_2  and  C_36
REMARK    4  A    between atoms: O_6  and  C_39
REMARK    5  A    between atoms: O_7  and  C_41
REMARK    6  A    between atoms: O_7  and  C_43
REMARK    7  A    between atoms: O_9  and  C_47
REMARK    8  A    between atoms: O_9  and  C_49
REMARK    9  A    between atoms: O_10  and  C_45
REMARK   10  A    between atoms: O_12  and  C_51
REMARK   11  A    between atoms: O_13  and  C_53
REMARK   12  A    between atoms: C_17  and  C_29
REMARK   13  A    between atoms: C_18  and  C_30
REMARK   14  A    between atoms: C_22  and  C_33
REMARK   15  A    between atoms: C_40  and  C_42
REMARK   16  A    between atoms: C_46  and  C_48
REMARK   17  A    between atoms: C_52  and  C_54
REMARK                            x       y       z     vdW  Elec       q    Type
REMARK                         _______ _______ _______ _____ _____    ______ ____
ROOT
ATOM      1  O   UNL     1      53.287  37.377  68.394  0.00  0.00    +0.000 OA
ATOM      2  C   UNL     1      52.540  38.346  67.662  0.00  0.00    +0.000 C 
ATOM      3  C   UNL     1      52.402  39.668  68.422  0.00  0.00    +0.000 C 
ATOM      4  C   UNL     1      53.296  39.699  69.653  0.00  0.00    +0.000 C 
ATOM      5  C   UNL     1      54.638  37.790  68.631  0.00  0.00    +0.000 C 
ATOM      6  C   UNL     1      54.706  39.123  69.414  0.00  0.00    +0.000 C 
ATOM      7  C   UNL     1      55.314  36.659  69.407  0.00  0.00    +0.000 C 
ENDROOT
BRANCH   4   8
ATOM      8  O   UNL     1      53.306  40.986  70.260  0.00  0.00    +0.000 OA
ATOM      9  H   UNL     1      53.613  40.853  71.182  0.00  0.00    +0.000 HD
ENDBRANCH   4   8
BRANCH   2  10
ATOM     10  O   UNL     1      51.264  37.849  67.259  0.00  0.00    +0.000 OA
BRANCH  10  29
ATOM     11  C   UNL     1      50.799  35.112  59.990  0.00  0.00    +0.000 C 
ATOM     12  C   UNL     1      50.850  35.613  61.459  0.00  0.00    +0.000 C 
ATOM     13  C   UNL     1      51.619  34.662  62.411  0.00  0.00    +0.000 C 
ATOM     14  C   UNL     1      52.177  34.678  59.415  0.00  0.00    +0.000 C 
ATOM     15  C   UNL     1      51.674  35.180  63.906  0.00  0.00    +0.000 C 
ATOM     16  C   UNL     1      50.238  35.575  64.389  0.00  0.00    +0.000 C 
ATOM     17  C   UNL     1      53.005  34.336  61.818  0.00  0.00    +0.000 C 
ATOM     18  C   UNL     1      52.905  33.744  60.412  0.00  0.00    +0.000 C 
ATOM     19  C   UNL     1      51.742  33.926  58.116  0.00  0.00    +0.000 C 
ATOM     20  C   UNL     1      49.442  35.896  62.003  0.00  0.00    +0.000 C 
ATOM     21  C   UNL     1      49.902  33.882  59.759  0.00  0.00    +0.000 C 
ATOM     22  C   UNL     1      49.506  36.497  63.398  0.00  0.00    +0.000 C 
ATOM     23  C   UNL     1      50.476  33.153  58.538  0.00  0.00    +0.000 C 
ATOM     24  C   UNL     1      52.634  36.391  64.070  0.00  0.00    +0.000 C 
ATOM     25  C   UNL     1      50.238  36.227  65.787  0.00  0.00    +0.000 C 
ATOM     26  C   UNL     1      53.080  35.883  59.083  0.00  0.00    +0.000 C 
ATOM     27  C   UNL     1      52.191  34.014  64.795  0.00  0.00    +0.000 C 
ATOM     28  C   UNL     1      52.605  37.013  65.466  0.00  0.00    +0.000 C 
ATOM     29  C   UNL     1      51.196  37.417  65.895  0.00  0.00    +0.000 C 
BRANCH  19  32
ATOM     30  O   UNL     1      54.332  32.563  55.783  0.00  0.00    +0.000 OA
ATOM     31  O   UNL     1      54.819  30.477  56.610  0.00  0.00    +0.000 OA
ATOM     32  C   UNL     1      52.793  33.112  57.410  0.00  0.00    +0.000 C 
ATOM     33  C   UNL     1      53.461  33.619  56.185  0.00  0.00    +0.000 C 
ATOM     34  C   UNL     1      53.224  31.879  57.677  0.00  0.00    +0.000 C 
ATOM     35  C   UNL     1      54.211  31.530  56.657  0.00  0.00    +0.000 C 
ENDBRANCH  19  32
BRANCH  11  36
ATOM     36  O   UNL     1      50.248  36.155  59.168  0.00  0.00    +0.000 OA
ATOM     37  H   UNL     1      49.795  35.747  58.411  0.00  0.00    +0.000 HD
ENDBRANCH  11  36
ENDBRANCH  10  29
ENDBRANCH   2  10
BRANCH   6  38
ATOM     38  O   UNL     1      55.764  39.969  68.954  0.00  0.00    +0.000 OA
BRANCH  38  40
ATOM     39  O   UNL     1      57.872  38.997  68.459  0.00  0.00    +0.000 OA
ATOM     40  C   UNL     1      57.131  39.850  69.322  0.00  0.00    +0.000 C 
ATOM     41  C   UNL     1      57.397  39.531  70.790  0.00  0.00    +0.000 C 
ATOM     42  C   UNL     1      58.666  38.708  70.987  0.00  0.00    +0.000 C 
ATOM     43  C   UNL     1      59.286  39.256  68.563  0.00  0.00    +0.000 C 
ATOM     44  C   UNL     1      59.810  39.031  70.004  0.00  0.00    +0.000 C 
ATOM     45  C   UNL     1      59.977  38.321  67.574  0.00  0.00    +0.000 C 
BRANCH  42  46
ATOM     46  O   UNL     1      59.098  38.757  72.346  0.00  0.00    +0.000 OA
ATOM     47  H   UNL     1      59.527  37.910  72.560  0.00  0.00    +0.000 HD
ENDBRANCH  42  46
BRANCH  44  48
ATOM     48  O   UNL     1      60.758  40.036  70.387  0.00  0.00    +0.000 OA
BRANCH  48  50
ATOM     49  O   UNL     1      62.621  39.821  71.800  0.00  0.00    +0.000 OA
ATOM     50  C   UNL     1      62.134  39.685  70.470  0.00  0.00    +0.000 C 
ATOM     51  C   UNL     1      62.891  40.657  69.558  0.00  0.00    +0.000 C 
ATOM     52  C   UNL     1      64.323  40.898  70.030  0.00  0.00    +0.000 C 
ATOM     53  C   UNL     1      63.961  39.320  71.960  0.00  0.00    +0.000 C 
ATOM     54  C   UNL     1      64.872  39.676  70.771  0.00  0.00    +0.000 C 
ATOM     55  C   UNL     1      64.485  39.920  73.259  0.00  0.00    +0.000 C 
BRANCH  52  56
ATOM     56  O   UNL     1      65.146  41.163  68.888  0.00  0.00    +0.000 OA
ATOM     57  H   UNL     1      65.921  41.667  69.197  0.00  0.00    +0.000 HD
ENDBRANCH  52  56
BRANCH  54  58
ATOM     58  O   UNL     1      64.903  38.570  69.852  0.00  0.00    +0.000 OA
ATOM     59  H   UNL     1      65.682  38.033  70.108  0.00  0.00    +0.000 HD
ENDBRANCH  54  58
ENDBRANCH  48  50
ENDBRANCH  44  48
ENDBRANCH  38  40
ENDBRANCH   6  38
TORSDOF 12
ENDMDL
MODEL 2
REMARK VINA RESULT:      -8.4     14.778     19.927
REMARK  Name = 
REMARK  17 active torsions:
REMARK  status: ('A' for Active; 'I' for Inactive)
REMARK    1  A    between atoms: O_1  and  C_14
REMARK    2  A    between atoms: O_2  and  C_32
REMARK    3  A    between atoms: O_2  and  C_36
REMARK    4  A    between atoms: O_6  and  C_39
REMARK    5  A    between atoms: O_7  and  C_41
REMARK    6  A    between atoms: O_7  and  C_43
REMARK    7  A    between atoms: O_9  and  C_47
REMARK    8  A    between atoms: O_9  and  C_49
REMARK    9  A    between atoms: O_10  and  C_45
REMARK   10  A    between atoms: O_12  and  C_51
REMARK   11  A    between atoms: O_13  and  C_53
REMARK   12  A    between atoms: C_17  and  C_29
REMARK   13  A    between atoms: C_18  and  C_30
REMARK   14  A    between atoms: C_22  and  C_33
REMARK   15  A    between atoms: C_40  and  C_42
REMARK   16  A    between atoms: C_46  and  C_48
REMARK   17  A    between atoms: C_52  and  C_54
REMARK                            x       y       z     vdW  Elec       q    Type
REMARK                         _______ _______ _______ _____ _____    ______ ____
ROOT
ATOM      1  O   UNL     1      64.976  44.330  53.462  0.00  0.00    +0.000 OA
ATOM      2  C   UNL     1      64.276  45.417  54.062  0.00  0.00    +0.000 C 
ATOM      3  C   UNL     1      62.771  45.361  53.790  0.00  0.00    +0.000 C 
ATOM      4  C   UNL     1      62.368  44.038  53.156  0.00  0.00    +0.000 C 
ATOM      5  C   UNL     1      64.569  43.060  53.986  0.00  0.00    +0.000 C 
ATOM      6  C   UNL     1      63.055  42.810  53.787  0.00  0.00    +0.000 C 
ATOM      7  C   UNL     1      65.402  42.000  53.266  0.00  0.00    +0.000 C 
ENDROOT
BRANCH   4   8
ATOM      8  O   UNL     1      60.954  43.910  53.065  0.00  0.00    +0.000 OA
ATOM      9  H   UNL     1      60.757  42.954  53.158  0.00  0.00    +0.000 HD
ENDBRANCH   4   8
BRANCH   2  10
ATOM     10  O   UNL     1      64.822  46.681  53.684  0.00  0.00    +0.000 OA
BRANCH  10  29
ATOM     11  C   UNL     1      61.931  53.037  57.117  0.00  0.00    +0.000 C 
ATOM     12  C   UNL     1      62.538  51.806  56.390  0.00  0.00    +0.000 C 
ATOM     13  C   UNL     1      64.054  51.619  56.651  0.00  0.00    +0.000 C 
ATOM     14  C   UNL     1      62.292  53.130  58.627  0.00  0.00    +0.000 C 
ATOM     15  C   UNL     1      64.668  50.360  55.913  0.00  0.00    +0.000 C 
ATOM     16  C   UNL     1      64.257  50.371  54.403  0.00  0.00    +0.000 C 
ATOM     17  C   UNL     1      64.331  51.643  58.168  0.00  0.00    +0.000 C 
ATOM     18  C   UNL     1      63.813  52.921  58.828  0.00  0.00    +0.000 C 
ATOM     19  C   UNL     1      61.851  54.592  58.956  0.00  0.00    +0.000 C 
ATOM     20  C   UNL     1      62.253  51.850  54.881  0.00  0.00    +0.000 C 
ATOM     21  C   UNL     1      62.368  54.400  56.551  0.00  0.00    +0.000 C 
ATOM     22  C   UNL     1      62.747  50.587  54.194  0.00  0.00    +0.000 C 
ATOM     23  C   UNL     1      62.273  55.399  57.712  0.00  0.00    +0.000 C 
ATOM     24  C   UNL     1      64.220  49.023  56.567  0.00  0.00    +0.000 C 
ATOM     25  C   UNL     1      64.697  49.096  53.655  0.00  0.00    +0.000 C 
ATOM     26  C   UNL     1      61.513  52.109  59.480  0.00  0.00    +0.000 C 
ATOM     27  C   UNL     1      66.217  50.462  56.004  0.00  0.00    +0.000 C 
ATOM     28  C   UNL     1      64.671  47.781  55.799  0.00  0.00    +0.000 C 
ATOM     29  C   UNL     1      64.228  47.808  54.338  0.00  0.00    +0.000 C 
BRANCH  19  32
ATOM     30  O   UNL     1      63.508  56.467  61.739  0.00  0.00    +0.000 OA
ATOM     31  O   UNL     1      62.628  55.561  63.656  0.00  0.00    +0.000 OA
ATOM     32  C   UNL     1      62.294  55.160  60.277  0.00  0.00    +0.000 C 
ATOM     33  C   UNL     1      63.311  56.240  60.344  0.00  0.00    +0.000 C 
ATOM     34  C   UNL     1      61.954  54.789  61.512  0.00  0.00    +0.000 C 
ATOM     35  C   UNL     1      62.710  55.624  62.443  0.00  0.00    +0.000 C 
ENDBRANCH  19  32
BRANCH  11  36
ATOM     36  O   UNL     1      60.501  52.996  56.972  0.00  0.00    +0.000 OA
ATOM     37  H   UNL     1      60.138  53.860  57.230  0.00  0.00    +0.000 HD
ENDBRANCH  11  36
ENDBRANCH  10  29
ENDBRANCH   2  10
BRANCH   6  38
ATOM     38  O   UNL     1      62.463  42.148  54.909  0.00  0.00    +0.000 OA
BRANCH  38  40
ATOM     39  O   UNL     1      62.134  40.026  53.897  0.00  0.00    +0.000 OA
ATOM     40  C   UNL     1      62.404  40.741  55.096  0.00  0.00    +0.000 C 
ATOM     41  C   UNL     1      61.523  40.261  56.245  0.00  0.00    +0.000 C 
ATOM     42  C   UNL     1      60.899  38.896  55.971  0.00  0.00    +0.000 C 
ATOM     43  C   UNL     1      62.533  38.647  54.015  0.00  0.00    +0.000 C 
ATOM     44  C   UNL     1      61.787  37.925  55.165  0.00  0.00    +0.000 C 
ATOM     45  C   UNL     1      62.238  37.989  52.669  0.00  0.00    +0.000 C 
BRANCH  42  46
ATOM     46  O   UNL     1      60.418  38.306  57.177  0.00  0.00    +0.000 OA
ATOM     47  H   UNL     1      61.116  38.375  57.851  0.00  0.00    +0.000 HD
ENDBRANCH  42  46
BRANCH  44  48
ATOM     48  O   UNL     1      62.656  37.050  55.895  0.00  0.00    +0.000 OA
BRANCH  48  50
ATOM     49  O   UNL     1      63.332  35.123  54.737  0.00  0.00    +0.000 OA
ATOM     50  C   UNL     1      63.722  36.408  55.206  0.00  0.00    +0.000 C 
ATOM     51  C   UNL     1      64.864  36.249  56.214  0.00  0.00    +0.000 C 
ATOM     52  C   UNL     1      65.744  35.039  55.906  0.00  0.00    +0.000 C 
ATOM     53  C   UNL     1      64.325  34.510  53.893  0.00  0.00    +0.000 C 
ATOM     54  C   UNL     1      65.759  34.736  54.406  0.00  0.00    +0.000 C 
ATOM     55  C   UNL     1      63.981  33.025  53.845  0.00  0.00    +0.000 C 
BRANCH  52  56
ATOM     56  O   UNL     1      67.080  35.317  56.342  0.00  0.00    +0.000 OA
ATOM     57  H   UNL     1      67.203  36.283  56.312  0.00  0.00    +0.000 HD
ENDBRANCH  52  56
BRANCH  54  58
ATOM     58  O   UNL     1      66.331  35.866  53.725  0.00  0.00    +0.000 OA
ATOM     59  H   UNL     1      65.600  36.262  53.207  0.00  0.00    +0.000 HD
ENDBRANCH  54  58
ENDBRANCH  48  50
ENDBRANCH  44  48
ENDBRANCH  38  40
ENDBRANCH   6  38
TORSDOF 12
ENDMDL
MODEL 3
REMARK VINA RESULT:      -8.3      4.125     12.552
REMARK  Name = 
REMARK  17 active torsions:
REMARK  status: ('A' for Active; 'I' for Inactive)
REMARK    1  A    between atoms: O_1  and  C_14
REMARK    2  A    between atoms: O_2  and  C_32
REMARK    3  A    between atoms: O_2  and  C_36
REMARK    4  A    between atoms: O_6  and  C_39
REMARK    5  A    between atoms: O_7  and  C_41
REMARK    6  A    between atoms: O_7  and  C_43
REMARK    7  A    between atoms: O_9  and  C_47
REMARK    8  A    between atoms: O_9  and  C_49
REMARK    9  A    between atoms: O_10  and  C_45
REMARK   10  A    between atoms: O_12  and  C_51
REMARK   11  A    between atoms: O_13  and  C_53
REMARK   12  A    between atoms: C_17  and  C_29
REMARK   13  A    between atoms: C_18  and  C_30
REMARK   14  A    between atoms: C_22  and  C_33
REMARK   15  A    between atoms: C_40  and  C_42
REMARK   16  A    between atoms: C_46  and  C_48
REMARK   17  A    between atoms: C_52  and  C_54
REMARK                            x       y       z     vdW  Elec       q    Type
REMARK                         _______ _______ _______ _____ _____    ______ ____
ROOT
ATOM      1  O   UNL     1      55.795  34.083  65.832  0.00  0.00    +0.000 OA
ATOM      2  C   UNL     1      56.487  35.315  65.648  0.00  0.00    +0.000 C 
ATOM      3  C   UNL     1      55.930  36.126  64.475  0.00  0.00    +0.000 C 
ATOM      4  C   UNL     1      54.630  35.531  63.954  0.00  0.00    +0.000 C 
ATOM      5  C   UNL     1      54.413  34.273  66.159  0.00  0.00    +0.000 C 
ATOM      6  C   UNL     1      53.665  35.073  65.066  0.00  0.00    +0.000 C 
ATOM      7  C   UNL     1      53.807  32.881  66.336  0.00  0.00    +0.000 C 
ENDROOT
BRANCH   4   8
ATOM      8  O   UNL     1      54.018  36.376  62.986  0.00  0.00    +0.000 OA
ATOM      9  H   UNL     1      53.804  37.214  63.448  0.00  0.00    +0.000 HD
ENDBRANCH   4   8
BRANCH   2  10
ATOM     10  O   UNL     1      57.896  35.125  65.520  0.00  0.00    +0.000 OA
BRANCH  10  29
ATOM     11  C   UNL     1      62.470  39.660  69.886  0.00  0.00    +0.000 C 
ATOM     12  C   UNL     1      61.574  38.789  68.963  0.00  0.00    +0.000 C 
ATOM     13  C   UNL     1      62.377  37.835  68.043  0.00  0.00    +0.000 C 
ATOM     14  C   UNL     1      63.557  38.861  70.659  0.00  0.00    +0.000 C 
ATOM     15  C   UNL     1      61.459  36.945  67.109  0.00  0.00    +0.000 C 
ATOM     16  C   UNL     1      60.413  37.845  66.370  0.00  0.00    +0.000 C 
ATOM     17  C   UNL     1      63.380  37.018  68.884  0.00  0.00    +0.000 C 
ATOM     18  C   UNL     1      64.315  37.915  69.695  0.00  0.00    +0.000 C 
ATOM     19  C   UNL     1      64.468  40.017  71.185  0.00  0.00    +0.000 C 
ATOM     20  C   UNL     1      60.615  39.656  68.133  0.00  0.00    +0.000 C 
ATOM     21  C   UNL     1      63.268  40.758  69.160  0.00  0.00    +0.000 C 
ATOM     22  C   UNL     1      59.662  38.794  67.321  0.00  0.00    +0.000 C 
ATOM     23  C   UNL     1      64.517  41.016  70.011  0.00  0.00    +0.000 C 
ATOM     24  C   UNL     1      60.722  35.830  67.903  0.00  0.00    +0.000 C 
ATOM     25  C   UNL     1      59.391  37.026  65.556  0.00  0.00    +0.000 C 
ATOM     26  C   UNL     1      62.967  38.045  71.826  0.00  0.00    +0.000 C 
ATOM     27  C   UNL     1      62.372  36.273  66.044  0.00  0.00    +0.000 C 
ATOM     28  C   UNL     1      59.716  35.041  67.065  0.00  0.00    +0.000 C 
ATOM     29  C   UNL     1      58.690  35.945  66.384  0.00  0.00    +0.000 C 
BRANCH  19  32
ATOM     30  O   UNL     1      68.068  39.202  71.799  0.00  0.00    +0.000 OA
ATOM     31  O   UNL     1      68.130  38.433  73.962  0.00  0.00    +0.000 OA
ATOM     32  C   UNL     1      65.803  39.629  71.761  0.00  0.00    +0.000 C 
ATOM     33  C   UNL     1      67.039  39.692  70.941  0.00  0.00    +0.000 C 
ATOM     34  C   UNL     1      66.090  39.135  72.966  0.00  0.00    +0.000 C 
ATOM     35  C   UNL     1      67.527  38.874  73.001  0.00  0.00    +0.000 C 
ENDBRANCH  19  32
BRANCH  11  36
ATOM     36  O   UNL     1      61.627  40.348  70.826  0.00  0.00    +0.000 OA
ATOM     37  H   UNL     1      61.382  39.728  71.534  0.00  0.00    +0.000 HD
ENDBRANCH  11  36
ENDBRANCH  10  29
ENDBRANCH   2  10
BRANCH   6  38
ATOM     38  O   UNL     1      52.713  35.988  65.619  0.00  0.00    +0.000 OA
BRANCH  38  40
ATOM     39  O   UNL     1      52.143  36.854  67.754  0.00  0.00    +0.000 OA
ATOM     40  C   UNL     1      52.991  36.958  66.618  0.00  0.00    +0.000 C 
ATOM     41  C   UNL     1      53.098  38.400  66.129  0.00  0.00    +0.000 C 
ATOM     42  C   UNL     1      52.648  39.407  67.183  0.00  0.00    +0.000 C 
ATOM     43  C   UNL     1      52.726  37.507  68.898  0.00  0.00    +0.000 C 
ATOM     44  C   UNL     1      52.973  39.015  68.639  0.00  0.00    +0.000 C 
ATOM     45  C   UNL     1      51.759  37.300  70.061  0.00  0.00    +0.000 C 
BRANCH  42  46
ATOM     46  O   UNL     1      53.114  40.718  66.865  0.00  0.00    +0.000 OA
ATOM     47  H   UNL     1      53.671  40.659  66.069  0.00  0.00    +0.000 HD
ENDBRANCH  42  46
BRANCH  44  48
ATOM     48  O   UNL     1      54.224  39.450  69.186  0.00  0.00    +0.000 OA
BRANCH  48  50
ATOM     49  O   UNL     1      54.421  39.239  71.517  0.00  0.00    +0.000 OA
ATOM     50  C   UNL     1      54.226  40.138  70.431  0.00  0.00    +0.000 C 
ATOM     51  C   UNL     1      52.851  40.800  70.570  0.00  0.00    +0.000 C 
ATOM     52  C   UNL     1      52.430  40.960  72.029  0.00  0.00    +0.000 C 
ATOM     53  C   UNL     1      54.595  39.912  72.777  0.00  0.00    +0.000 C 
ATOM     54  C   UNL     1      53.650  41.116  72.941  0.00  0.00    +0.000 C 
ATOM     55  C   UNL     1      54.348  38.862  73.855  0.00  0.00    +0.000 C 
BRANCH  52  56
ATOM     56  O   UNL     1      51.605  42.125  72.146  0.00  0.00    +0.000 OA
ATOM     57  H   UNL     1      52.194  42.900  72.166  0.00  0.00    +0.000 HD
ENDBRANCH  52  56
BRANCH  54  58
ATOM     58  O   UNL     1      54.344  42.317  72.561  0.00  0.00    +0.000 OA
ATOM     59  H   UNL     1      54.118  42.982  73.243  0.00  0.00    +0.000 HD
ENDBRANCH  54  58
ENDBRANCH  48  50
ENDBRANCH  44  48
ENDBRANCH  38  40
ENDBRANCH   6  38
TORSDOF 12
ENDMDL
MODEL 4
REMARK VINA RESULT:      -8.0     14.200     20.095
REMARK  Name = 
REMARK  17 active torsions:
REMARK  status: ('A' for Active; 'I' for Inactive)
REMARK    1  A    between atoms: O_1  and  C_14
REMARK    2  A    between atoms: O_2  and  C_32
REMARK    3  A    between atoms: O_2  and  C_36
REMARK    4  A    between atoms: O_6  and  C_39
REMARK    5  A    between atoms: O_7  and  C_41
REMARK    6  A    between atoms: O_7  and  C_43
REMARK    7  A    between atoms: O_9  and  C_47
REMARK    8  A    between atoms: O_9  and  C_49
REMARK    9  A    between atoms: O_10  and  C_45
REMARK   10  A    between atoms: O_12  and  C_51
REMARK   11  A    between atoms: O_13  and  C_53
REMARK   12  A    between atoms: C_17  and  C_29
REMARK   13  A    between atoms: C_18  and  C_30
REMARK   14  A    between atoms: C_22  and  C_33
REMARK   15  A    between atoms: C_40  and  C_42
REMARK   16  A    between atoms: C_46  and  C_48
REMARK   17  A    between atoms: C_52  and  C_54
REMARK                            x       y       z     vdW  Elec       q    Type
REMARK                         _______ _______ _______ _____ _____    ______ ____
ROOT
ATOM      1  O   UNL     1      63.719  44.883  53.235  0.00  0.00    +0.000 OA
ATOM      2  C   UNL     1      62.478  45.577  53.334  0.00  0.00    +0.000 C 
ATOM      3  C   UNL     1      61.313  44.773  52.751  0.00  0.00    +0.000 C 
ATOM      4  C   UNL     1      61.727  43.344  52.434  0.00  0.00    +0.000 C 
ATOM      5  C   UNL     1      63.724  43.661  53.983  0.00  0.00    +0.000 C 
ATOM      6  C   UNL     1      62.608  42.695  53.520  0.00  0.00    +0.000 C 
ATOM      7  C   UNL     1      65.107  43.037  53.795  0.00  0.00    +0.000 C 
ENDROOT
BRANCH   4   8
ATOM      8  O   UNL     1      60.609  42.545  52.061  0.00  0.00    +0.000 OA
ATOM      9  H   UNL     1      60.557  41.821  52.720  0.00  0.00    +0.000 HD
ENDBRANCH   4   8
BRANCH   2  10
ATOM     10  O   UNL     1      62.544  46.881  52.755  0.00  0.00    +0.000 OA
BRANCH  10  29
ATOM     11  C   UNL     1      66.559  51.982  57.045  0.00  0.00    +0.000 C 
ATOM     12  C   UNL     1      65.810  50.953  56.154  0.00  0.00    +0.000 C 
ATOM     13  C   UNL     1      66.225  49.484  56.424  0.00  0.00    +0.000 C 
ATOM     14  C   UNL     1      66.563  51.631  58.560  0.00  0.00    +0.000 C 
ATOM     15  C   UNL     1      65.455  48.439  55.517  0.00  0.00    +0.000 C 
ATOM     16  C   UNL     1      65.524  48.877  54.017  0.00  0.00    +0.000 C 
ATOM     17  C   UNL     1      66.130  49.182  57.934  0.00  0.00    +0.000 C 
ATOM     18  C   UNL     1      66.967  50.151  58.768  0.00  0.00    +0.000 C 
ATOM     19  C   UNL     1      67.647  52.618  59.099  0.00  0.00    +0.000 C 
ATOM     20  C   UNL     1      65.961  51.290  54.663  0.00  0.00    +0.000 C 
ATOM     21  C   UNL     1      68.050  52.163  56.708  0.00  0.00    +0.000 C 
ATOM     22  C   UNL     1      65.131  50.350  53.804  0.00  0.00    +0.000 C 
ATOM     23  C   UNL     1      68.734  52.612  58.005  0.00  0.00    +0.000 C 
ATOM     24  C   UNL     1      63.970  48.274  55.947  0.00  0.00    +0.000 C 
ATOM     25  C   UNL     1      64.670  47.983  53.094  0.00  0.00    +0.000 C 
ATOM     26  C   UNL     1      65.196  51.891  59.226  0.00  0.00    +0.000 C 
ATOM     27  C   UNL     1      66.168  47.065  55.665  0.00  0.00    +0.000 C 
ATOM     28  C   UNL     1      63.153  47.385  55.009  0.00  0.00    +0.000 C 
ATOM     29  C   UNL     1      63.216  47.858  53.558  0.00  0.00    +0.000 C 
BRANCH  19  32
ATOM     30  O   UNL     1      68.840  52.940  62.632  0.00  0.00    +0.000 OA
ATOM     31  O   UNL     1      69.403  50.803  63.253  0.00  0.00    +0.000 OA
ATOM     32  C   UNL     1      68.141  52.395  60.503  0.00  0.00    +0.000 C 
ATOM     33  C   UNL     1      68.309  53.530  61.446  0.00  0.00    +0.000 C 
ATOM     34  C   UNL     1      68.551  51.267  61.083  0.00  0.00    +0.000 C 
ATOM     35  C   UNL     1      68.983  51.604  62.438  0.00  0.00    +0.000 C 
ENDBRANCH  19  32
BRANCH  11  36
ATOM     36  O   UNL     1      65.957  53.274  56.858  0.00  0.00    +0.000 OA
ATOM     37  H   UNL     1      66.647  53.899  56.576  0.00  0.00    +0.000 HD
ENDBRANCH  11  36
ENDBRANCH  10  29
ENDBRANCH   2  10
BRANCH   6  38
ATOM     38  O   UNL     1      62.008  41.995  54.615  0.00  0.00    +0.000 OA
BRANCH  38  40
ATOM     39  O   UNL     1      62.094  39.767  53.802  0.00  0.00    +0.000 OA
ATOM     40  C   UNL     1      62.216  40.626  54.928  0.00  0.00    +0.000 C 
ATOM     41  C   UNL     1      61.434  40.094  56.126  0.00  0.00    +0.000 C 
ATOM     42  C   UNL     1      61.082  38.616  55.982  0.00  0.00    +0.000 C 
ATOM     43  C   UNL     1      62.747  38.505  54.039  0.00  0.00    +0.000 C 
ATOM     44  C   UNL     1      62.143  37.762  55.258  0.00  0.00    +0.000 C 
ATOM     45  C   UNL     1      62.591  37.684  52.762  0.00  0.00    +0.000 C 
BRANCH  42  46
ATOM     46  O   UNL     1      60.713  38.057  57.241  0.00  0.00    +0.000 OA
ATOM     47  H   UNL     1      61.323  37.325  57.441  0.00  0.00    +0.000 HD
ENDBRANCH  42  46
BRANCH  44  48
ATOM     48  O   UNL     1      63.157  37.137  56.055  0.00  0.00    +0.000 OA
BRANCH  48  50
ATOM     49  O   UNL     1      63.553  34.850  55.700  0.00  0.00    +0.000 OA
ATOM     50  C   UNL     1      64.010  36.174  55.448  0.00  0.00    +0.000 C 
ATOM     51  C   UNL     1      65.395  36.355  56.079  0.00  0.00    +0.000 C 
ATOM     52  C   UNL     1      66.197  35.056  56.095  0.00  0.00    +0.000 C 
ATOM     53  C   UNL     1      64.292  33.854  54.969  0.00  0.00    +0.000 C 
ATOM     54  C   UNL     1      65.802  34.148  54.928  0.00  0.00    +0.000 C 
ATOM     55  C   UNL     1      64.004  32.524  55.656  0.00  0.00    +0.000 C 
BRANCH  52  56
ATOM     56  O   UNL     1      67.591  35.373  55.993  0.00  0.00    +0.000 OA
ATOM     57  H   UNL     1      67.737  35.767  55.114  0.00  0.00    +0.000 HD
ENDBRANCH  52  56
BRANCH  54  58
ATOM     58  O   UNL     1      66.117  34.831  53.702  0.00  0.00    +0.000 OA
ATOM     59  H   UNL     1      67.090  34.767  53.604  0.00  0.00    +0.000 HD
ENDBRANCH  54  58
ENDBRANCH  48  50
ENDBRANCH  44  48
ENDBRANCH  38  40
ENDBRANCH   6  38
TORSDOF 12
ENDMDL
MODEL 5
REMARK VINA RESULT:      -7.9     17.986     21.544
REMARK  Name = 
REMARK  17 active torsions:
REMARK  status: ('A' for Active; 'I' for Inactive)
REMARK    1  A    between atoms: O_1  and  C_14
REMARK    2  A    between atoms: O_2  and  C_32
REMARK    3  A    between atoms: O_2  and  C_36
REMARK    4  A    between atoms: O_6  and  C_39
REMARK    5  A    between atoms: O_7  and  C_41
REMARK    6  A    between atoms: O_7  and  C_43
REMARK    7  A    between atoms: O_9  and  C_47
REMARK    8  A    between atoms: O_9  and  C_49
REMARK    9  A    between atoms: O_10  and  C_45
REMARK   10  A    between atoms: O_12  and  C_51
REMARK   11  A    between atoms: O_13  and  C_53
REMARK   12  A    between atoms: C_17  and  C_29
REMARK   13  A    between atoms: C_18  and  C_30
REMARK   14  A    between atoms: C_22  and  C_33
REMARK   15  A    between atoms: C_40  and  C_42
REMARK   16  A    between atoms: C_46  and  C_48
REMARK   17  A    between atoms: C_52  and  C_54
REMARK                            x       y       z     vdW  Elec       q    Type
REMARK                         _______ _______ _______ _____ _____    ______ ____
ROOT
ATOM      1  O   UNL     1      67.976  48.879  56.701  0.00  0.00    +0.000 OA
ATOM      2  C   UNL     1      67.021  47.837  56.880  0.00  0.00    +0.000 C 
ATOM      3  C   UNL     1      67.276  46.648  55.950  0.00  0.00    +0.000 C 
ATOM      4  C   UNL     1      68.617  46.771  55.243  0.00  0.00    +0.000 C 
ATOM      5  C   UNL     1      69.310  48.462  57.018  0.00  0.00    +0.000 C 
ATOM      6  C   UNL     1      69.761  47.259  56.156  0.00  0.00    +0.000 C 
ATOM      7  C   UNL     1      70.214  49.673  56.793  0.00  0.00    +0.000 C 
ENDROOT
BRANCH   4   8
ATOM      8  O   UNL     1      68.939  45.589  54.519  0.00  0.00    +0.000 OA
ATOM      9  H   UNL     1      68.429  44.863  54.936  0.00  0.00    +0.000 HD
ENDBRANCH   4   8
BRANCH   2  10
ATOM     10  O   UNL     1      65.680  48.310  56.755  0.00  0.00    +0.000 OA
BRANCH  10  29
ATOM     11  C   UNL     1      64.311  55.328  59.824  0.00  0.00    +0.000 C 
ATOM     12  C   UNL     1      64.585  53.903  59.270  0.00  0.00    +0.000 C 
ATOM     13  C   UNL     1      63.364  52.954  59.372  0.00  0.00    +0.000 C 
ATOM     14  C   UNL     1      63.003  55.979  59.291  0.00  0.00    +0.000 C 
ATOM     15  C   UNL     1      63.646  51.504  58.801  0.00  0.00    +0.000 C 
ATOM     16  C   UNL     1      64.972  50.938  59.410  0.00  0.00    +0.000 C 
ATOM     17  C   UNL     1      62.122  53.631  58.755  0.00  0.00    +0.000 C 
ATOM     18  C   UNL     1      61.823  54.983  59.402  0.00  0.00    +0.000 C 
ATOM     19  C   UNL     1      62.846  57.189  60.267  0.00  0.00    +0.000 C 
ATOM     20  C   UNL     1      65.815  53.270  59.938  0.00  0.00    +0.000 C 
ATOM     21  C   UNL     1      64.163  55.408  61.354  0.00  0.00    +0.000 C 
ATOM     22  C   UNL     1      66.147  51.926  59.310  0.00  0.00    +0.000 C 
ATOM     23  C   UNL     1      63.267  56.620  61.637  0.00  0.00    +0.000 C 
ATOM     24  C   UNL     1      63.736  51.494  57.250  0.00  0.00    +0.000 C 
ATOM     25  C   UNL     1      65.386  49.589  58.786  0.00  0.00    +0.000 C 
ATOM     26  C   UNL     1      63.138  56.458  57.831  0.00  0.00    +0.000 C 
ATOM     27  C   UNL     1      62.470  50.584  59.235  0.00  0.00    +0.000 C 
ATOM     28  C   UNL     1      64.151  50.143  56.667  0.00  0.00    +0.000 C 
ATOM     29  C   UNL     1      65.464  49.633  57.257  0.00  0.00    +0.000 C 
BRANCH  19  32
ATOM     30  O   UNL     1      59.284  58.282  60.621  0.00  0.00    +0.000 OA
ATOM     31  O   UNL     1      59.170  60.272  59.481  0.00  0.00    +0.000 OA
ATOM     32  C   UNL     1      61.530  57.920  60.247  0.00  0.00    +0.000 C 
ATOM     33  C   UNL     1      60.326  57.348  60.900  0.00  0.00    +0.000 C 
ATOM     34  C   UNL     1      61.209  59.061  59.637  0.00  0.00    +0.000 C 
ATOM     35  C   UNL     1      59.789  59.303  59.883  0.00  0.00    +0.000 C 
ENDBRANCH  19  32
BRANCH  11  36
ATOM     36  O   UNL     1      65.429  56.170  59.496  0.00  0.00    +0.000 OA
ATOM     37  H   UNL     1      65.351  56.999  59.999  0.00  0.00    +0.000 HD
ENDBRANCH  11  36
ENDBRANCH  10  29
ENDBRANCH   2  10
BRANCH   6  38
ATOM     38  O   UNL     1      70.542  46.320  56.902  0.00  0.00    +0.000 OA
BRANCH  38  40
ATOM     39  O   UNL     1      72.595  46.781  57.998  0.00  0.00    +0.000 OA
ATOM     40  C   UNL     1      71.194  46.589  58.134  0.00  0.00    +0.000 C 
ATOM     41  C   UNL     1      70.867  45.634  59.279  0.00  0.00    +0.000 C 
ATOM     42  C   UNL     1      72.036  45.460  60.244  0.00  0.00    +0.000 C 
ATOM     43  C   UNL     1      73.135  47.488  59.131  0.00  0.00    +0.000 C 
ATOM     44  C   UNL     1      72.897  46.722  60.457  0.00  0.00    +0.000 C 
ATOM     45  C   UNL     1      74.626  47.674  58.863  0.00  0.00    +0.000 C 
BRANCH  42  46
ATOM     46  O   UNL     1      71.596  44.898  61.479  0.00  0.00    +0.000 OA
ATOM     47  H   UNL     1      71.916  43.979  61.527  0.00  0.00    +0.000 HD
ENDBRANCH  42  46
BRANCH  44  48
ATOM     48  O   UNL     1      72.534  47.608  61.524  0.00  0.00    +0.000 OA
BRANCH  48  50
ATOM     49  O   UNL     1      72.500  49.883  62.103  0.00  0.00    +0.000 OA
ATOM     50  C   UNL     1      72.015  48.893  61.204  0.00  0.00    +0.000 C 
ATOM     51  C   UNL     1      70.492  48.798  61.337  0.00  0.00    +0.000 C 
ATOM     52  C   UNL     1      69.859  50.135  61.715  0.00  0.00    +0.000 C 
ATOM     53  C   UNL     1      72.132  51.220  61.716  0.00  0.00    +0.000 C 
ATOM     54  C   UNL     1      70.689  51.307  61.187  0.00  0.00    +0.000 C 
ATOM     55  C   UNL     1      72.321  52.087  62.955  0.00  0.00    +0.000 C 
BRANCH  52  56
ATOM     56  O   UNL     1      68.543  50.199  61.151  0.00  0.00    +0.000 OA
ATOM     57  H   UNL     1      68.601  50.727  60.334  0.00  0.00    +0.000 HD
ENDBRANCH  52  56
BRANCH  54  58
ATOM     58  O   UNL     1      70.707  51.232  59.750  0.00  0.00    +0.000 OA
ATOM     59  H   UNL     1      70.002  51.838  59.443  0.00  0.00    +0.000 HD
ENDBRANCH  54  58
ENDBRANCH  48  50
ENDBRANCH  44  48
ENDBRANCH  38  40
ENDBRANCH   6  38
TORSDOF 12
ENDMDL
MODEL 6
REMARK VINA RESULT:      -7.8     14.948     19.798
REMARK  Name = 
REMARK  17 active torsions:
REMARK  status: ('A' for Active; 'I' for Inactive)
REMARK    1  A    between atoms: O_1  and  C_14
REMARK    2  A    between atoms: O_2  and  C_32
REMARK    3  A    between atoms: O_2  and  C_36
REMARK    4  A    between atoms: O_6  and  C_39
REMARK    5  A    between atoms: O_7  and  C_41
REMARK    6  A    between atoms: O_7  and  C_43
REMARK    7  A    between atoms: O_9  and  C_47
REMARK    8  A    between atoms: O_9  and  C_49
REMARK    9  A    between atoms: O_10  and  C_45
REMARK   10  A    between atoms: O_12  and  C_51
REMARK   11  A    between atoms: O_13  and  C_53
REMARK   12  A    between atoms: C_17  and  C_29
REMARK   13  A    between atoms: C_18  and  C_30
REMARK   14  A    between atoms: C_22  and  C_33
REMARK   15  A    between atoms: C_40  and  C_42
REMARK   16  A    between atoms: C_46  and  C_48
REMARK   17  A    between atoms: C_52  and  C_54
REMARK                            x       y       z     vdW  Elec       q    Type
REMARK                         _______ _______ _______ _____ _____    ______ ____
ROOT
ATOM      1  O   UNL     1      62.124  46.177  53.341  0.00  0.00    +0.000 OA
ATOM      2  C   UNL     1      60.720  46.375  53.485  0.00  0.00    +0.000 C 
ATOM      3  C   UNL     1      59.904  45.341  52.705  0.00  0.00    +0.000 C 
ATOM      4  C   UNL     1      60.786  44.223  52.170  0.00  0.00    +0.000 C 
ATOM      5  C   UNL     1      62.558  44.916  53.865  0.00  0.00    +0.000 C 
ATOM      6  C   UNL     1      61.843  43.728  53.178  0.00  0.00    +0.000 C 
ATOM      7  C   UNL     1      64.070  44.848  53.653  0.00  0.00    +0.000 C 
ENDROOT
BRANCH   4   8
ATOM      8  O   UNL     1      60.013  43.173  51.600  0.00  0.00    +0.000 OA
ATOM      9  H   UNL     1      59.074  43.438  51.697  0.00  0.00    +0.000 HD
ENDBRANCH   4   8
BRANCH   2  10
ATOM     10  O   UNL     1      60.327  47.704  53.145  0.00  0.00    +0.000 OA
BRANCH  10  29
ATOM     11  C   UNL     1      60.258  53.030  58.818  0.00  0.00    +0.000 C 
ATOM     12  C   UNL     1      60.223  51.998  57.658  0.00  0.00    +0.000 C 
ATOM     13  C   UNL     1      60.783  52.550  56.322  0.00  0.00    +0.000 C 
ATOM     14  C   UNL     1      61.627  53.746  58.996  0.00  0.00    +0.000 C 
ATOM     15  C   UNL     1      60.752  51.493  55.143  0.00  0.00    +0.000 C 
ATOM     16  C   UNL     1      59.331  50.845  55.043  0.00  0.00    +0.000 C 
ATOM     17  C   UNL     1      62.174  53.175  56.556  0.00  0.00    +0.000 C 
ATOM     18  C   UNL     1      62.143  54.262  57.630  0.00  0.00    +0.000 C 
ATOM     19  C   UNL     1      61.236  54.915  59.956  0.00  0.00    +0.000 C 
ATOM     20  C   UNL     1      58.811  51.430  57.455  0.00  0.00    +0.000 C 
ATOM     21  C   UNL     1      59.253  54.188  58.681  0.00  0.00    +0.000 C 
ATOM     22  C   UNL     1      58.807  50.337  56.399  0.00  0.00    +0.000 C 
ATOM     23  C   UNL     1      59.856  55.374  59.444  0.00  0.00    +0.000 C 
ATOM     24  C   UNL     1      61.823  50.382  55.326  0.00  0.00    +0.000 C 
ATOM     25  C   UNL     1      59.269  49.699  54.012  0.00  0.00    +0.000 C 
ATOM     26  C   UNL     1      62.689  52.831  59.637  0.00  0.00    +0.000 C 
ATOM     27  C   UNL     1      61.044  52.250  53.817  0.00  0.00    +0.000 C 
ATOM     28  C   UNL     1      61.731  49.263  54.289  0.00  0.00    +0.000 C 
ATOM     29  C   UNL     1      60.342  48.629  54.238  0.00  0.00    +0.000 C 
BRANCH  19  32
ATOM     30  O   UNL     1      63.234  58.079  59.893  0.00  0.00    +0.000 OA
ATOM     31  O   UNL     1      65.128  57.596  61.098  0.00  0.00    +0.000 OA
ATOM     32  C   UNL     1      62.251  56.009  60.152  0.00  0.00    +0.000 C 
ATOM     33  C   UNL     1      62.060  57.349  59.541  0.00  0.00    +0.000 C 
ATOM     34  C   UNL     1      63.427  55.967  60.779  0.00  0.00    +0.000 C 
ATOM     35  C   UNL     1      64.049  57.281  60.630  0.00  0.00    +0.000 C 
ENDBRANCH  19  32
BRANCH  11  36
ATOM     36  O   UNL     1      59.912  52.356  60.041  0.00  0.00    +0.000 OA
ATOM     37  H   UNL     1      60.162  51.420  59.960  0.00  0.00    +0.000 HD
ENDBRANCH  11  36
ENDBRANCH  10  29
ENDBRANCH   2  10
BRANCH   6  38
ATOM     38  O   UNL     1      61.530  42.678  54.098  0.00  0.00    +0.000 OA
BRANCH  38  40
ATOM     39  O   UNL     1      61.515  40.491  53.178  0.00  0.00    +0.000 OA
ATOM     40  C   UNL     1      62.118  41.386  54.103  0.00  0.00    +0.000 C 
ATOM     41  C   UNL     1      62.291  40.741  55.475  0.00  0.00    +0.000 C 
ATOM     42  C   UNL     1      62.188  39.220  55.421  0.00  0.00    +0.000 C 
ATOM     43  C   UNL     1      62.393  39.389  52.874  0.00  0.00    +0.000 C 
ATOM     44  C   UNL     1      62.756  38.574  54.141  0.00  0.00    +0.000 C 
ATOM     45  C   UNL     1      61.668  38.520  51.850  0.00  0.00    +0.000 C 
BRANCH  42  46
ATOM     46  O   UNL     1      62.729  38.632  56.603  0.00  0.00    +0.000 OA
ATOM     47  H   UNL     1      62.552  39.230  57.350  0.00  0.00    +0.000 HD
ENDBRANCH  42  46
BRANCH  44  48
ATOM     48  O   UNL     1      64.135  38.183  54.144  0.00  0.00    +0.000 OA
BRANCH  48  50
ATOM     49  O   UNL     1      63.353  36.055  54.754  0.00  0.00    +0.000 OA
ATOM     50  C   UNL     1      64.458  36.803  54.259  0.00  0.00    +0.000 C 
ATOM     51  C   UNL     1      65.617  36.704  55.257  0.00  0.00    +0.000 C 
ATOM     52  C   UNL     1      65.624  35.374  56.006  0.00  0.00    +0.000 C 
ATOM     53  C   UNL     1      63.582  34.634  54.730  0.00  0.00    +0.000 C 
ATOM     54  C   UNL     1      65.014  34.258  55.155  0.00  0.00    +0.000 C 
ATOM     55  C   UNL     1      62.547  34.022  55.667  0.00  0.00    +0.000 C 
BRANCH  52  56
ATOM     56  O   UNL     1      66.979  35.032  56.326  0.00  0.00    +0.000 OA
ATOM     57  H   UNL     1      67.431  35.852  56.595  0.00  0.00    +0.000 HD
ENDBRANCH  52  56
BRANCH  54  58
ATOM     58  O   UNL     1      65.827  34.093  53.980  0.00  0.00    +0.000 OA
ATOM     59  H   UNL     1      65.963  34.995  53.622  0.00  0.00    +0.000 HD
ENDBRANCH  54  58
ENDBRANCH  48  50
ENDBRANCH  44  48
ENDBRANCH  38  40
ENDBRANCH   6  38
TORSDOF 12
ENDMDL
MODEL 7
REMARK VINA RESULT:      -7.7      3.144      6.337
REMARK  Name = 
REMARK  17 active torsions:
REMARK  status: ('A' for Active; 'I' for Inactive)
REMARK    1  A    between atoms: O_1  and  C_14
REMARK    2  A    between atoms: O_2  and  C_32
REMARK    3  A    between atoms: O_2  and  C_36
REMARK    4  A    between atoms: O_6  and  C_39
REMARK    5  A    between atoms: O_7  and  C_41
REMARK    6  A    between atoms: O_7  and  C_43
REMARK    7  A    between atoms: O_9  and  C_47
REMARK    8  A    between atoms: O_9  and  C_49
REMARK    9  A    between atoms: O_10  and  C_45
REMARK   10  A    between atoms: O_12  and  C_51
REMARK   11  A    between atoms: O_13  and  C_53
REMARK   12  A    between atoms: C_17  and  C_29
REMARK   13  A    between atoms: C_18  and  C_30
REMARK   14  A    between atoms: C_22  and  C_33
REMARK   15  A    between atoms: C_40  and  C_42
REMARK   16  A    between atoms: C_46  and  C_48
REMARK   17  A    between atoms: C_52  and  C_54
REMARK                            x       y       z     vdW  Elec       q    Type
REMARK                         _______ _______ _______ _____ _____    ______ ____
ROOT
ATOM      1  O   UNL     1      59.969  37.386  69.159  0.00  0.00    +0.000 OA
ATOM      2  C   UNL     1      61.000  37.429  68.176  0.00  0.00    +0.000 C 
ATOM      3  C   UNL     1      61.119  38.807  67.518  0.00  0.00    +0.000 C 
ATOM      4  C   UNL     1      60.277  39.845  68.244  0.00  0.00    +0.000 C 
ATOM      5  C   UNL     1      60.216  38.278  70.252  0.00  0.00    +0.000 C 
ATOM      6  C   UNL     1      60.354  39.746  69.781  0.00  0.00    +0.000 C 
ATOM      7  C   UNL     1      59.047  38.118  71.223  0.00  0.00    +0.000 C 
ENDROOT
BRANCH   4   8
ATOM      8  O   UNL     1      60.522  41.157  67.750  0.00  0.00    +0.000 OA
ATOM      9  H   UNL     1      61.496  41.266  67.730  0.00  0.00    +0.000 HD
ENDBRANCH   4   8
BRANCH   2  10
ATOM     10  O   UNL     1      60.850  36.402  67.195  0.00  0.00    +0.000 OA
BRANCH  10  29
ATOM     11  C   UNL     1      53.627  34.510  65.006  0.00  0.00    +0.000 C 
ATOM     12  C   UNL     1      55.084  34.826  65.442  0.00  0.00    +0.000 C 
ATOM     13  C   UNL     1      56.122  34.648  64.305  0.00  0.00    +0.000 C 
ATOM     14  C   UNL     1      53.190  35.206  63.686  0.00  0.00    +0.000 C 
ATOM     15  C   UNL     1      57.605  34.977  64.752  0.00  0.00    +0.000 C 
ATOM     16  C   UNL     1      57.945  34.218  66.078  0.00  0.00    +0.000 C 
ATOM     17  C   UNL     1      55.666  35.427  63.054  0.00  0.00    +0.000 C 
ATOM     18  C   UNL     1      54.269  35.010  62.593  0.00  0.00    +0.000 C 
ATOM     19  C   UNL     1      51.872  34.435  63.356  0.00  0.00    +0.000 C 
ATOM     20  C   UNL     1      55.490  34.004  66.675  0.00  0.00    +0.000 C 
ATOM     21  C   UNL     1      53.339  33.021  64.747  0.00  0.00    +0.000 C 
ATOM     22  C   UNL     1      56.872  34.402  67.166  0.00  0.00    +0.000 C 
ATOM     23  C   UNL     1      52.192  32.973  63.731  0.00  0.00    +0.000 C 
ATOM     24  C   UNL     1      57.832  36.502  64.948  0.00  0.00    +0.000 C 
ATOM     25  C   UNL     1      59.323  34.607  66.651  0.00  0.00    +0.000 C 
ATOM     26  C   UNL     1      52.919  36.712  63.878  0.00  0.00    +0.000 C 
ATOM     27  C   UNL     1      58.562  34.473  63.635  0.00  0.00    +0.000 C 
ATOM     28  C   UNL     1      59.206  36.850  65.520  0.00  0.00    +0.000 C 
ATOM     29  C   UNL     1      59.495  36.118  66.829  0.00  0.00    +0.000 C 
BRANCH  19  32
ATOM     30  O   UNL     1      50.553  34.074  59.872  0.00  0.00    +0.000 OA
ATOM     31  O   UNL     1      50.092  36.221  59.200  0.00  0.00    +0.000 OA
ATOM     32  C   UNL     1      51.284  34.637  61.985  0.00  0.00    +0.000 C 
ATOM     33  C   UNL     1      51.055  33.489  61.072  0.00  0.00    +0.000 C 
ATOM     34  C   UNL     1      50.962  35.773  61.365  0.00  0.00    +0.000 C 
ATOM     35  C   UNL     1      50.484  35.422  60.030  0.00  0.00    +0.000 C 
ENDBRANCH  19  32
BRANCH  11  36
ATOM     36  O   UNL     1      52.736  34.901  66.066  0.00  0.00    +0.000 OA
ATOM     37  H   UNL     1      52.721  35.872  66.116  0.00  0.00    +0.000 HD
ENDBRANCH  11  36
ENDBRANCH  10  29
ENDBRANCH   2  10
BRANCH   6  38
ATOM     38  O   UNL     1      61.367  40.453  70.502  0.00  0.00    +0.000 OA
BRANCH  38  40
ATOM     39  O   UNL     1      63.297  40.196  71.858  0.00  0.00    +0.000 OA
ATOM     40  C   UNL     1      62.740  40.095  70.555  0.00  0.00    +0.000 C 
ATOM     41  C   UNL     1      63.637  40.752  69.509  0.00  0.00    +0.000 C 
ATOM     42  C   UNL     1      65.061  40.965  70.014  0.00  0.00    +0.000 C 
ATOM     43  C   UNL     1      64.500  39.411  71.971  0.00  0.00    +0.000 C 
ATOM     44  C   UNL     1      65.586  39.869  70.964  0.00  0.00    +0.000 C 
ATOM     45  C   UNL     1      64.988  39.558  73.410  0.00  0.00    +0.000 C 
BRANCH  42  46
ATOM     46  O   UNL     1      65.954  41.206  68.928  0.00  0.00    +0.000 OA
ATOM     47  H   UNL     1      66.389  42.064  69.075  0.00  0.00    +0.000 HD
ENDBRANCH  42  46
BRANCH  44  48
ATOM     48  O   UNL     1      66.276  38.755  70.384  0.00  0.00    +0.000 OA
BRANCH  48  50
ATOM     49  O   UNL     1      64.907  36.899  69.942  0.00  0.00    +0.000 OA
ATOM     50  C   UNL     1      65.623  37.991  69.377  0.00  0.00    +0.000 C 
ATOM     51  C   UNL     1      66.721  37.448  68.457  0.00  0.00    +0.000 C 
ATOM     52  C   UNL     1      66.327  36.125  67.803  0.00  0.00    +0.000 C 
ATOM     53  C   UNL     1      64.100  36.199  68.978  0.00  0.00    +0.000 C 
ATOM     54  C   UNL     1      64.810  36.030  67.622  0.00  0.00    +0.000 C 
ATOM     55  C   UNL     1      63.769  34.849  69.603  0.00  0.00    +0.000 C 
BRANCH  52  56
ATOM     56  O   UNL     1      66.959  36.038  66.520  0.00  0.00    +0.000 OA
ATOM     57  H   UNL     1      66.796  36.879  66.056  0.00  0.00    +0.000 HD
ENDBRANCH  52  56
BRANCH  54  58
ATOM     58  O   UNL     1      64.396  37.086  66.737  0.00  0.00    +0.000 OA
ATOM     59  H   UNL     1      63.718  36.691  66.151  0.00  0.00    +0.000 HD
ENDBRANCH  54  58
ENDBRANCH  48  50
ENDBRANCH  44  48
ENDBRANCH  38  40
ENDBRANCH   6  38
TORSDOF 12
ENDMDL
MODEL 8
REMARK VINA RESULT:      -7.6     18.228     22.540
REMARK  Name = 
REMARK  17 active torsions:
REMARK  status: ('A' for Active; 'I' for Inactive)
REMARK    1  A    between atoms: O_1  and  C_14
REMARK    2  A    between atoms: O_2  and  C_32
REMARK    3  A    between atoms: O_2  and  C_36
REMARK    4  A    between atoms: O_6  and  C_39
REMARK    5  A    between atoms: O_7  and  C_41
REMARK    6  A    between atoms: O_7  and  C_43
REMARK    7  A    between atoms: O_9  and  C_47
REMARK    8  A    between atoms: O_9  and  C_49
REMARK    9  A    between atoms: O_10  and  C_45
REMARK   10  A    between atoms: O_12  and  C_51
REMARK   11  A    between atoms: O_13  and  C_53
REMARK   12  A    between atoms: C_17  and  C_29
REMARK   13  A    between atoms: C_18  and  C_30
REMARK   14  A    between atoms: C_22  and  C_33
REMARK   15  A    between atoms: C_40  and  C_42
REMARK   16  A    between atoms: C_46  and  C_48
REMARK   17  A    between atoms: C_52  and  C_54
REMARK                            x       y       z     vdW  Elec       q    Type
REMARK                         _______ _______ _______ _____ _____    ______ ____
ROOT
ATOM      1  O   UNL     1      66.601  60.183  62.127  0.00  0.00    +0.000 OA
ATOM      2  C   UNL     1      67.156  59.469  61.026  0.00  0.00    +0.000 C 
ATOM      3  C   UNL     1      68.522  60.019  60.605  0.00  0.00    +0.000 C 
ATOM      4  C   UNL     1      69.051  61.027  61.614  0.00  0.00    +0.000 C 
ATOM      5  C   UNL     1      67.403  60.079  63.310  0.00  0.00    +0.000 C 
ATOM      6  C   UNL     1      68.839  60.608  63.083  0.00  0.00    +0.000 C 
ATOM      7  C   UNL     1      66.686  60.876  64.399  0.00  0.00    +0.000 C 
ENDROOT
BRANCH   4   8
ATOM      8  O   UNL     1      70.391  61.406  61.322  0.00  0.00    +0.000 OA
ATOM      9  H   UNL     1      70.880  61.367  62.172  0.00  0.00    +0.000 HD
ENDBRANCH   4   8
BRANCH   2  10
ATOM     10  O   UNL     1      66.260  59.412  59.916  0.00  0.00    +0.000 OA
BRANCH  10  29
ATOM     11  C   UNL     1      64.282  52.083  58.209  0.00  0.00    +0.000 C 
ATOM     12  C   UNL     1      64.672  53.531  58.611  0.00  0.00    +0.000 C 
ATOM     13  C   UNL     1      66.104  53.647  59.193  0.00  0.00    +0.000 C 
ATOM     14  C   UNL     1      65.342  51.356  57.334  0.00  0.00    +0.000 C 
ATOM     15  C   UNL     1      66.499  55.126  59.597  0.00  0.00    +0.000 C 
ATOM     16  C   UNL     1      65.376  55.758  60.484  0.00  0.00    +0.000 C 
ATOM     17  C   UNL     1      67.113  52.975  58.239  0.00  0.00    +0.000 C 
ATOM     18  C   UNL     1      66.752  51.517  57.953  0.00  0.00    +0.000 C 
ATOM     19  C   UNL     1      64.835  49.880  57.405  0.00  0.00    +0.000 C 
ATOM     20  C   UNL     1      63.647  54.139  59.581  0.00  0.00    +0.000 C 
ATOM     21  C   UNL     1      64.061  51.122  59.391  0.00  0.00    +0.000 C 
ATOM     22  C   UNL     1      63.971  55.594  59.879  0.00  0.00    +0.000 C 
ATOM     23  C   UNL     1      64.369  49.715  58.866  0.00  0.00    +0.000 C 
ATOM     24  C   UNL     1      66.752  56.024  58.354  0.00  0.00    +0.000 C 
ATOM     25  C   UNL     1      65.626  57.249  60.792  0.00  0.00    +0.000 C 
ATOM     26  C   UNL     1      65.355  51.869  55.880  0.00  0.00    +0.000 C 
ATOM     27  C   UNL     1      67.809  55.058  60.432  0.00  0.00    +0.000 C 
ATOM     28  C   UNL     1      66.994  57.494  58.695  0.00  0.00    +0.000 C 
ATOM     29  C   UNL     1      65.865  58.090  59.534  0.00  0.00    +0.000 C 
BRANCH  19  32
ATOM     30  O   UNL     1      66.522  47.115  55.530  0.00  0.00    +0.000 OA
ATOM     31  O   UNL     1      68.380  46.613  56.782  0.00  0.00    +0.000 OA
ATOM     32  C   UNL     1      65.764  48.810  56.896  0.00  0.00    +0.000 C 
ATOM     33  C   UNL     1      65.463  48.064  55.649  0.00  0.00    +0.000 C 
ATOM     34  C   UNL     1      66.876  48.327  57.451  0.00  0.00    +0.000 C 
ATOM     35  C   UNL     1      67.369  47.260  56.582  0.00  0.00    +0.000 C 
ENDBRANCH  19  32
BRANCH  11  36
ATOM     36  O   UNL     1      63.030  52.125  57.502  0.00  0.00    +0.000 OA
ATOM     37  H   UNL     1      63.180  52.529  56.630  0.00  0.00    +0.000 HD
ENDBRANCH  11  36
ENDBRANCH  10  29
ENDBRANCH   2  10
BRANCH   6  38
ATOM     38  O   UNL     1      69.821  59.817  63.758  0.00  0.00    +0.000 OA
BRANCH  38  40
ATOM     39  O   UNL     1      70.318  57.822  64.943  0.00  0.00    +0.000 OA
ATOM     40  C   UNL     1      69.911  58.401  63.710  0.00  0.00    +0.000 C 
ATOM     41  C   UNL     1      70.696  57.826  62.535  0.00  0.00    +0.000 C 
ATOM     42  C   UNL     1      71.390  56.513  62.884  0.00  0.00    +0.000 C 
ATOM     43  C   UNL     1      69.958  56.428  65.005  0.00  0.00    +0.000 C 
ATOM     44  C   UNL     1      70.617  55.609  63.866  0.00  0.00    +0.000 C 
ATOM     45  C   UNL     1      70.401  55.921  66.375  0.00  0.00    +0.000 C 
BRANCH  42  46
ATOM     46  O   UNL     1      71.776  55.812  61.703  0.00  0.00    +0.000 OA
ATOM     47  H   UNL     1      71.270  56.174  60.954  0.00  0.00    +0.000 HD
ENDBRANCH  42  46
BRANCH  44  48
ATOM     48  O   UNL     1      69.714  54.642  63.317  0.00  0.00    +0.000 OA
BRANCH  48  50
ATOM     49  O   UNL     1      70.330  53.083  61.672  0.00  0.00    +0.000 OA
ATOM     50  C   UNL     1      70.188  53.324  63.067  0.00  0.00    +0.000 C 
ATOM     51  C   UNL     1      69.137  52.364  63.637  0.00  0.00    +0.000 C 
ATOM     52  C   UNL     1      69.105  51.032  62.891  0.00  0.00    +0.000 C 
ATOM     53  C   UNL     1      70.962  51.822  61.384  0.00  0.00    +0.000 C 
ATOM     54  C   UNL     1      70.480  50.691  62.311  0.00  0.00    +0.000 C 
ATOM     55  C   UNL     1      70.647  51.515  59.924  0.00  0.00    +0.000 C 
BRANCH  52  56
ATOM     56  O   UNL     1      68.712  50.001  63.805  0.00  0.00    +0.000 OA
ATOM     57  H   UNL     1      69.511  49.490  64.030  0.00  0.00    +0.000 HD
ENDBRANCH  52  56
BRANCH  54  58
ATOM     58  O   UNL     1      71.405  50.549  63.403  0.00  0.00    +0.000 OA
ATOM     59  H   UNL     1      70.967  49.955  64.047  0.00  0.00    +0.000 HD
ENDBRANCH  54  58
ENDBRANCH  48  50
ENDBRANCH  44  48
ENDBRANCH  38  40
ENDBRANCH   6  38
TORSDOF 12
ENDMDL
MODEL 9
REMARK VINA RESULT:      -7.6      4.878     11.801
REMARK  Name = 
REMARK  17 active torsions:
REMARK  status: ('A' for Active; 'I' for Inactive)
REMARK    1  A    between atoms: O_1  and  C_14
REMARK    2  A    between atoms: O_2  and  C_32
REMARK    3  A    between atoms: O_2  and  C_36
REMARK    4  A    between atoms: O_6  and  C_39
REMARK    5  A    between atoms: O_7  and  C_41
REMARK    6  A    between atoms: O_7  and  C_43
REMARK    7  A    between atoms: O_9  and  C_47
REMARK    8  A    between atoms: O_9  and  C_49
REMARK    9  A    between atoms: O_10  and  C_45
REMARK   10  A    between atoms: O_12  and  C_51
REMARK   11  A    between atoms: O_13  and  C_53
REMARK   12  A    between atoms: C_17  and  C_29
REMARK   13  A    between atoms: C_18  and  C_30
REMARK   14  A    between atoms: C_22  and  C_33
REMARK   15  A    between atoms: C_40  and  C_42
REMARK   16  A    between atoms: C_46  and  C_48
REMARK   17  A    between atoms: C_52  and  C_54
REMARK                            x       y       z     vdW  Elec       q    Type
REMARK                         _______ _______ _______ _____ _____    ______ ____
ROOT
ATOM      1  O   UNL     1      59.055  39.663  70.561  0.00  0.00    +0.000 OA
ATOM      2  C   UNL     1      58.370  39.469  69.327  0.00  0.00    +0.000 C 
ATOM      3  C   UNL     1      59.207  39.907  68.122  0.00  0.00    +0.000 C 
ATOM      4  C   UNL     1      60.642  40.212  68.522  0.00  0.00    +0.000 C 
ATOM      5  C   UNL     1      60.249  38.877  70.656  0.00  0.00    +0.000 C 
ATOM      6  C   UNL     1      61.243  39.194  69.513  0.00  0.00    +0.000 C 
ATOM      7  C   UNL     1      60.866  39.176  72.022  0.00  0.00    +0.000 C 
ENDROOT
BRANCH   4   8
ATOM      8  O   UNL     1      61.465  40.446  67.385  0.00  0.00    +0.000 OA
ATOM      9  H   UNL     1      61.172  41.300  67.003  0.00  0.00    +0.000 HD
ENDBRANCH   4   8
BRANCH   2  10
ATOM     10  O   UNL     1      57.088  40.097  69.319  0.00  0.00    +0.000 OA
BRANCH  10  29
ATOM     11  C   UNL     1      51.384  36.642  73.329  0.00  0.00    +0.000 C 
ATOM     12  C   UNL     1      52.487  37.327  72.476  0.00  0.00    +0.000 C 
ATOM     13  C   UNL     1      52.134  38.777  72.057  0.00  0.00    +0.000 C 
ATOM     14  C   UNL     1      50.874  37.500  74.521  0.00  0.00    +0.000 C 
ATOM     15  C   UNL     1      53.263  39.474  71.193  0.00  0.00    +0.000 C 
ATOM     16  C   UNL     1      53.692  38.535  70.016  0.00  0.00    +0.000 C 
ATOM     17  C   UNL     1      51.713  39.592  73.298  0.00  0.00    +0.000 C 
ATOM     18  C   UNL     1      50.553  38.939  74.049  0.00  0.00    +0.000 C 
ATOM     19  C   UNL     1      49.588  36.715  74.933  0.00  0.00    +0.000 C 
ATOM     20  C   UNL     1      52.846  36.484  71.243  0.00  0.00    +0.000 C 
ATOM     21  C   UNL     1      50.100  36.287  72.558  0.00  0.00    +0.000 C 
ATOM     22  C   UNL     1      54.005  37.101  70.477  0.00  0.00    +0.000 C 
ATOM     23  C   UNL     1      48.964  36.289  73.588  0.00  0.00    +0.000 C 
ATOM     24  C   UNL     1      54.508  39.845  72.047  0.00  0.00    +0.000 C 
ATOM     25  C   UNL     1      54.892  39.088  69.220  0.00  0.00    +0.000 C 
ATOM     26  C   UNL     1      51.888  37.552  75.682  0.00  0.00    +0.000 C 
ATOM     27  C   UNL     1      52.667  40.778  70.593  0.00  0.00    +0.000 C 
ATOM     28  C   UNL     1      55.678  40.386  71.226  0.00  0.00    +0.000 C 
ATOM     29  C   UNL     1      56.093  39.434  70.106  0.00  0.00    +0.000 C 
BRANCH  19  32
ATOM     30  O   UNL     1      47.587  37.819  77.897  0.00  0.00    +0.000 OA
ATOM     31  O   UNL     1      46.140  39.397  77.067  0.00  0.00    +0.000 OA
ATOM     32  C   UNL     1      48.650  37.393  75.895  0.00  0.00    +0.000 C 
ATOM     33  C   UNL     1      48.622  37.017  77.331  0.00  0.00    +0.000 C 
ATOM     34  C   UNL     1      47.710  38.308  75.654  0.00  0.00    +0.000 C 
ATOM     35  C   UNL     1      47.042  38.593  76.922  0.00  0.00    +0.000 C 
ENDBRANCH  19  32
BRANCH  11  36
ATOM     36  O   UNL     1      51.898  35.395  73.826  0.00  0.00    +0.000 OA
ATOM     37  H   UNL     1      52.026  35.473  74.786  0.00  0.00    +0.000 HD
ENDBRANCH  11  36
ENDBRANCH  10  29
ENDBRANCH   2  10
BRANCH   6  38
ATOM     38  O   UNL     1      61.908  38.022  69.031  0.00  0.00    +0.000 OA
BRANCH  38  40
ATOM     39  O   UNL     1      60.604  36.067  68.698  0.00  0.00    +0.000 OA
ATOM     40  C   UNL     1      61.372  37.099  68.094  0.00  0.00    +0.000 C 
ATOM     41  C   UNL     1      62.360  36.541  67.075  0.00  0.00    +0.000 C 
ATOM     42  C   UNL     1      62.008  35.121  66.640  0.00  0.00    +0.000 C 
ATOM     43  C   UNL     1      59.720  35.450  67.742  0.00  0.00    +0.000 C 
ATOM     44  C   UNL     1      60.498  34.821  66.558  0.00  0.00    +0.000 C 
ATOM     45  C   UNL     1      58.922  34.392  68.500  0.00  0.00    +0.000 C 
BRANCH  42  46
ATOM     46  O   UNL     1      62.689  34.775  65.435  0.00  0.00    +0.000 OA
ATOM     47  H   UNL     1      63.629  34.632  65.645  0.00  0.00    +0.000 HD
ENDBRANCH  42  46
BRANCH  44  48
ATOM     48  O   UNL     1      59.837  35.049  65.307  0.00  0.00    +0.000 OA
BRANCH  48  50
ATOM     49  O   UNL     1      57.576  34.474  65.038  0.00  0.00    +0.000 OA
ATOM     50  C   UNL     1      58.496  35.524  65.316  0.00  0.00    +0.000 C 
ATOM     51  C   UNL     1      58.397  36.582  64.212  0.00  0.00    +0.000 C 
ATOM     52  C   UNL     1      56.991  36.677  63.625  0.00  0.00    +0.000 C 
ATOM     53  C   UNL     1      56.203  34.876  65.200  0.00  0.00    +0.000 C 
ATOM     54  C   UNL     1      55.933  36.293  64.662  0.00  0.00    +0.000 C 
ATOM     55  C   UNL     1      55.368  33.835  64.462  0.00  0.00    +0.000 C 
BRANCH  52  56
ATOM     56  O   UNL     1      56.760  38.024  63.195  0.00  0.00    +0.000 OA
ATOM     57  H   UNL     1      57.626  38.470  63.152  0.00  0.00    +0.000 HD
ENDBRANCH  52  56
BRANCH  54  58
ATOM     58  O   UNL     1      56.008  37.233  65.749  0.00  0.00    +0.000 OA
ATOM     59  H   UNL     1      56.647  37.919  65.463  0.00  0.00    +0.000 HD
ENDBRANCH  54  58
ENDBRANCH  48  50
ENDBRANCH  44  48
ENDBRANCH  38  40
ENDBRANCH   6  38
TORSDOF 12
ENDMDL
