MODEL 1
REMARK VINA RESULT:      -6.5      0.000      0.000
REMARK  Name = CHEMBL35349.pdbqt.pdb
REMARK  2 active torsions:
REMARK  status: ('A' for Active; 'I' for Inactive)
REMARK    1  A    between atoms: C_2  and  C_11
REMARK    2  A    between atoms: C_5  and  O_21
REMARK                            x       y       z     vdW  Elec       q    Type
REMARK                         _______ _______ _______ _____ _____    ______ ____
ROOT
ATOM      1  N   UNL     1      59.790  57.514  61.163  0.00  0.00    +0.000 N 
ATOM      2  C   UNL     1      61.013  55.864  60.288  0.00  0.00    +0.000 A 
ATOM      3  C   UNL     1      61.433  57.118  59.722  0.00  0.00    +0.000 A 
ATOM      4  C   UNL     1      60.651  58.123  60.287  0.00  0.00    +0.000 A 
ATOM      5  C   UNL     1      59.991  56.160  61.178  0.00  0.00    +0.000 A 
ATOM      6  C   UNL     1      62.409  57.489  58.775  0.00  0.00    +0.000 A 
ATOM      7  C   UNL     1      60.789  59.477  59.962  0.00  0.00    +0.000 A 
ATOM      8  C   UNL     1      62.565  58.834  58.436  0.00  0.00    +0.000 A 
ATOM      9  C   UNL     1      61.765  59.808  59.022  0.00  0.00    +0.000 A 
ATOM     10  H   UNL     1      59.098  57.986  61.726  0.00  0.00    +0.000 HD
ENDROOT
BRANCH   2  11
ATOM     11  C   UNL     1      61.550  54.556  59.990  0.00  0.00    +0.000 C 
ATOM     12  N   UNL     1      60.787  53.527  59.725  0.00  0.00    +0.000 NA
ATOM     13  C   UNL     1      61.651  52.440  59.488  0.00  0.00    +0.000 A 
ATOM     14  C   UNL     1      63.003  52.757  59.597  0.00  0.00    +0.000 A 
ATOM     15  C   UNL     1      61.280  51.146  59.169  0.00  0.00    +0.000 A 
ATOM     16  C   UNL     1      63.025  54.166  59.934  0.00  0.00    +0.000 C 
ATOM     17  C   UNL     1      64.028  51.856  59.409  0.00  0.00    +0.000 A 
ATOM     18  O   UNL     1      63.971  54.892  60.132  0.00  0.00    +0.000 OA
ATOM     19  C   UNL     1      63.649  50.554  59.089  0.00  0.00    +0.000 A 
ATOM     20  C   UNL     1      62.293  50.202  58.971  0.00  0.00    +0.000 A 
ENDBRANCH   2  11
BRANCH   5  21
ATOM     21  O   UNL     1      59.225  55.435  61.985  0.00  0.00    +0.000 OA
ATOM     22  H   UNL     1      59.747  55.123  62.759  0.00  0.00    +0.000 HD
ENDBRANCH   5  21
TORSDOF 2
ENDMDL
MODEL 2
REMARK VINA RESULT:      -6.1     22.325     24.397
REMARK  Name = CHEMBL35349.pdbqt.pdb
REMARK  2 active torsions:
REMARK  status: ('A' for Active; 'I' for Inactive)
REMARK    1  A    between atoms: C_2  and  C_11
REMARK    2  A    between atoms: C_5  and  O_21
REMARK                            x       y       z     vdW  Elec       q    Type
REMARK                         _______ _______ _______ _____ _____    ______ ____
ROOT
ATOM      1  N   UNL     1      46.267  44.491  71.789  0.00  0.00    +0.000 N 
ATOM      2  C   UNL     1      44.789  43.257  70.658  0.00  0.00    +0.000 A 
ATOM      3  C   UNL     1      44.978  42.691  71.967  0.00  0.00    +0.000 A 
ATOM      4  C   UNL     1      45.904  43.483  72.643  0.00  0.00    +0.000 A 
ATOM      5  C   UNL     1      45.610  44.374  70.593  0.00  0.00    +0.000 A 
ATOM      6  C   UNL     1      44.445  41.573  72.638  0.00  0.00    +0.000 A 
ATOM      7  C   UNL     1      46.326  43.222  73.951  0.00  0.00    +0.000 A 
ATOM      8  C   UNL     1      44.851  41.293  73.944  0.00  0.00    +0.000 A 
ATOM      9  C   UNL     1      45.777  42.107  74.586  0.00  0.00    +0.000 A 
ATOM     10  H   UNL     1      46.927  45.226  71.998  0.00  0.00    +0.000 HD
ENDROOT
BRANCH   2  11
ATOM     11  C   UNL     1      43.917  42.761  69.618  0.00  0.00    +0.000 C 
ATOM     12  N   UNL     1      42.613  42.789  69.722  0.00  0.00    +0.000 NA
ATOM     13  C   UNL     1      42.106  42.230  68.532  0.00  0.00    +0.000 A 
ATOM     14  C   UNL     1      43.089  41.829  67.632  0.00  0.00    +0.000 A 
ATOM     15  C   UNL     1      40.774  42.058  68.205  0.00  0.00    +0.000 A 
ATOM     16  C   UNL     1      44.341  42.151  68.285  0.00  0.00    +0.000 C 
ATOM     17  C   UNL     1      42.830  41.257  66.405  0.00  0.00    +0.000 A 
ATOM     18  O   UNL     1      45.474  41.988  67.895  0.00  0.00    +0.000 OA
ATOM     19  C   UNL     1      41.486  41.085  66.080  0.00  0.00    +0.000 A 
ATOM     20  C   UNL     1      40.470  41.480  66.968  0.00  0.00    +0.000 A 
ENDBRANCH   2  11
BRANCH   5  21
ATOM     21  O   UNL     1      45.863  45.286  69.662  0.00  0.00    +0.000 OA
ATOM     22  H   UNL     1      45.102  45.904  69.577  0.00  0.00    +0.000 HD
ENDBRANCH   5  21
TORSDOF 2
ENDMDL
MODEL 3
REMARK VINA RESULT:      -5.9     10.438     14.704
REMARK  Name = CHEMBL35349.pdbqt.pdb
REMARK  2 active torsions:
REMARK  status: ('A' for Active; 'I' for Inactive)
REMARK    1  A    between atoms: C_2  and  C_11
REMARK    2  A    between atoms: C_5  and  O_21
REMARK                            x       y       z     vdW  Elec       q    Type
REMARK                         _______ _______ _______ _____ _____    ______ ____
ROOT
ATOM      1  N   UNL     1      62.394  40.521  52.169  0.00  0.00    +0.000 N 
ATOM      2  C   UNL     1      62.958  42.256  53.456  0.00  0.00    +0.000 A 
ATOM      3  C   UNL     1      62.330  41.248  54.267  0.00  0.00    +0.000 A 
ATOM      4  C   UNL     1      61.991  40.183  53.435  0.00  0.00    +0.000 A 
ATOM      5  C   UNL     1      62.975  41.761  52.160  0.00  0.00    +0.000 A 
ATOM      6  C   UNL     1      62.017  41.145  55.637  0.00  0.00    +0.000 A 
ATOM      7  C   UNL     1      61.359  39.022  53.893  0.00  0.00    +0.000 A 
ATOM      8  C   UNL     1      61.387  39.995  56.117  0.00  0.00    +0.000 A 
ATOM      9  C   UNL     1      61.066  38.953  55.255  0.00  0.00    +0.000 A 
ATOM     10  H   UNL     1      62.283  39.946  51.346  0.00  0.00    +0.000 HD
ENDROOT
BRANCH   2  11
ATOM     11  C   UNL     1      63.469  43.532  53.903  0.00  0.00    +0.000 C 
ATOM     12  N   UNL     1      64.737  43.730  54.158  0.00  0.00    +0.000 NA
ATOM     13  C   UNL     1      64.857  45.075  54.563  0.00  0.00    +0.000 A 
ATOM     14  C   UNL     1      63.651  45.772  54.574  0.00  0.00    +0.000 A 
ATOM     15  C   UNL     1      66.020  45.723  54.932  0.00  0.00    +0.000 A 
ATOM     16  C   UNL     1      62.662  44.806  54.141  0.00  0.00    +0.000 C 
ATOM     17  C   UNL     1      63.525  47.096  54.934  0.00  0.00    +0.000 A 
ATOM     18  O   UNL     1      61.470  44.942  53.994  0.00  0.00    +0.000 OA
ATOM     19  C   UNL     1      64.701  47.745  55.305  0.00  0.00    +0.000 A 
ATOM     20  C   UNL     1      65.933  47.069  55.305  0.00  0.00    +0.000 A 
ENDBRANCH   2  11
BRANCH   5  21
ATOM     21  O   UNL     1      63.416  42.223  50.996  0.00  0.00    +0.000 OA
ATOM     22  H   UNL     1      63.404  43.208  50.996  0.00  0.00    +0.000 HD
ENDBRANCH   5  21
TORSDOF 2
ENDMDL
MODEL 4
REMARK VINA RESULT:      -5.7      9.037     11.580
REMARK  Name = CHEMBL35349.pdbqt.pdb
REMARK  2 active torsions:
REMARK  status: ('A' for Active; 'I' for Inactive)
REMARK    1  A    between atoms: C_2  and  C_11
REMARK    2  A    between atoms: C_5  and  O_21
REMARK                            x       y       z     vdW  Elec       q    Type
REMARK                         _______ _______ _______ _____ _____    ______ ____
ROOT
ATOM      1  N   UNL     1      69.562  56.593  63.060  0.00  0.00    +0.000 N 
ATOM      2  C   UNL     1      69.081  58.527  64.067  0.00  0.00    +0.000 A 
ATOM      3  C   UNL     1      69.619  57.609  65.035  0.00  0.00    +0.000 A 
ATOM      4  C   UNL     1      69.906  56.415  64.375  0.00  0.00    +0.000 A 
ATOM      5  C   UNL     1      69.064  57.852  62.855  0.00  0.00    +0.000 A 
ATOM      6  C   UNL     1      69.886  57.685  66.416  0.00  0.00    +0.000 A 
ATOM      7  C   UNL     1      70.445  55.295  65.016  0.00  0.00    +0.000 A 
ATOM      8  C   UNL     1      70.425  56.579  67.077  0.00  0.00    +0.000 A 
ATOM      9  C   UNL     1      70.698  55.406  66.384  0.00  0.00    +0.000 A 
ATOM     10  H   UNL     1      69.655  55.899  62.332  0.00  0.00    +0.000 HD
ENDROOT
BRANCH   2  11
ATOM     11  C   UNL     1      68.646  59.884  64.309  0.00  0.00    +0.000 C 
ATOM     12  N   UNL     1      67.404  60.262  64.146  0.00  0.00    +0.000 NA
ATOM     13  C   UNL     1      67.358  61.632  64.472  0.00  0.00    +0.000 A 
ATOM     14  C   UNL     1      68.587  62.164  64.854  0.00  0.00    +0.000 A 
ATOM     15  C   UNL     1      66.244  62.450  64.443  0.00  0.00    +0.000 A 
ATOM     16  C   UNL     1      69.512  61.052  64.772  0.00  0.00    +0.000 C 
ATOM     17  C   UNL     1      68.784  63.478  65.216  0.00  0.00    +0.000 A 
ATOM     18  O   UNL     1      70.697  61.021  65.008  0.00  0.00    +0.000 OA
ATOM     19  C   UNL     1      67.658  64.298  65.184  0.00  0.00    +0.000 A 
ATOM     20  C   UNL     1      66.403  63.792  64.803  0.00  0.00    +0.000 A 
ENDBRANCH   2  11
BRANCH   5  21
ATOM     21  O   UNL     1      68.688  58.169  61.622  0.00  0.00    +0.000 OA
ATOM     22  H   UNL     1      68.029  58.900  61.646  0.00  0.00    +0.000 HD
ENDBRANCH   5  21
TORSDOF 2
ENDMDL
MODEL 5
REMARK VINA RESULT:      -5.7     22.761     24.095
REMARK  Name = CHEMBL35349.pdbqt.pdb
REMARK  2 active torsions:
REMARK  status: ('A' for Active; 'I' for Inactive)
REMARK    1  A    between atoms: C_2  and  C_11
REMARK    2  A    between atoms: C_5  and  O_21
REMARK                            x       y       z     vdW  Elec       q    Type
REMARK                         _______ _______ _______ _____ _____    ______ ____
ROOT
ATOM      1  N   UNL     1      46.009  44.738  71.904  0.00  0.00    +0.000 N 
ATOM      2  C   UNL     1      44.933  43.350  70.525  0.00  0.00    +0.000 A 
ATOM      3  C   UNL     1      45.952  42.622  71.232  0.00  0.00    +0.000 A 
ATOM      4  C   UNL     1      46.603  43.515  72.081  0.00  0.00    +0.000 A 
ATOM      5  C   UNL     1      45.006  44.660  70.975  0.00  0.00    +0.000 A 
ATOM      6  C   UNL     1      46.381  41.279  71.225  0.00  0.00    +0.000 A 
ATOM      7  C   UNL     1      47.657  43.144  72.923  0.00  0.00    +0.000 A 
ATOM      8  C   UNL     1      47.431  40.886  72.058  0.00  0.00    +0.000 A 
ATOM      9  C   UNL     1      48.055  41.807  72.891  0.00  0.00    +0.000 A 
ATOM     10  H   UNL     1      46.266  45.588  72.385  0.00  0.00    +0.000 HD
ENDROOT
BRANCH   2  11
ATOM     11  C   UNL     1      44.015  42.822  69.541  0.00  0.00    +0.000 C 
ATOM     12  N   UNL     1      44.414  42.108  68.521  0.00  0.00    +0.000 NA
ATOM     13  C   UNL     1      43.256  41.774  67.790  0.00  0.00    +0.000 A 
ATOM     14  C   UNL     1      42.078  42.276  68.338  0.00  0.00    +0.000 A 
ATOM     15  C   UNL     1      43.201  41.024  66.630  0.00  0.00    +0.000 A 
ATOM     16  C   UNL     1      42.499  42.996  69.522  0.00  0.00    +0.000 C 
ATOM     17  C   UNL     1      40.826  42.078  67.797  0.00  0.00    +0.000 A 
ATOM     18  O   UNL     1      41.833  43.604  70.328  0.00  0.00    +0.000 OA
ATOM     19  C   UNL     1      40.776  41.322  66.628  0.00  0.00    +0.000 A 
ATOM     20  C   UNL     1      41.947  40.801  66.050  0.00  0.00    +0.000 A 
ENDBRANCH   2  11
BRANCH   5  21
ATOM     21  O   UNL     1      44.338  45.775  70.700  0.00  0.00    +0.000 OA
ATOM     22  H   UNL     1      44.849  46.560  71.003  0.00  0.00    +0.000 HD
ENDBRANCH   5  21
TORSDOF 2
ENDMDL
MODEL 6
REMARK VINA RESULT:      -5.6     22.022     24.186
REMARK  Name = CHEMBL35349.pdbqt.pdb
REMARK  2 active torsions:
REMARK  status: ('A' for Active; 'I' for Inactive)
REMARK    1  A    between atoms: C_2  and  C_11
REMARK    2  A    between atoms: C_5  and  O_21
REMARK                            x       y       z     vdW  Elec       q    Type
REMARK                         _______ _______ _______ _____ _____    ______ ____
ROOT
ATOM      1  N   UNL     1      45.422  36.832  61.744  0.00  0.00    +0.000 N 
ATOM      2  C   UNL     1      47.472  35.947  61.758  0.00  0.00    +0.000 A 
ATOM      3  C   UNL     1      46.534  34.979  62.258  0.00  0.00    +0.000 A 
ATOM      4  C   UNL     1      45.269  35.562  62.237  0.00  0.00    +0.000 A 
ATOM      5  C   UNL     1      46.736  37.083  61.452  0.00  0.00    +0.000 A 
ATOM      6  C   UNL     1      46.648  33.656  62.730  0.00  0.00    +0.000 A 
ATOM      7  C   UNL     1      44.111  34.899  62.659  0.00  0.00    +0.000 A 
ATOM      8  C   UNL     1      45.506  32.974  63.155  0.00  0.00    +0.000 A 
ATOM      9  C   UNL     1      44.260  33.590  63.118  0.00  0.00    +0.000 A 
ATOM     10  H   UNL     1      44.679  37.502  61.611  0.00  0.00    +0.000 HD
ENDROOT
BRANCH   2  11
ATOM     11  C   UNL     1      48.899  35.772  61.604  0.00  0.00    +0.000 C 
ATOM     12  N   UNL     1      49.462  35.588  60.438  0.00  0.00    +0.000 NA
ATOM     13  C   UNL     1      50.845  35.459  60.679  0.00  0.00    +0.000 A 
ATOM     14  C   UNL     1      51.197  35.560  62.022  0.00  0.00    +0.000 A 
ATOM     15  C   UNL     1      51.830  35.251  59.732  0.00  0.00    +0.000 A 
ATOM     16  C   UNL     1      49.943  35.772  62.717  0.00  0.00    +0.000 C 
ATOM     17  C   UNL     1      52.487  35.465  62.495  0.00  0.00    +0.000 A 
ATOM     18  O   UNL     1      49.737  35.918  63.899  0.00  0.00    +0.000 OA
ATOM     19  C   UNL     1      53.477  35.255  61.536  0.00  0.00    +0.000 A 
ATOM     20  C   UNL     1      53.154  35.149  60.172  0.00  0.00    +0.000 A 
ENDBRANCH   2  11
BRANCH   5  21
ATOM     21  O   UNL     1      47.038  38.280  60.963  0.00  0.00    +0.000 OA
ATOM     22  H   UNL     1      47.624  38.188  60.178  0.00  0.00    +0.000 HD
ENDBRANCH   5  21
TORSDOF 2
ENDMDL
MODEL 7
REMARK VINA RESULT:      -5.6     13.132     15.307
REMARK  Name = CHEMBL35349.pdbqt.pdb
REMARK  2 active torsions:
REMARK  status: ('A' for Active; 'I' for Inactive)
REMARK    1  A    between atoms: C_2  and  C_11
REMARK    2  A    between atoms: C_5  and  O_21
REMARK                            x       y       z     vdW  Elec       q    Type
REMARK                         _______ _______ _______ _____ _____    ______ ____
ROOT
ATOM      1  N   UNL     1      62.147  43.834  51.817  0.00  0.00    +0.000 N 
ATOM      2  C   UNL     1      62.510  42.132  53.217  0.00  0.00    +0.000 A 
ATOM      3  C   UNL     1      63.531  43.127  53.404  0.00  0.00    +0.000 A 
ATOM      4  C   UNL     1      63.276  44.171  52.517  0.00  0.00    +0.000 A 
ATOM      5  C   UNL     1      61.672  42.614  52.221  0.00  0.00    +0.000 A 
ATOM      6  C   UNL     1      64.654  43.234  54.249  0.00  0.00    +0.000 A 
ATOM      7  C   UNL     1      64.077  45.315  52.427  0.00  0.00    +0.000 A 
ATOM      8  C   UNL     1      65.467  44.366  54.177  0.00  0.00    +0.000 A 
ATOM      9  C   UNL     1      65.179  45.387  53.279  0.00  0.00    +0.000 A 
ATOM     10  H   UNL     1      61.714  44.395  51.099  0.00  0.00    +0.000 HD
ENDROOT
BRANCH   2  11
ATOM     11  C   UNL     1      62.380  40.880  53.926  0.00  0.00    +0.000 C 
ATOM     12  N   UNL     1      61.435  40.665  54.805  0.00  0.00    +0.000 NA
ATOM     13  C   UNL     1      61.625  39.352  55.281  0.00  0.00    +0.000 A 
ATOM     14  C   UNL     1      62.710  38.693  54.708  0.00  0.00    +0.000 A 
ATOM     15  C   UNL     1      60.856  38.698  56.226  0.00  0.00    +0.000 A 
ATOM     16  C   UNL     1      63.276  39.653  53.782  0.00  0.00    +0.000 C 
ATOM     17  C   UNL     1      63.088  37.405  55.018  0.00  0.00    +0.000 A 
ATOM     18  O   UNL     1      64.233  39.541  53.051  0.00  0.00    +0.000 OA
ATOM     19  C   UNL     1      62.309  36.751  55.972  0.00  0.00    +0.000 A 
ATOM     20  C   UNL     1      61.208  37.388  56.569  0.00  0.00    +0.000 A 
ENDBRANCH   2  11
BRANCH   5  21
ATOM     21  O   UNL     1      60.577  42.155  51.628  0.00  0.00    +0.000 OA
ATOM     22  H   UNL     1      60.695  42.157  50.651  0.00  0.00    +0.000 HD
ENDBRANCH   5  21
TORSDOF 2
ENDMDL
MODEL 8
REMARK VINA RESULT:      -5.6     21.801     22.647
REMARK  Name = CHEMBL35349.pdbqt.pdb
REMARK  2 active torsions:
REMARK  status: ('A' for Active; 'I' for Inactive)
REMARK    1  A    between atoms: C_2  and  C_11
REMARK    2  A    between atoms: C_5  and  O_21
REMARK                            x       y       z     vdW  Elec       q    Type
REMARK                         _______ _______ _______ _____ _____    ______ ____
ROOT
ATOM      1  N   UNL     1      52.107  35.656  63.541  0.00  0.00    +0.000 N 
ATOM      2  C   UNL     1      51.869  35.297  61.350  0.00  0.00    +0.000 A 
ATOM      3  C   UNL     1      50.612  35.727  61.900  0.00  0.00    +0.000 A 
ATOM      4  C   UNL     1      50.795  35.941  63.265  0.00  0.00    +0.000 A 
ATOM      5  C   UNL     1      52.768  35.268  62.406  0.00  0.00    +0.000 A 
ATOM      6  C   UNL     1      49.330  35.953  61.359  0.00  0.00    +0.000 A 
ATOM      7  C   UNL     1      49.773  36.368  64.119  0.00  0.00    +0.000 A 
ATOM      8  C   UNL     1      48.294  36.381  62.192  0.00  0.00    +0.000 A 
ATOM      9  C   UNL     1      48.517  36.583  63.550  0.00  0.00    +0.000 A 
ATOM     10  H   UNL     1      52.541  35.719  64.451  0.00  0.00    +0.000 HD
ENDROOT
BRANCH   2  11
ATOM     11  C   UNL     1      52.142  34.963  59.971  0.00  0.00    +0.000 C 
ATOM     12  N   UNL     1      52.597  33.790  59.610  0.00  0.00    +0.000 NA
ATOM     13  C   UNL     1      52.738  33.832  58.208  0.00  0.00    +0.000 A 
ATOM     14  C   UNL     1      52.372  35.049  57.638  0.00  0.00    +0.000 A 
ATOM     15  C   UNL     1      53.191  32.810  57.395  0.00  0.00    +0.000 A 
ATOM     16  C   UNL     1      51.956  35.870  58.758  0.00  0.00    +0.000 C 
ATOM     17  C   UNL     1      52.427  35.321  56.289  0.00  0.00    +0.000 A 
ATOM     18  O   UNL     1      51.553  37.009  58.765  0.00  0.00    +0.000 OA
ATOM     19  C   UNL     1      52.883  34.288  55.473  0.00  0.00    +0.000 A 
ATOM     20  C   UNL     1      53.261  33.048  56.018  0.00  0.00    +0.000 A 
ENDBRANCH   2  11
BRANCH   5  21
ATOM     21  O   UNL     1      54.054  34.959  62.521  0.00  0.00    +0.000 OA
ATOM     22  H   UNL     1      54.289  34.242  61.889  0.00  0.00    +0.000 HD
ENDBRANCH   5  21
TORSDOF 2
ENDMDL
MODEL 9
REMARK VINA RESULT:      -5.6     18.643     19.781
REMARK  Name = CHEMBL35349.pdbqt.pdb
REMARK  2 active torsions:
REMARK  status: ('A' for Active; 'I' for Inactive)
REMARK    1  A    between atoms: C_2  and  C_11
REMARK    2  A    between atoms: C_5  and  O_21
REMARK                            x       y       z     vdW  Elec       q    Type
REMARK                         _______ _______ _______ _____ _____    ______ ____
ROOT
ATOM      1  N   UNL     1      66.169  37.420  66.867  0.00  0.00    +0.000 N 
ATOM      2  C   UNL     1      66.625  38.763  68.592  0.00  0.00    +0.000 A 
ATOM      3  C   UNL     1      67.711  38.814  67.649  0.00  0.00    +0.000 A 
ATOM      4  C   UNL     1      67.395  37.967  66.589  0.00  0.00    +0.000 A 
ATOM      5  C   UNL     1      65.691  37.884  68.063  0.00  0.00    +0.000 A 
ATOM      6  C   UNL     1      68.937  39.506  67.604  0.00  0.00    +0.000 A 
ATOM      7  C   UNL     1      68.233  37.772  65.487  0.00  0.00    +0.000 A 
ATOM      8  C   UNL     1      69.790  39.328  66.513  0.00  0.00    +0.000 A 
ATOM      9  C   UNL     1      69.439  38.474  65.474  0.00  0.00    +0.000 A 
ATOM     10  H   UNL     1      65.675  36.764  66.280  0.00  0.00    +0.000 HD
ENDROOT
BRANCH   2  11
ATOM     11  C   UNL     1      66.527  39.484  69.840  0.00  0.00    +0.000 C 
ATOM     12  N   UNL     1      67.381  39.316  70.817  0.00  0.00    +0.000 NA
ATOM     13  C   UNL     1      66.971  40.174  71.857  0.00  0.00    +0.000 A 
ATOM     14  C   UNL     1      65.832  40.917  71.561  0.00  0.00    +0.000 A 
ATOM     15  C   UNL     1      67.582  40.328  73.087  0.00  0.00    +0.000 A 
ATOM     16  C   UNL     1      65.466  40.513  70.219  0.00  0.00    +0.000 C 
ATOM     17  C   UNL     1      65.249  41.820  72.424  0.00  0.00    +0.000 A 
ATOM     18  O   UNL     1      64.543  40.883  69.531  0.00  0.00    +0.000 OA
ATOM     19  C   UNL     1      65.869  41.971  73.663  0.00  0.00    +0.000 A 
ATOM     20  C   UNL     1      67.020  41.236  73.992  0.00  0.00    +0.000 A 
ENDBRANCH   2  11
BRANCH   5  21
ATOM     21  O   UNL     1      64.506  37.438  68.464  0.00  0.00    +0.000 OA
ATOM     22  H   UNL     1      64.617  36.634  69.021  0.00  0.00    +0.000 HD
ENDBRANCH   5  21
TORSDOF 2
ENDMDL
