MODEL 1
REMARK VINA RESULT:      -7.0      0.000      0.000
REMARK  Name = Chlortetracycline.pdbqt.pdb
REMARK  7 active torsions:
REMARK  status: ('A' for Active; 'I' for Inactive)
REMARK    1  A    between atoms: C_7  and  O_30
REMARK    2  A    between atoms: C_8  and  N_32
REMARK    3  A    between atoms: C_9  and  O_37
REMARK    4  A    between atoms: C_12  and  O_28
REMARK    5  A    between atoms: C_15  and  O_35
REMARK    6  A    between atoms: C_16  and  C_23
REMARK    7  A    between atoms: C_20  and  O_39
REMARK                            x       y       z     vdW  Elec       q    Type
REMARK                         _______ _______ _______ _____ _____    ______ ____
ROOT
ATOM      1 CL   UNL     1      68.138  37.526  70.907  0.00  0.00    +0.000 Cl
ATOM      2  O   UNL     1      62.112  41.679  68.124  0.00  0.00    +0.000 OA
ATOM      3  O   UNL     1      60.167  35.900  69.024  0.00  0.00    +0.000 OA
ATOM      4  C   UNL     1      62.143  38.061  67.211  0.00  0.00    +0.000 C 
ATOM      5  C   UNL     1      64.172  38.726  68.762  0.00  0.00    +0.000 C 
ATOM      6  C   UNL     1      63.375  37.957  67.890  0.00  0.00    +0.000 C 
ATOM      7  C   UNL     1      61.485  39.408  67.393  0.00  0.00    +0.000 C 
ATOM      8  C   UNL     1      61.252  36.915  67.172  0.00  0.00    +0.000 C 
ATOM      9  C   UNL     1      65.564  38.417  69.238  0.00  0.00    +0.000 C 
ATOM     10  C   UNL     1      63.590  40.028  69.009  0.00  0.00    +0.000 C 
ATOM     11  C   UNL     1      62.390  40.472  68.178  0.00  0.00    +0.000 C 
ATOM     12  C   UNL     1      60.142  39.327  68.125  0.00  0.00    +0.000 C 
ATOM     13  C   UNL     1      65.989  39.232  70.450  0.00  0.00    +0.000 A 
ATOM     14  C   UNL     1      60.280  36.879  68.300  0.00  0.00    +0.000 C 
ATOM     15  C   UNL     1      64.118  40.849  69.935  0.00  0.00    +0.000 C 
ATOM     16  C   UNL     1      59.584  38.177  68.570  0.00  0.00    +0.000 C 
ATOM     17  C   UNL     1      65.253  40.405  70.802  0.00  0.00    +0.000 A 
ATOM     18  C   UNL     1      66.535  38.612  68.055  0.00  0.00    +0.000 C 
ATOM     19  C   UNL     1      67.103  38.870  71.244  0.00  0.00    +0.000 A 
ATOM     20  C   UNL     1      65.630  41.105  71.970  0.00  0.00    +0.000 A 
ATOM     21  C   UNL     1      67.462  39.607  72.368  0.00  0.00    +0.000 A 
ATOM     22  C   UNL     1      66.721  40.712  72.740  0.00  0.00    +0.000 A 
ENDROOT
BRANCH  16  23
ATOM     23  C   UNL     1      58.250  38.130  69.232  0.00  0.00    +0.000 C 
ATOM     24  O   UNL     1      57.234  38.527  68.677  0.00  0.00    +0.000 OA
ATOM     25  N   UNL     1      58.206  37.638  70.500  0.00  0.00    +0.000 N 
ATOM     26  H   UNL     1      59.055  37.578  71.052  0.00  0.00    +0.000 HD
ATOM     27  H   UNL     1      57.325  37.716  70.990  0.00  0.00    +0.000 HD
ENDBRANCH  16  23
BRANCH   8  28
ATOM     28  N   UNL     1      60.913  36.265  65.934  0.00  0.00    +0.000 NA
ATOM     29  C   UNL     1      61.300  34.863  65.875  0.00  0.00    +0.000 C 
ATOM     30  C   UNL     1      59.509  36.357  65.589  0.00  0.00    +0.000 C 
ENDBRANCH   8  28
BRANCH  12  31
ATOM     31  O   UNL     1      59.459  40.541  68.247  0.00  0.00    +0.000 OA
ATOM     32  H   UNL     1      59.297  40.709  69.204  0.00  0.00    +0.000 HD
ENDBRANCH  12  31
BRANCH   7  33
ATOM     33  O   UNL     1      61.162  39.923  66.101  0.00  0.00    +0.000 OA
ATOM     34  H   UNL     1      60.979  39.168  65.511  0.00  0.00    +0.000 HD
ENDBRANCH   7  33
BRANCH  15  35
ATOM     35  O   UNL     1      63.675  42.139  70.135  0.00  0.00    +0.000 OA
ATOM     36  H   UNL     1      64.387  42.687  70.528  0.00  0.00    +0.000 HD
ENDBRANCH  15  35
BRANCH   9  37
ATOM     37  O   UNL     1      65.574  37.036  69.540  0.00  0.00    +0.000 OA
ATOM     38  H   UNL     1      64.723  36.937  70.006  0.00  0.00    +0.000 HD
ENDBRANCH   9  37
BRANCH  20  39
ATOM     39  O   UNL     1      64.910  42.177  72.425  0.00  0.00    +0.000 OA
ATOM     40  H   UNL     1      64.241  42.423  71.763  0.00  0.00    +0.000 HD
ENDBRANCH  20  39
TORSDOF 7
ENDMDL
MODEL 2
REMARK VINA RESULT:      -6.8     13.441     15.590
REMARK  Name = Chlortetracycline.pdbqt.pdb
REMARK  7 active torsions:
REMARK  status: ('A' for Active; 'I' for Inactive)
REMARK    1  A    between atoms: C_7  and  O_30
REMARK    2  A    between atoms: C_8  and  N_32
REMARK    3  A    between atoms: C_9  and  O_37
REMARK    4  A    between atoms: C_12  and  O_28
REMARK    5  A    between atoms: C_15  and  O_35
REMARK    6  A    between atoms: C_16  and  C_23
REMARK    7  A    between atoms: C_20  and  O_39
REMARK                            x       y       z     vdW  Elec       q    Type
REMARK                         _______ _______ _______ _____ _____    ______ ____
ROOT
ATOM      1 CL   UNL     1      67.966  44.525  53.927  0.00  0.00    +0.000 Cl
ATOM      2  O   UNL     1      61.091  41.089  52.435  0.00  0.00    +0.000 OA
ATOM      3  O   UNL     1      64.223  37.448  56.298  0.00  0.00    +0.000 OA
ATOM      4  C   UNL     1      63.937  38.778  53.134  0.00  0.00    +0.000 C 
ATOM      5  C   UNL     1      64.635  41.317  53.306  0.00  0.00    +0.000 C 
ATOM      6  C   UNL     1      64.764  39.916  53.229  0.00  0.00    +0.000 C 
ATOM      7  C   UNL     1      62.473  39.128  53.009  0.00  0.00    +0.000 C 
ATOM      8  C   UNL     1      64.247  37.603  53.929  0.00  0.00    +0.000 C 
ATOM      9  C   UNL     1      65.734  42.341  53.252  0.00  0.00    +0.000 C 
ATOM     10  C   UNL     1      63.250  41.730  53.222  0.00  0.00    +0.000 C 
ATOM     11  C   UNL     1      62.190  40.697  52.852  0.00  0.00    +0.000 C 
ATOM     12  C   UNL     1      61.632  38.631  54.189  0.00  0.00    +0.000 C 
ATOM     13  C   UNL     1      65.311  43.717  53.742  0.00  0.00    +0.000 A 
ATOM     14  C   UNL     1      63.587  37.597  55.265  0.00  0.00    +0.000 C 
ATOM     15  C   UNL     1      62.905  43.014  53.433  0.00  0.00    +0.000 C 
ATOM     16  C   UNL     1      62.131  37.947  55.246  0.00  0.00    +0.000 C 
ATOM     17  C   UNL     1      63.921  44.026  53.858  0.00  0.00    +0.000 A 
ATOM     18  C   UNL     1      66.275  42.394  51.809  0.00  0.00    +0.000 C 
ATOM     19  C   UNL     1      66.255  44.715  54.083  0.00  0.00    +0.000 A 
ATOM     20  C   UNL     1      63.557  45.288  54.377  0.00  0.00    +0.000 A 
ATOM     21  C   UNL     1      65.854  45.960  54.559  0.00  0.00    +0.000 A 
ATOM     22  C   UNL     1      64.511  46.242  54.721  0.00  0.00    +0.000 A 
ENDROOT
BRANCH  16  23
ATOM     23  C   UNL     1      61.275  37.433  56.353  0.00  0.00    +0.000 C 
ATOM     24  O   UNL     1      60.316  38.064  56.779  0.00  0.00    +0.000 OA
ATOM     25  N   UNL     1      61.614  36.230  56.889  0.00  0.00    +0.000 N 
ATOM     26  H   UNL     1      62.544  35.851  56.742  0.00  0.00    +0.000 HD
ATOM     27  H   UNL     1      61.108  35.940  57.715  0.00  0.00    +0.000 HD
ENDBRANCH  16  23
BRANCH   8  28
ATOM     28  N   UNL     1      64.600  36.350  53.316  0.00  0.00    +0.000 NA
ATOM     29  C   UNL     1      65.954  35.905  53.615  0.00  0.00    +0.000 C 
ATOM     30  C   UNL     1      63.692  35.266  53.632  0.00  0.00    +0.000 C 
ENDBRANCH   8  28
BRANCH  12  31
ATOM     31  O   UNL     1      60.258  38.863  54.079  0.00  0.00    +0.000 OA
ATOM     32  H   UNL     1      60.114  39.834  54.007  0.00  0.00    +0.000 HD
ENDBRANCH  12  31
BRANCH   7  33
ATOM     33  O   UNL     1      61.947  38.436  51.875  0.00  0.00    +0.000 OA
ATOM     34  H   UNL     1      62.695  38.050  51.382  0.00  0.00    +0.000 HD
ENDBRANCH   7  33
BRANCH  15  35
ATOM     35  O   UNL     1      61.621  43.485  53.256  0.00  0.00    +0.000 OA
ATOM     36  H   UNL     1      61.002  42.740  53.104  0.00  0.00    +0.000 HD
ENDBRANCH  15  35
BRANCH   9  37
ATOM     37  O   UNL     1      66.782  41.830  54.053  0.00  0.00    +0.000 OA
ATOM     38  H   UNL     1      66.588  40.875  54.032  0.00  0.00    +0.000 HD
ENDBRANCH   9  37
BRANCH  20  39
ATOM     39  O   UNL     1      62.249  45.616  54.611  0.00  0.00    +0.000 OA
ATOM     40  H   UNL     1      62.020  46.418  54.110  0.00  0.00    +0.000 HD
ENDBRANCH  20  39
TORSDOF 7
ENDMDL
MODEL 3
REMARK VINA RESULT:      -6.5     19.916     22.115
REMARK  Name = Chlortetracycline.pdbqt.pdb
REMARK  7 active torsions:
REMARK  status: ('A' for Active; 'I' for Inactive)
REMARK    1  A    between atoms: C_7  and  O_30
REMARK    2  A    between atoms: C_8  and  N_32
REMARK    3  A    between atoms: C_9  and  O_37
REMARK    4  A    between atoms: C_12  and  O_28
REMARK    5  A    between atoms: C_15  and  O_35
REMARK    6  A    between atoms: C_16  and  C_23
REMARK    7  A    between atoms: C_20  and  O_39
REMARK                            x       y       z     vdW  Elec       q    Type
REMARK                         _______ _______ _______ _____ _____    ______ ____
ROOT
ATOM      1 CL   UNL     1      56.711  54.193  86.966  0.00  0.00    +0.000 Cl
ATOM      2  O   UNL     1      53.794  47.132  85.256  0.00  0.00    +0.000 OA
ATOM      3  O   UNL     1      50.063  51.366  82.778  0.00  0.00    +0.000 OA
ATOM      4  C   UNL     1      51.287  49.870  85.629  0.00  0.00    +0.000 C 
ATOM      5  C   UNL     1      53.765  50.724  85.937  0.00  0.00    +0.000 C 
ATOM      6  C   UNL     1      52.356  50.728  85.963  0.00  0.00    +0.000 C 
ATOM      7  C   UNL     1      51.750  48.510  85.165  0.00  0.00    +0.000 C 
ATOM      8  C   UNL     1      50.123  50.413  84.952  0.00  0.00    +0.000 C 
ATOM      9  C   UNL     1      54.692  51.760  86.509  0.00  0.00    +0.000 C 
ATOM     10  C   UNL     1      54.287  49.456  85.473  0.00  0.00    +0.000 C 
ATOM     11  C   UNL     1      53.330  48.280  85.301  0.00  0.00    +0.000 C 
ATOM     12  C   UNL     1      51.371  48.208  83.712  0.00  0.00    +0.000 C 
ATOM     13  C   UNL     1      56.117  51.659  85.986  0.00  0.00    +0.000 A 
ATOM     14  C   UNL     1      50.224  50.368  83.467  0.00  0.00    +0.000 C 
ATOM     15  C   UNL     1      55.602  49.305  85.229  0.00  0.00    +0.000 C 
ATOM     16  C   UNL     1      50.690  49.059  82.909  0.00  0.00    +0.000 C 
ATOM     17  C   UNL     1      56.543  50.463  85.331  0.00  0.00    +0.000 A 
ATOM     18  C   UNL     1      54.644  51.654  88.047  0.00  0.00    +0.000 C 
ATOM     19  C   UNL     1      57.046  52.716  86.134  0.00  0.00    +0.000 A 
ATOM     20  C   UNL     1      57.850  50.422  84.798  0.00  0.00    +0.000 A 
ATOM     21  C   UNL     1      58.338  52.622  85.623  0.00  0.00    +0.000 A 
ATOM     22  C   UNL     1      58.736  51.486  84.944  0.00  0.00    +0.000 A 
ENDROOT
BRANCH  16  23
ATOM     23  C   UNL     1      50.293  48.711  81.516  0.00  0.00    +0.000 C 
ATOM     24  O   UNL     1      50.927  47.912  80.839  0.00  0.00    +0.000 OA
ATOM     25  N   UNL     1      49.195  49.337  81.012  0.00  0.00    +0.000 N 
ATOM     26  H   UNL     1      48.847  50.185  81.448  0.00  0.00    +0.000 HD
ATOM     27  H   UNL     1      48.997  49.192  80.031  0.00  0.00    +0.000 HD
ENDBRANCH  16  23
BRANCH   8  28
ATOM     28  N   UNL     1      48.822  50.407  85.567  0.00  0.00    +0.000 NA
ATOM     29  C   UNL     1      48.816  49.910  86.936  0.00  0.00    +0.000 C 
ATOM     30  C   UNL     1      48.162  51.696  85.556  0.00  0.00    +0.000 C 
ENDBRANCH   8  28
BRANCH  12  31
ATOM     31  O   UNL     1      51.710  46.928  83.264  0.00  0.00    +0.000 OA
ATOM     32  H   UNL     1      52.119  46.436  84.013  0.00  0.00    +0.000 HD
ENDBRANCH  12  31
BRANCH   7  33
ATOM     33  O   UNL     1      51.060  47.521  85.932  0.00  0.00    +0.000 OA
ATOM     34  H   UNL     1      50.108  47.729  85.907  0.00  0.00    +0.000 HD
ENDBRANCH   7  33
BRANCH  15  35
ATOM     35  O   UNL     1      56.169  48.094  84.895  0.00  0.00    +0.000 OA
ATOM     36  H   UNL     1      55.965  47.867  83.963  0.00  0.00    +0.000 HD
ENDBRANCH  15  35
BRANCH   9  37
ATOM     37  O   UNL     1      54.129  53.013  86.176  0.00  0.00    +0.000 OA
ATOM     38  H   UNL     1      54.748  53.322  85.490  0.00  0.00    +0.000 HD
ENDBRANCH   9  37
BRANCH  20  39
ATOM     39  O   UNL     1      58.293  49.350  84.070  0.00  0.00    +0.000 OA
ATOM     40  H   UNL     1      59.072  48.963  84.504  0.00  0.00    +0.000 HD
ENDBRANCH  20  39
TORSDOF 7
ENDMDL
MODEL 4
REMARK VINA RESULT:      -6.5     13.471     16.626
REMARK  Name = Chlortetracycline.pdbqt.pdb
REMARK  7 active torsions:
REMARK  status: ('A' for Active; 'I' for Inactive)
REMARK    1  A    between atoms: C_7  and  O_30
REMARK    2  A    between atoms: C_8  and  N_32
REMARK    3  A    between atoms: C_9  and  O_37
REMARK    4  A    between atoms: C_12  and  O_28
REMARK    5  A    between atoms: C_15  and  O_35
REMARK    6  A    between atoms: C_16  and  C_23
REMARK    7  A    between atoms: C_20  and  O_39
REMARK                            x       y       z     vdW  Elec       q    Type
REMARK                         _______ _______ _______ _____ _____    ______ ____
ROOT
ATOM      1 CL   UNL     1      61.951  31.247  50.030  0.00  0.00    +0.000 Cl
ATOM      2  O   UNL     1      64.690  34.915  56.381  0.00  0.00    +0.000 OA
ATOM      3  O   UNL     1      60.952  38.815  53.415  0.00  0.00    +0.000 OA
ATOM      4  C   UNL     1      63.937  37.099  53.451  0.00  0.00    +0.000 C 
ATOM      5  C   UNL     1      63.368  34.563  52.990  0.00  0.00    +0.000 C 
ATOM      6  C   UNL     1      63.602  35.930  52.736  0.00  0.00    +0.000 C 
ATOM      7  C   UNL     1      64.197  36.836  54.915  0.00  0.00    +0.000 C 
ATOM      8  C   UNL     1      63.261  38.345  53.136  0.00  0.00    +0.000 C 
ATOM      9  C   UNL     1      63.159  33.469  51.981  0.00  0.00    +0.000 C 
ATOM     10  C   UNL     1      63.571  34.238  54.386  0.00  0.00    +0.000 C 
ATOM     11  C   UNL     1      64.193  35.283  55.308  0.00  0.00    +0.000 C 
ATOM     12  C   UNL     1      63.200  37.542  55.839  0.00  0.00    +0.000 C 
ATOM     13  C   UNL     1      62.559  32.202  52.570  0.00  0.00    +0.000 A 
ATOM     14  C   UNL     1      62.029  38.573  53.940  0.00  0.00    +0.000 C 
ATOM     15  C   UNL     1      63.247  33.020  54.859  0.00  0.00    +0.000 C 
ATOM     16  C   UNL     1      62.183  38.324  55.408  0.00  0.00    +0.000 C 
ATOM     17  C   UNL     1      62.578  32.006  53.985  0.00  0.00    +0.000 A 
ATOM     18  C   UNL     1      64.508  33.188  51.287  0.00  0.00    +0.000 C 
ATOM     19  C   UNL     1      61.984  31.197  51.758  0.00  0.00    +0.000 A 
ATOM     20  C   UNL     1      61.955  30.852  54.510  0.00  0.00    +0.000 A 
ATOM     21  C   UNL     1      61.410  30.056  52.312  0.00  0.00    +0.000 A 
ATOM     22  C   UNL     1      61.382  29.889  53.684  0.00  0.00    +0.000 A 
ENDROOT
BRANCH  16  23
ATOM     23  C   UNL     1      61.262  39.037  56.338  0.00  0.00    +0.000 C 
ATOM     24  O   UNL     1      61.300  40.251  56.487  0.00  0.00    +0.000 OA
ATOM     25  N   UNL     1      60.378  38.275  57.038  0.00  0.00    +0.000 N 
ATOM     26  H   UNL     1      60.530  37.277  57.132  0.00  0.00    +0.000 HD
ATOM     27  H   UNL     1      59.838  38.743  57.753  0.00  0.00    +0.000 HD
ENDBRANCH  16  23
BRANCH   8  28
ATOM     28  N   UNL     1      63.977  39.479  52.612  0.00  0.00    +0.000 NA
ATOM     29  C   UNL     1      64.015  40.623  53.511  0.00  0.00    +0.000 C 
ATOM     30  C   UNL     1      65.336  39.179  52.211  0.00  0.00    +0.000 C 
ENDBRANCH   8  28
BRANCH  12  31
ATOM     31  O   UNL     1      63.449  37.391  57.206  0.00  0.00    +0.000 OA
ATOM     32  H   UNL     1      64.097  38.079  57.481  0.00  0.00    +0.000 HD
ENDBRANCH  12  31
BRANCH   7  33
ATOM     33  O   UNL     1      65.464  37.405  55.249  0.00  0.00    +0.000 OA
ATOM     34  H   UNL     1      65.672  38.092  54.589  0.00  0.00    +0.000 HD
ENDBRANCH   7  33
BRANCH  15  35
ATOM     35  O   UNL     1      63.520  32.619  56.149  0.00  0.00    +0.000 OA
ATOM     36  H   UNL     1      64.258  33.145  56.521  0.00  0.00    +0.000 HD
ENDBRANCH  15  35
BRANCH   9  37
ATOM     37  O   UNL     1      62.305  34.010  50.992  0.00  0.00    +0.000 OA
ATOM     38  H   UNL     1      62.790  34.818  50.743  0.00  0.00    +0.000 HD
ENDBRANCH   9  37
BRANCH  20  39
ATOM     39  O   UNL     1      61.845  30.649  55.859  0.00  0.00    +0.000 OA
ATOM     40  H   UNL     1      61.563  29.733  56.027  0.00  0.00    +0.000 HD
ENDBRANCH  20  39
TORSDOF 7
ENDMDL
MODEL 5
REMARK VINA RESULT:      -6.4     14.345     16.295
REMARK  Name = Chlortetracycline.pdbqt.pdb
REMARK  7 active torsions:
REMARK  status: ('A' for Active; 'I' for Inactive)
REMARK    1  A    between atoms: C_7  and  O_30
REMARK    2  A    between atoms: C_8  and  N_32
REMARK    3  A    between atoms: C_9  and  O_37
REMARK    4  A    between atoms: C_12  and  O_28
REMARK    5  A    between atoms: C_15  and  O_35
REMARK    6  A    between atoms: C_16  and  C_23
REMARK    7  A    between atoms: C_20  and  O_39
REMARK                            x       y       z     vdW  Elec       q    Type
REMARK                         _______ _______ _______ _____ _____    ______ ____
ROOT
ATOM      1 CL   UNL     1      66.700  32.116  54.784  0.00  0.00    +0.000 Cl
ATOM      2  O   UNL     1      61.879  38.200  55.802  0.00  0.00    +0.000 OA
ATOM      3  O   UNL     1      64.046  38.453  50.039  0.00  0.00    +0.000 OA
ATOM      4  C   UNL     1      64.689  38.746  53.409  0.00  0.00    +0.000 C 
ATOM      5  C   UNL     1      64.675  36.302  54.406  0.00  0.00    +0.000 C 
ATOM      6  C   UNL     1      65.138  37.447  53.727  0.00  0.00    +0.000 C 
ATOM      7  C   UNL     1      63.345  39.066  54.018  0.00  0.00    +0.000 C 
ATOM      8  C   UNL     1      64.932  39.279  52.080  0.00  0.00    +0.000 C 
ATOM      9  C   UNL     1      65.450  35.055  54.728  0.00  0.00    +0.000 C 
ATOM     10  C   UNL     1      63.371  36.523  54.995  0.00  0.00    +0.000 C 
ATOM     11  C   UNL     1      62.795  37.936  55.011  0.00  0.00    +0.000 C 
ATOM     12  C   UNL     1      62.255  39.319  52.971  0.00  0.00    +0.000 C 
ATOM     13  C   UNL     1      64.572  33.876  55.117  0.00  0.00    +0.000 A 
ATOM     14  C   UNL     1      63.834  38.993  51.115  0.00  0.00    +0.000 C 
ATOM     15  C   UNL     1      62.691  35.504  55.552  0.00  0.00    +0.000 C 
ATOM     16  C   UNL     1      62.456  39.266  51.633  0.00  0.00    +0.000 C 
ATOM     17  C   UNL     1      63.211  34.103  55.489  0.00  0.00    +0.000 A 
ATOM     18  C   UNL     1      66.470  35.392  55.834  0.00  0.00    +0.000 C 
ATOM     19  C   UNL     1      65.063  32.549  55.132  0.00  0.00    +0.000 A 
ATOM     20  C   UNL     1      62.402  32.983  55.782  0.00  0.00    +0.000 A 
ATOM     21  C   UNL     1      64.240  31.475  55.461  0.00  0.00    +0.000 A 
ATOM     22  C   UNL     1      62.911  31.688  55.770  0.00  0.00    +0.000 A 
ENDROOT
BRANCH  16  23
ATOM     23  C   UNL     1      61.385  39.569  50.642  0.00  0.00    +0.000 C 
ATOM     24  O   UNL     1      60.290  39.022  50.682  0.00  0.00    +0.000 OA
ATOM     25  N   UNL     1      61.679  40.474  49.670  0.00  0.00    +0.000 N 
ATOM     26  H   UNL     1      62.646  40.706  49.467  0.00  0.00    +0.000 HD
ATOM     27  H   UNL     1      60.998  40.589  48.933  0.00  0.00    +0.000 HD
ENDBRANCH  16  23
BRANCH   8  28
ATOM     28  N   UNL     1      65.765  40.433  51.872  0.00  0.00    +0.000 NA
ATOM     29  C   UNL     1      65.028  41.648  51.554  0.00  0.00    +0.000 C 
ATOM     30  C   UNL     1      66.651  40.724  52.981  0.00  0.00    +0.000 C 
ENDBRANCH   8  28
BRANCH  12  31
ATOM     31  O   UNL     1      61.012  39.696  53.487  0.00  0.00    +0.000 OA
ATOM     32  H   UNL     1      61.154  40.422  54.136  0.00  0.00    +0.000 HD
ENDBRANCH  12  31
BRANCH   7  33
ATOM     33  O   UNL     1      63.460  40.302  54.724  0.00  0.00    +0.000 OA
ATOM     34  H   UNL     1      64.278  40.744  54.430  0.00  0.00    +0.000 HD
ENDBRANCH   7  33
BRANCH  15  35
ATOM     35  O   UNL     1      61.500  35.675  56.224  0.00  0.00    +0.000 OA
ATOM     36  H   UNL     1      61.027  36.464  55.886  0.00  0.00    +0.000 HD
ENDBRANCH  15  35
BRANCH   9  37
ATOM     37  O   UNL     1      66.201  34.753  53.568  0.00  0.00    +0.000 OA
ATOM     38  H   UNL     1      65.516  34.363  52.995  0.00  0.00    +0.000 HD
ENDBRANCH   9  37
BRANCH  20  39
ATOM     39  O   UNL     1      61.065  33.116  56.046  0.00  0.00    +0.000 OA
ATOM     40  H   UNL     1      60.793  34.036  55.886  0.00  0.00    +0.000 HD
ENDBRANCH  20  39
TORSDOF 7
ENDMDL
MODEL 6
REMARK VINA RESULT:      -5.9     28.037     29.786
REMARK  Name = Chlortetracycline.pdbqt.pdb
REMARK  7 active torsions:
REMARK  status: ('A' for Active; 'I' for Inactive)
REMARK    1  A    between atoms: C_7  and  O_30
REMARK    2  A    between atoms: C_8  and  N_32
REMARK    3  A    between atoms: C_9  and  O_37
REMARK    4  A    between atoms: C_12  and  O_28
REMARK    5  A    between atoms: C_15  and  O_35
REMARK    6  A    between atoms: C_16  and  C_23
REMARK    7  A    between atoms: C_20  and  O_39
REMARK                            x       y       z     vdW  Elec       q    Type
REMARK                         _______ _______ _______ _____ _____    ______ ____
ROOT
ATOM      1 CL   UNL     1      67.793  68.635  67.372  0.00  0.00    +0.000 Cl
ATOM      2  O   UNL     1      60.250  70.691  66.966  0.00  0.00    +0.000 OA
ATOM      3  O   UNL     1      60.597  65.395  70.100  0.00  0.00    +0.000 OA
ATOM      4  C   UNL     1      60.923  67.022  67.082  0.00  0.00    +0.000 C 
ATOM      5  C   UNL     1      63.133  68.457  67.222  0.00  0.00    +0.000 C 
ATOM      6  C   UNL     1      62.299  67.331  67.073  0.00  0.00    +0.000 C 
ATOM      7  C   UNL     1      60.049  68.246  67.223  0.00  0.00    +0.000 C 
ATOM      8  C   UNL     1      60.465  65.828  67.770  0.00  0.00    +0.000 C 
ATOM      9  C   UNL     1      64.621  68.526  67.015  0.00  0.00    +0.000 C 
ATOM     10  C   UNL     1      62.364  69.672  67.391  0.00  0.00    +0.000 C 
ATOM     11  C   UNL     1      60.855  69.630  67.174  0.00  0.00    +0.000 C 
ATOM     12  C   UNL     1      59.221  68.249  68.513  0.00  0.00    +0.000 C 
ATOM     13  C   UNL     1      65.263  69.764  67.619  0.00  0.00    +0.000 A 
ATOM     14  C   UNL     1      60.112  66.062  69.197  0.00  0.00    +0.000 C 
ATOM     15  C   UNL     1      62.975  70.830  67.704  0.00  0.00    +0.000 C 
ATOM     16  C   UNL     1      59.255  67.265  69.442  0.00  0.00    +0.000 C 
ATOM     17  C   UNL     1      64.444  70.877  67.984  0.00  0.00    +0.000 A 
ATOM     18  C   UNL     1      64.905  68.420  65.503  0.00  0.00    +0.000 C 
ATOM     19  C   UNL     1      66.660  69.858  67.828  0.00  0.00    +0.000 A 
ATOM     20  C   UNL     1      65.059  71.987  68.602  0.00  0.00    +0.000 A 
ATOM     21  C   UNL     1      67.232  70.986  68.410  0.00  0.00    +0.000 A 
ATOM     22  C   UNL     1      66.435  72.041  68.810  0.00  0.00    +0.000 A 
ENDROOT
BRANCH  16  23
ATOM     23  C   UNL     1      58.397  67.276  70.661  0.00  0.00    +0.000 C 
ATOM     24  O   UNL     1      57.415  66.554  70.771  0.00  0.00    +0.000 OA
ATOM     25  N   UNL     1      58.741  68.143  71.651  0.00  0.00    +0.000 N 
ATOM     26  H   UNL     1      59.360  68.922  71.454  0.00  0.00    +0.000 HD
ATOM     27  H   UNL     1      58.093  68.235  72.422  0.00  0.00    +0.000 HD
ENDBRANCH  16  23
BRANCH   8  28
ATOM     28  N   UNL     1      59.838  64.744  67.061  0.00  0.00    +0.000 NA
ATOM     29  C   UNL     1      58.418  64.593  67.343  0.00  0.00    +0.000 C 
ATOM     30  C   UNL     1      60.003  64.811  65.623  0.00  0.00    +0.000 C 
ENDBRANCH   8  28
BRANCH  12  31
ATOM     31  O   UNL     1      58.339  69.324  68.649  0.00  0.00    +0.000 OA
ATOM     32  H   UNL     1      58.867  70.154  68.695  0.00  0.00    +0.000 HD
ENDBRANCH  12  31
BRANCH   7  33
ATOM     33  O   UNL     1      59.081  68.224  66.173  0.00  0.00    +0.000 OA
ATOM     34  H   UNL     1      58.229  67.939  66.552  0.00  0.00    +0.000 HD
ENDBRANCH   7  33
BRANCH  15  35
ATOM     35  O   UNL     1      62.310  72.035  67.769  0.00  0.00    +0.000 OA
ATOM     36  H   UNL     1      61.647  72.021  68.490  0.00  0.00    +0.000 HD
ENDBRANCH  15  35
BRANCH   9  37
ATOM     37  O   UNL     1      65.150  67.354  67.605  0.00  0.00    +0.000 OA
ATOM     38  H   UNL     1      64.453  66.706  67.397  0.00  0.00    +0.000 HD
ENDBRANCH   9  37
BRANCH  20  39
ATOM     39  O   UNL     1      64.325  73.043  69.070  0.00  0.00    +0.000 OA
ATOM     40  H   UNL     1      64.911  73.664  69.538  0.00  0.00    +0.000 HD
ENDBRANCH  20  39
TORSDOF 7
ENDMDL
MODEL 7
REMARK VINA RESULT:      -5.8     44.522     47.424
REMARK  Name = Chlortetracycline.pdbqt.pdb
REMARK  7 active torsions:
REMARK  status: ('A' for Active; 'I' for Inactive)
REMARK    1  A    between atoms: C_7  and  O_30
REMARK    2  A    between atoms: C_8  and  N_32
REMARK    3  A    between atoms: C_9  and  O_37
REMARK    4  A    between atoms: C_12  and  O_28
REMARK    5  A    between atoms: C_15  and  O_35
REMARK    6  A    between atoms: C_16  and  C_23
REMARK    7  A    between atoms: C_20  and  O_39
REMARK                            x       y       z     vdW  Elec       q    Type
REMARK                         _______ _______ _______ _____ _____    ______ ____
ROOT
ATOM      1 CL   UNL     1      75.258  81.314  85.162  0.00  0.00    +0.000 Cl
ATOM      2  O   UNL     1      78.754  79.463  78.406  0.00  0.00    +0.000 OA
ATOM      3  O   UNL     1      81.671  84.354  80.763  0.00  0.00    +0.000 OA
ATOM      4  C   UNL     1      78.815  83.080  79.321  0.00  0.00    +0.000 C 
ATOM      5  C   UNL     1      77.629  81.597  81.153  0.00  0.00    +0.000 C 
ATOM      6  C   UNL     1      78.047  82.748  80.457  0.00  0.00    +0.000 C 
ATOM      7  C   UNL     1      79.292  81.865  78.561  0.00  0.00    +0.000 C 
ATOM      8  C   UNL     1      79.742  84.196  79.389  0.00  0.00    +0.000 C 
ATOM      9  C   UNL     1      76.657  81.525  82.298  0.00  0.00    +0.000 C 
ATOM     10  C   UNL     1      78.075  80.386  80.498  0.00  0.00    +0.000 C 
ATOM     11  C   UNL     1      78.699  80.482  79.109  0.00  0.00    +0.000 C 
ATOM     12  C   UNL     1      80.818  81.729  78.541  0.00  0.00    +0.000 C 
ATOM     13  C   UNL     1      76.714  80.212  83.064  0.00  0.00    +0.000 A 
ATOM     14  C   UNL     1      81.112  83.805  79.825  0.00  0.00    +0.000 C 
ATOM     15  C   UNL     1      77.911  79.188  81.090  0.00  0.00    +0.000 C 
ATOM     16  C   UNL     1      81.669  82.598  79.136  0.00  0.00    +0.000 C 
ATOM     17  C   UNL     1      77.360  79.081  82.477  0.00  0.00    +0.000 A 
ATOM     18  C   UNL     1      75.242  81.799  81.749  0.00  0.00    +0.000 C 
ATOM     19  C   UNL     1      76.137  80.068  84.348  0.00  0.00    +0.000 A 
ATOM     20  C   UNL     1      77.456  77.895  83.237  0.00  0.00    +0.000 A 
ATOM     21  C   UNL     1      76.224  78.870  85.052  0.00  0.00    +0.000 A 
ATOM     22  C   UNL     1      76.893  77.791  84.507  0.00  0.00    +0.000 A 
ENDROOT
BRANCH  16  23
ATOM     23  C   UNL     1      83.150  82.463  79.052  0.00  0.00    +0.000 C 
ATOM     24  O   UNL     1      83.729  82.305  77.985  0.00  0.00    +0.000 OA
ATOM     25  N   UNL     1      83.842  82.504  80.222  0.00  0.00    +0.000 N 
ATOM     26  H   UNL     1      83.363  82.349  81.103  0.00  0.00    +0.000 HD
ATOM     27  H   UNL     1      84.830  82.294  80.176  0.00  0.00    +0.000 HD
ENDBRANCH  16  23
BRANCH   8  28
ATOM     28  N   UNL     1      79.574  85.366  78.568  0.00  0.00    +0.000 NA
ATOM     29  C   UNL     1      80.172  85.253  77.246  0.00  0.00    +0.000 C 
ATOM     30  C   UNL     1      78.194  85.772  78.402  0.00  0.00    +0.000 C 
ENDBRANCH   8  28
BRANCH  12  31
ATOM     31  O   UNL     1      81.308  80.662  77.783  0.00  0.00    +0.000 OA
ATOM     32  H   UNL     1      82.038  80.234  78.287  0.00  0.00    +0.000 HD
ENDBRANCH  12  31
BRANCH   7  33
ATOM     33  O   UNL     1      78.925  82.027  77.190  0.00  0.00    +0.000 OA
ATOM     34  H   UNL     1      78.399  82.844  77.112  0.00  0.00    +0.000 HD
ENDBRANCH   7  33
BRANCH  15  35
ATOM     35  O   UNL     1      78.214  77.996  80.468  0.00  0.00    +0.000 OA
ATOM     36  H   UNL     1      78.241  77.266  81.122  0.00  0.00    +0.000 HD
ENDBRANCH  15  35
BRANCH   9  37
ATOM     37  O   UNL     1      76.974  82.609  83.147  0.00  0.00    +0.000 OA
ATOM     38  H   UNL     1      77.925  82.459  83.300  0.00  0.00    +0.000 HD
ENDBRANCH   9  37
BRANCH  20  39
ATOM     39  O   UNL     1      78.148  76.806  82.781  0.00  0.00    +0.000 OA
ATOM     40  H   UNL     1      79.080  76.879  83.048  0.00  0.00    +0.000 HD
ENDBRANCH  20  39
TORSDOF 7
ENDMDL
MODEL 8
REMARK VINA RESULT:      -5.7     13.280     16.298
REMARK  Name = Chlortetracycline.pdbqt.pdb
REMARK  7 active torsions:
REMARK  status: ('A' for Active; 'I' for Inactive)
REMARK    1  A    between atoms: C_7  and  O_30
REMARK    2  A    between atoms: C_8  and  N_32
REMARK    3  A    between atoms: C_9  and  O_37
REMARK    4  A    between atoms: C_12  and  O_28
REMARK    5  A    between atoms: C_15  and  O_35
REMARK    6  A    between atoms: C_16  and  C_23
REMARK    7  A    between atoms: C_20  and  O_39
REMARK                            x       y       z     vdW  Elec       q    Type
REMARK                         _______ _______ _______ _____ _____    ______ ____
ROOT
ATOM      1 CL   UNL     1      51.702  34.376  65.098  0.00  0.00    +0.000 Cl
ATOM      2  O   UNL     1      51.710  35.593  57.363  0.00  0.00    +0.000 OA
ATOM      3  O   UNL     1      51.817  29.505  58.316  0.00  0.00    +0.000 OA
ATOM      4  C   UNL     1      53.476  32.516  58.519  0.00  0.00    +0.000 C 
ATOM      5  C   UNL     1      52.385  33.859  60.511  0.00  0.00    +0.000 C 
ATOM      6  C   UNL     1      53.185  32.912  59.841  0.00  0.00    +0.000 C 
ATOM      7  C   UNL     1      52.800  33.383  57.485  0.00  0.00    +0.000 C 
ATOM      8  C   UNL     1      53.570  31.101  58.203  0.00  0.00    +0.000 C 
ATOM      9  C   UNL     1      52.376  34.169  61.982  0.00  0.00    +0.000 C 
ATOM     10  C   UNL     1      51.678  34.714  59.581  0.00  0.00    +0.000 C 
ATOM     11  C   UNL     1      52.034  34.649  58.098  0.00  0.00    +0.000 C 
ATOM     12  C   UNL     1      51.792  32.617  56.623  0.00  0.00    +0.000 C 
ATOM     13  C   UNL     1      51.150  34.949  62.432  0.00  0.00    +0.000 A 
ATOM     14  C   UNL     1      52.276  30.500  57.776  0.00  0.00    +0.000 C 
ATOM     15  C   UNL     1      50.744  35.577  60.020  0.00  0.00    +0.000 C 
ATOM     16  C   UNL     1      51.520  31.297  56.758  0.00  0.00    +0.000 C 
ATOM     17  C   UNL     1      50.338  35.609  61.460  0.00  0.00    +0.000 A 
ATOM     18  C   UNL     1      53.680  34.916  62.326  0.00  0.00    +0.000 C 
ATOM     19  C   UNL     1      50.786  35.050  63.796  0.00  0.00    +0.000 A 
ATOM     20  C   UNL     1      49.170  36.270  61.900  0.00  0.00    +0.000 A 
ATOM     21  C   UNL     1      49.644  35.741  64.192  0.00  0.00    +0.000 A 
ATOM     22  C   UNL     1      48.830  36.337  63.248  0.00  0.00    +0.000 A 
ENDROOT
BRANCH  16  23
ATOM     23  C   UNL     1      50.571  30.573  55.867  0.00  0.00    +0.000 C 
ATOM     24  O   UNL     1      50.862  30.267  54.718  0.00  0.00    +0.000 OA
ATOM     25  N   UNL     1      49.346  30.275  56.380  0.00  0.00    +0.000 N 
ATOM     26  H   UNL     1      49.007  30.763  57.202  0.00  0.00    +0.000 HD
ATOM     27  H   UNL     1      48.664  29.892  55.740  0.00  0.00    +0.000 HD
ENDBRANCH  16  23
BRANCH   8  28
ATOM     28  N   UNL     1      54.801  30.510  57.751  0.00  0.00    +0.000 NA
ATOM     29  C   UNL     1      55.307  29.456  58.618  0.00  0.00    +0.000 C 
ATOM     30  C   UNL     1      54.739  29.987  56.401  0.00  0.00    +0.000 C 
ENDBRANCH   8  28
BRANCH  12  31
ATOM     31  O   UNL     1      51.198  33.362  55.600  0.00  0.00    +0.000 OA
ATOM     32  H   UNL     1      50.352  33.735  55.940  0.00  0.00    +0.000 HD
ENDBRANCH  12  31
BRANCH   7  33
ATOM     33  O   UNL     1      53.794  33.833  56.563  0.00  0.00    +0.000 OA
ATOM     34  H   UNL     1      53.747  34.806  56.517  0.00  0.00    +0.000 HD
ENDBRANCH   7  33
BRANCH  15  35
ATOM     35  O   UNL     1      50.121  36.491  59.198  0.00  0.00    +0.000 OA
ATOM     36  H   UNL     1      50.747  37.199  58.938  0.00  0.00    +0.000 HD
ENDBRANCH  15  35
BRANCH   9  37
ATOM     37  O   UNL     1      52.441  32.922  62.644  0.00  0.00    +0.000 OA
ATOM     38  H   UNL     1      51.912  33.102  63.442  0.00  0.00    +0.000 HD
ENDBRANCH   9  37
BRANCH  20  39
ATOM     39  O   UNL     1      48.292  36.836  61.016  0.00  0.00    +0.000 OA
ATOM     40  H   UNL     1      48.294  36.328  60.186  0.00  0.00    +0.000 HD
ENDBRANCH  20  39
TORSDOF 7
ENDMDL
MODEL 9
REMARK VINA RESULT:      -5.7     16.609     18.900
REMARK  Name = Chlortetracycline.pdbqt.pdb
REMARK  7 active torsions:
REMARK  status: ('A' for Active; 'I' for Inactive)
REMARK    1  A    between atoms: C_7  and  O_30
REMARK    2  A    between atoms: C_8  and  N_32
REMARK    3  A    between atoms: C_9  and  O_37
REMARK    4  A    between atoms: C_12  and  O_28
REMARK    5  A    between atoms: C_15  and  O_35
REMARK    6  A    between atoms: C_16  and  C_23
REMARK    7  A    between atoms: C_20  and  O_39
REMARK                            x       y       z     vdW  Elec       q    Type
REMARK                         _______ _______ _______ _____ _____    ______ ____
ROOT
ATOM      1 CL   UNL     1      65.978  49.219  56.684  0.00  0.00    +0.000 Cl
ATOM      2  O   UNL     1      59.286  52.337  59.290  0.00  0.00    +0.000 OA
ATOM      3  O   UNL     1      63.037  56.966  57.713  0.00  0.00    +0.000 OA
ATOM      4  C   UNL     1      62.356  54.374  59.877  0.00  0.00    +0.000 C 
ATOM      5  C   UNL     1      62.866  52.136  58.574  0.00  0.00    +0.000 C 
ATOM      6  C   UNL     1      63.098  53.322  59.301  0.00  0.00    +0.000 C 
ATOM      7  C   UNL     1      60.864  54.173  59.758  0.00  0.00    +0.000 C 
ATOM      8  C   UNL     1      62.830  55.740  59.735  0.00  0.00    +0.000 C 
ATOM      9  C   UNL     1      63.872  51.086  58.196  0.00  0.00    +0.000 C 
ATOM     10  C   UNL     1      61.451  51.889  58.394  0.00  0.00    +0.000 C 
ATOM     11  C   UNL     1      60.446  52.750  59.154  0.00  0.00    +0.000 C 
ATOM     12  C   UNL     1      60.178  55.247  58.908  0.00  0.00    +0.000 C 
ATOM     13  C   UNL     1      63.389  50.145  57.103  0.00  0.00    +0.000 A 
ATOM     14  C   UNL     1      62.299  56.432  58.528  0.00  0.00    +0.000 C 
ATOM     15  C   UNL     1      61.027  50.893  57.595  0.00  0.00    +0.000 C 
ATOM     16  C   UNL     1      60.824  56.278  58.315  0.00  0.00    +0.000 C 
ATOM     17  C   UNL     1      61.996  50.081  56.794  0.00  0.00    +0.000 A 
ATOM     18  C   UNL     1      64.271  50.316  59.471  0.00  0.00    +0.000 C 
ATOM     19  C   UNL     1      64.279  49.316  56.380  0.00  0.00    +0.000 A 
ATOM     20  C   UNL     1      61.583  49.248  55.731  0.00  0.00    +0.000 A 
ATOM     21  C   UNL     1      63.827  48.481  55.361  0.00  0.00    +0.000 A 
ATOM     22  C   UNL     1      62.487  48.457  55.026  0.00  0.00    +0.000 A 
ENDROOT
BRANCH  16  23
ATOM     23  C   UNL     1      60.117  57.335  57.537  0.00  0.00    +0.000 C 
ATOM     24  O   UNL     1      59.218  58.008  58.024  0.00  0.00    +0.000 OA
ATOM     25  N   UNL     1      60.501  57.512  56.245  0.00  0.00    +0.000 N 
ATOM     26  H   UNL     1      61.027  56.788  55.766  0.00  0.00    +0.000 HD
ATOM     27  H   UNL     1      59.943  58.143  55.685  0.00  0.00    +0.000 HD
ENDBRANCH  16  23
BRANCH   8  28
ATOM     28  N   UNL     1      63.222  56.524  60.876  0.00  0.00    +0.000 NA
ATOM     29  C   UNL     1      63.077  55.832  62.149  0.00  0.00    +0.000 C 
ATOM     30  C   UNL     1      64.575  57.037  60.798  0.00  0.00    +0.000 C 
ENDBRANCH   8  28
BRANCH  12  31
ATOM     31  O   UNL     1      58.786  55.146  58.835  0.00  0.00    +0.000 OA
ATOM     32  H   UNL     1      58.525  54.246  59.136  0.00  0.00    +0.000 HD
ENDBRANCH  12  31
BRANCH   7  33
ATOM     33  O   UNL     1      60.292  54.322  61.059  0.00  0.00    +0.000 OA
ATOM     34  H   UNL     1      59.661  55.064  61.029  0.00  0.00    +0.000 HD
ENDBRANCH   7  33
BRANCH  15  35
ATOM     35  O   UNL     1      59.700  50.541  57.473  0.00  0.00    +0.000 OA
ATOM     36  H   UNL     1      59.303  50.972  56.687  0.00  0.00    +0.000 HD
ENDBRANCH  15  35
BRANCH   9  37
ATOM     37  O   UNL     1      65.026  51.786  57.773  0.00  0.00    +0.000 OA
ATOM     38  H   UNL     1      64.879  51.830  56.811  0.00  0.00    +0.000 HD
ENDBRANCH   9  37
BRANCH  20  39
ATOM     39  O   UNL     1      60.281  49.214  55.312  0.00  0.00    +0.000 OA
ATOM     40  H   UNL     1      60.143  48.436  54.745  0.00  0.00    +0.000 HD
ENDBRANCH  20  39
TORSDOF 7
ENDMDL
