MODEL 1
REMARK VINA RESULT:      -5.5      0.000      0.000
REMARK  Name = Ciclopirox.pdbqt.pdb
REMARK  2 active torsions:
REMARK  status: ('A' for Active; 'I' for Inactive)
REMARK    1  A    between atoms: N_2  and  O_15
REMARK    2  A    between atoms: C_3  and  C_9
REMARK                            x       y       z     vdW  Elec       q    Type
REMARK                         _______ _______ _______ _____ _____    ______ ____
ROOT
ATOM      1  O   UNL     1      59.357  56.341  59.431  0.00  0.00    +0.000 OA
ATOM      2  N   UNL     1      60.867  54.551  59.375  0.00  0.00    +0.000 N 
ATOM      3  C   UNL     1      61.989  53.924  59.934  0.00  0.00    +0.000 C 
ATOM      4  C   UNL     1      62.478  54.624  60.927  0.00  0.00    +0.000 C 
ATOM      5  C   UNL     1      62.191  55.858  61.580  0.00  0.00    +0.000 C 
ATOM      6  C   UNL     1      60.356  55.773  59.850  0.00  0.00    +0.000 C 
ATOM      7  C   UNL     1      61.143  56.290  60.945  0.00  0.00    +0.000 C 
ATOM      8  C   UNL     1      63.296  56.784  61.967  0.00  0.00    +0.000 C 
ENDROOT
BRANCH   3   9
ATOM      9  C   UNL     1      62.533  52.671  59.498  0.00  0.00    +0.000 A 
ATOM     10  C   UNL     1      61.780  51.440  59.445  0.00  0.00    +0.000 A 
ATOM     11  C   UNL     1      62.252  49.980  59.252  0.00  0.00    +0.000 A 
ATOM     12  C   UNL     1      63.769  49.774  59.084  0.00  0.00    +0.000 A 
ATOM     13  C   UNL     1      64.661  51.029  59.122  0.00  0.00    +0.000 A 
ATOM     14  C   UNL     1      63.934  52.377  59.328  0.00  0.00    +0.000 A 
ENDBRANCH   3   9
BRANCH   2  15
ATOM     15  O   UNL     1      60.156  53.895  58.352  0.00  0.00    +0.000 OA
ATOM     16  H   UNL     1      60.412  54.403  57.555  0.00  0.00    +0.000 HD
ENDBRANCH   2  15
TORSDOF 2
ENDMDL
MODEL 2
REMARK VINA RESULT:      -5.3      2.015      2.089
REMARK  Name = Ciclopirox.pdbqt.pdb
REMARK  2 active torsions:
REMARK  status: ('A' for Active; 'I' for Inactive)
REMARK    1  A    between atoms: N_2  and  O_15
REMARK    2  A    between atoms: C_3  and  C_9
REMARK                            x       y       z     vdW  Elec       q    Type
REMARK                         _______ _______ _______ _____ _____    ______ ____
ROOT
ATOM      1  O   UNL     1      63.711  57.679  59.341  0.00  0.00    +0.000 OA
ATOM      2  N   UNL     1      63.469  55.349  59.348  0.00  0.00    +0.000 N 
ATOM      3  C   UNL     1      63.053  54.199  60.032  0.00  0.00    +0.000 C 
ATOM      4  C   UNL     1      62.615  54.492  61.230  0.00  0.00    +0.000 C 
ATOM      5  C   UNL     1      62.465  55.660  62.034  0.00  0.00    +0.000 C 
ATOM      6  C   UNL     1      63.405  56.639  59.906  0.00  0.00    +0.000 C 
ATOM      7  C   UNL     1      62.890  56.609  61.255  0.00  0.00    +0.000 C 
ATOM      8  C   UNL     1      62.821  55.632  63.483  0.00  0.00    +0.000 C 
ENDROOT
BRANCH   3   9
ATOM      9  C   UNL     1      63.081  52.869  59.496  0.00  0.00    +0.000 A 
ATOM     10  C   UNL     1      61.900  52.074  59.249  0.00  0.00    +0.000 A 
ATOM     11  C   UNL     1      61.752  50.569  58.926  0.00  0.00    +0.000 A 
ATOM     12  C   UNL     1      63.059  49.759  58.847  0.00  0.00    +0.000 A 
ATOM     13  C   UNL     1      64.376  50.518  59.094  0.00  0.00    +0.000 A 
ATOM     14  C   UNL     1      64.248  52.027  59.398  0.00  0.00    +0.000 A 
ENDBRANCH   3   9
BRANCH   2  15
ATOM     15  O   UNL     1      63.888  55.234  58.008  0.00  0.00    +0.000 OA
ATOM     16  H   UNL     1      64.861  55.306  58.082  0.00  0.00    +0.000 HD
ENDBRANCH   2  15
TORSDOF 2
ENDMDL
MODEL 3
REMARK VINA RESULT:      -5.1     20.459     21.391
REMARK  Name = Ciclopirox.pdbqt.pdb
REMARK  2 active torsions:
REMARK  status: ('A' for Active; 'I' for Inactive)
REMARK    1  A    between atoms: N_2  and  O_15
REMARK    2  A    between atoms: C_3  and  C_9
REMARK                            x       y       z     vdW  Elec       q    Type
REMARK                         _______ _______ _______ _____ _____    ______ ____
ROOT
ATOM      1  O   UNL     1      50.500  37.574  57.364  0.00  0.00    +0.000 OA
ATOM      2  N   UNL     1      51.547  36.046  58.797  0.00  0.00    +0.000 N 
ATOM      3  C   UNL     1      52.453  34.988  58.951  0.00  0.00    +0.000 C 
ATOM      4  C   UNL     1      52.956  34.624  57.798  0.00  0.00    +0.000 C 
ATOM      5  C   UNL     1      52.819  34.999  56.429  0.00  0.00    +0.000 C 
ATOM      6  C   UNL     1      51.245  36.623  57.550  0.00  0.00    +0.000 C 
ATOM      7  C   UNL     1      51.960  35.973  56.477  0.00  0.00    +0.000 C 
ATOM      8  C   UNL     1      52.748  33.957  55.363  0.00  0.00    +0.000 C 
ENDROOT
BRANCH   3   9
ATOM      9  C   UNL     1      52.806  34.383  60.202  0.00  0.00    +0.000 A 
ATOM     10  C   UNL     1      53.533  35.062  61.249  0.00  0.00    +0.000 A 
ATOM     11  C   UNL     1      54.208  34.508  62.525  0.00  0.00    +0.000 A 
ATOM     12  C   UNL     1      54.104  32.987  62.743  0.00  0.00    +0.000 A 
ATOM     13  C   UNL     1      53.344  32.172  61.681  0.00  0.00    +0.000 A 
ATOM     14  C   UNL     1      52.761  32.972  60.495  0.00  0.00    +0.000 A 
ENDBRANCH   3   9
BRANCH   2  15
ATOM     15  O   UNL     1      50.974  36.628  59.946  0.00  0.00    +0.000 OA
ATOM     16  H   UNL     1      50.416  35.903  60.295  0.00  0.00    +0.000 HD
ENDBRANCH   2  15
TORSDOF 2
ENDMDL
MODEL 4
REMARK VINA RESULT:      -5.0      3.912      5.260
REMARK  Name = Ciclopirox.pdbqt.pdb
REMARK  2 active torsions:
REMARK  status: ('A' for Active; 'I' for Inactive)
REMARK    1  A    between atoms: N_2  and  O_15
REMARK    2  A    between atoms: C_3  and  C_9
REMARK                            x       y       z     vdW  Elec       q    Type
REMARK                         _______ _______ _______ _____ _____    ______ ____
ROOT
ATOM      1  O   UNL     1      57.365  58.751  57.728  0.00  0.00    +0.000 OA
ATOM      2  N   UNL     1      59.094  57.965  59.098  0.00  0.00    +0.000 N 
ATOM      3  C   UNL     1      60.090  58.255  60.041  0.00  0.00    +0.000 C 
ATOM      4  C   UNL     1      60.148  59.540  60.289  0.00  0.00    +0.000 C 
ATOM      5  C   UNL     1      59.487  60.723  59.847  0.00  0.00    +0.000 C 
ATOM      6  C   UNL     1      58.276  58.952  58.519  0.00  0.00    +0.000 C 
ATOM      7  C   UNL     1      58.615  60.272  58.996  0.00  0.00    +0.000 C 
ATOM      8  C   UNL     1      60.266  61.966  59.570  0.00  0.00    +0.000 C 
ENDROOT
BRANCH   3   9
ATOM      9  C   UNL     1      60.933  57.282  60.673  0.00  0.00    +0.000 A 
ATOM     10  C   UNL     1      60.469  56.333  61.658  0.00  0.00    +0.000 A 
ATOM     11  C   UNL     1      61.260  55.405  62.609  0.00  0.00    +0.000 A 
ATOM     12  C   UNL     1      62.795  55.483  62.513  0.00  0.00    +0.000 A 
ATOM     13  C   UNL     1      63.390  56.466  61.488  0.00  0.00    +0.000 A 
ATOM     14  C   UNL     1      62.374  57.280  60.655  0.00  0.00    +0.000 A 
ENDBRANCH   3   9
BRANCH   2  15
ATOM     15  O   UNL     1      58.829  56.620  58.777  0.00  0.00    +0.000 OA
ATOM     16  H   UNL     1      58.215  56.348  59.490  0.00  0.00    +0.000 HD
ENDBRANCH   2  15
TORSDOF 2
ENDMDL
MODEL 5
REMARK VINA RESULT:      -4.8      1.962      2.432
REMARK  Name = Ciclopirox.pdbqt.pdb
REMARK  2 active torsions:
REMARK  status: ('A' for Active; 'I' for Inactive)
REMARK    1  A    between atoms: N_2  and  O_15
REMARK    2  A    between atoms: C_3  and  C_9
REMARK                            x       y       z     vdW  Elec       q    Type
REMARK                         _______ _______ _______ _____ _____    ______ ____
ROOT
ATOM      1  O   UNL     1      62.691  56.777  57.605  0.00  0.00    +0.000 OA
ATOM      2  N   UNL     1      63.393  54.717  58.470  0.00  0.00    +0.000 N 
ATOM      3  C   UNL     1      63.525  53.878  59.585  0.00  0.00    +0.000 C 
ATOM      4  C   UNL     1      63.106  54.470  60.676  0.00  0.00    +0.000 C 
ATOM      5  C   UNL     1      62.572  55.740  61.040  0.00  0.00    +0.000 C 
ATOM      6  C   UNL     1      62.869  56.020  58.549  0.00  0.00    +0.000 C 
ATOM      7  C   UNL     1      62.521  56.373  59.906  0.00  0.00    +0.000 C 
ATOM      8  C   UNL     1      63.028  56.424  62.286  0.00  0.00    +0.000 C 
ENDROOT
BRANCH   3   9
ATOM      9  C   UNL     1      64.034  52.538  59.550  0.00  0.00    +0.000 A 
ATOM     10  C   UNL     1      65.437  52.211  59.442  0.00  0.00    +0.000 A 
ATOM     11  C   UNL     1      66.134  50.865  59.139  0.00  0.00    +0.000 A 
ATOM     12  C   UNL     1      65.208  49.656  58.914  0.00  0.00    +0.000 A 
ATOM     13  C   UNL     1      63.691  49.900  59.010  0.00  0.00    +0.000 A 
ATOM     14  C   UNL     1      63.252  51.347  59.327  0.00  0.00    +0.000 A 
ENDBRANCH   3   9
BRANCH   2  15
ATOM     15  O   UNL     1      63.711  54.213  57.194  0.00  0.00    +0.000 OA
ATOM     16  H   UNL     1      63.455  53.271  57.268  0.00  0.00    +0.000 HD
ENDBRANCH   2  15
TORSDOF 2
ENDMDL
MODEL 6
REMARK VINA RESULT:      -4.7      9.958     12.872
REMARK  Name = Ciclopirox.pdbqt.pdb
REMARK  2 active torsions:
REMARK  status: ('A' for Active; 'I' for Inactive)
REMARK    1  A    between atoms: N_2  and  O_15
REMARK    2  A    between atoms: C_3  and  C_9
REMARK                            x       y       z     vdW  Elec       q    Type
REMARK                         _______ _______ _______ _____ _____    ______ ____
ROOT
ATOM      1  O   UNL     1      61.915  41.367  51.099  0.00  0.00    +0.000 OA
ATOM      2  N   UNL     1      62.952  42.944  52.487  0.00  0.00    +0.000 N 
ATOM      3  C   UNL     1      63.454  43.263  53.756  0.00  0.00    +0.000 C 
ATOM      4  C   UNL     1      63.260  42.283  54.603  0.00  0.00    +0.000 C 
ATOM      5  C   UNL     1      62.661  40.990  54.589  0.00  0.00    +0.000 C 
ATOM      6  C   UNL     1      62.330  41.716  52.195  0.00  0.00    +0.000 C 
ATOM      7  C   UNL     1      62.260  40.865  53.360  0.00  0.00    +0.000 C 
ATOM      8  C   UNL     1      61.810  40.539  55.730  0.00  0.00    +0.000 C 
ENDROOT
BRANCH   3   9
ATOM      9  C   UNL     1      64.112  44.491  54.094  0.00  0.00    +0.000 A 
ATOM     10  C   UNL     1      65.507  44.585  54.459  0.00  0.00    +0.000 A 
ATOM     11  C   UNL     1      66.305  45.751  55.087  0.00  0.00    +0.000 A 
ATOM     12  C   UNL     1      65.511  47.037  55.380  0.00  0.00    +0.000 A 
ATOM     13  C   UNL     1      64.013  47.039  55.023  0.00  0.00    +0.000 A 
ATOM     14  C   UNL     1      63.458  45.738  54.403  0.00  0.00    +0.000 A 
ENDBRANCH   3   9
BRANCH   2  15
ATOM     15  O   UNL     1      63.153  43.847  51.425  0.00  0.00    +0.000 OA
ATOM     16  H   UNL     1      62.821  43.344  50.652  0.00  0.00    +0.000 HD
ENDBRANCH   2  15
TORSDOF 2
ENDMDL
MODEL 7
REMARK VINA RESULT:      -4.6     20.622     21.792
REMARK  Name = Ciclopirox.pdbqt.pdb
REMARK  2 active torsions:
REMARK  status: ('A' for Active; 'I' for Inactive)
REMARK    1  A    between atoms: N_2  and  O_15
REMARK    2  A    between atoms: C_3  and  C_9
REMARK                            x       y       z     vdW  Elec       q    Type
REMARK                         _______ _______ _______ _____ _____    ______ ____
ROOT
ATOM      1  O   UNL     1      52.851  36.008  56.865  0.00  0.00    +0.000 OA
ATOM      2  N   UNL     1      51.870  35.951  58.990  0.00  0.00    +0.000 N 
ATOM      3  C   UNL     1      51.665  35.250  60.187  0.00  0.00    +0.000 C 
ATOM      4  C   UNL     1      52.234  34.071  60.149  0.00  0.00    +0.000 C 
ATOM      5  C   UNL     1      52.988  33.301  59.217  0.00  0.00    +0.000 C 
ATOM      6  C   UNL     1      52.603  35.426  57.911  0.00  0.00    +0.000 C 
ATOM      7  C   UNL     1      53.079  34.091  58.189  0.00  0.00    +0.000 C 
ATOM      8  C   UNL     1      52.718  31.842  59.048  0.00  0.00    +0.000 C 
ENDROOT
BRANCH   3   9
ATOM      9  C   UNL     1      50.943  35.751  61.320  0.00  0.00    +0.000 A 
ATOM     10  C   UNL     1      51.518  35.915  62.635  0.00  0.00    +0.000 A 
ATOM     11  C   UNL     1      50.845  36.190  63.999  0.00  0.00    +0.000 A 
ATOM     12  C   UNL     1      49.310  36.318  63.985  0.00  0.00    +0.000 A 
ATOM     13  C   UNL     1      48.600  36.161  62.628  0.00  0.00    +0.000 A 
ATOM     14  C   UNL     1      49.511  35.890  61.410  0.00  0.00    +0.000 A 
ENDBRANCH   3   9
BRANCH   2  15
ATOM     15  O   UNL     1      51.404  37.276  58.886  0.00  0.00    +0.000 OA
ATOM     16  H   UNL     1      51.682  37.528  57.981  0.00  0.00    +0.000 HD
ENDBRANCH   2  15
TORSDOF 2
ENDMDL
MODEL 8
REMARK VINA RESULT:      -4.6     20.405     21.498
REMARK  Name = Ciclopirox.pdbqt.pdb
REMARK  2 active torsions:
REMARK  status: ('A' for Active; 'I' for Inactive)
REMARK    1  A    between atoms: N_2  and  O_15
REMARK    2  A    between atoms: C_3  and  C_9
REMARK                            x       y       z     vdW  Elec       q    Type
REMARK                         _______ _______ _______ _____ _____    ______ ____
ROOT
ATOM      1  O   UNL     1      52.052  35.176  64.388  0.00  0.00    +0.000 OA
ATOM      2  N   UNL     1      51.878  35.461  62.070  0.00  0.00    +0.000 N 
ATOM      3  C   UNL     1      51.058  35.712  60.961  0.00  0.00    +0.000 C 
ATOM      4  C   UNL     1      49.801  35.816  61.314  0.00  0.00    +0.000 C 
ATOM      5  C   UNL     1      49.040  35.726  62.515  0.00  0.00    +0.000 C 
ATOM      6  C   UNL     1      51.380  35.348  63.381  0.00  0.00    +0.000 C 
ATOM      7  C   UNL     1      49.944  35.496  63.420  0.00  0.00    +0.000 C 
ATOM      8  C   UNL     1      47.733  35.005  62.529  0.00  0.00    +0.000 C 
ENDROOT
BRANCH   3   9
ATOM      9  C   UNL     1      51.522  35.855  59.611  0.00  0.00    +0.000 A 
ATOM     10  C   UNL     1      51.085  36.901  58.715  0.00  0.00    +0.000 A 
ATOM     11  C   UNL     1      51.274  37.060  57.189  0.00  0.00    +0.000 A 
ATOM     12  C   UNL     1      52.052  35.936  56.480  0.00  0.00    +0.000 A 
ATOM     13  C   UNL     1      52.563  34.773  57.350  0.00  0.00    +0.000 A 
ATOM     14  C   UNL     1      52.239  34.856  58.859  0.00  0.00    +0.000 A 
ENDBRANCH   3   9
BRANCH   2  15
ATOM     15  O   UNL     1      53.274  35.409  61.890  0.00  0.00    +0.000 OA
ATOM     16  H   UNL     1      53.508  34.547  62.293  0.00  0.00    +0.000 HD
ENDBRANCH   2  15
TORSDOF 2
ENDMDL
MODEL 9
REMARK VINA RESULT:      -4.6     11.750     13.200
REMARK  Name = Ciclopirox.pdbqt.pdb
REMARK  2 active torsions:
REMARK  status: ('A' for Active; 'I' for Inactive)
REMARK    1  A    between atoms: N_2  and  O_15
REMARK    2  A    between atoms: C_3  and  C_9
REMARK                            x       y       z     vdW  Elec       q    Type
REMARK                         _______ _______ _______ _____ _____    ______ ____
ROOT
ATOM      1  O   UNL     1      62.379  45.402  51.983  0.00  0.00    +0.000 OA
ATOM      2  N   UNL     1      62.355  43.342  53.097  0.00  0.00    +0.000 N 
ATOM      3  C   UNL     1      63.020  42.435  53.935  0.00  0.00    +0.000 C 
ATOM      4  C   UNL     1      64.214  42.870  54.251  0.00  0.00    +0.000 C 
ATOM      5  C   UNL     1      65.028  44.003  53.959  0.00  0.00    +0.000 C 
ATOM      6  C   UNL     1      62.927  44.556  52.675  0.00  0.00    +0.000 C 
ATOM      7  C   UNL     1      64.267  44.720  53.188  0.00  0.00    +0.000 C 
ATOM      8  C   UNL     1      66.483  43.834  53.669  0.00  0.00    +0.000 C 
ENDROOT
BRANCH   3   9
ATOM      9  C   UNL     1      62.470  41.198  54.407  0.00  0.00    +0.000 A 
ATOM     10  C   UNL     1      62.099  40.100  53.545  0.00  0.00    +0.000 A 
ATOM     11  C   UNL     1      61.278  38.824  53.840  0.00  0.00    +0.000 A 
ATOM     12  C   UNL     1      60.757  38.670  55.281  0.00  0.00    +0.000 A 
ATOM     13  C   UNL     1      61.101  39.789  56.281  0.00  0.00    +0.000 A 
ATOM     14  C   UNL     1      61.942  40.962  55.728  0.00  0.00    +0.000 A 
ENDBRANCH   3   9
BRANCH   2  15
ATOM     15  O   UNL     1      61.021  43.081  52.729  0.00  0.00    +0.000 OA
ATOM     16  H   UNL     1      61.052  42.135  52.477  0.00  0.00    +0.000 HD
ENDBRANCH   2  15
TORSDOF 2
ENDMDL
