MODEL 1
REMARK VINA RESULT:      -5.5      0.000      0.000
REMARK  Name = 
REMARK  5 active torsions:
REMARK  status: ('A' for Active; 'I' for Inactive)
REMARK    1  A    between atoms: O_5  and  C_10
REMARK    2  A    between atoms: N_9  and  C_20
REMARK    3  A    between atoms: N_9  and  C_25
REMARK    4  A    between atoms: C_10  and  C_11
REMARK    5  A    between atoms: C_18  and  C_19
REMARK                            x       y       z     vdW  Elec       q    Type
REMARK                         _______ _______ _______ _____ _____    ______ ____
ROOT
ATOM      1  F   UNL     1      61.000  33.740  67.008  0.00  0.00    +0.000 F 
ATOM      2  F   UNL     1      58.902  33.496  65.326  0.00  0.00    +0.000 F 
ATOM      3  C   UNL     1      60.426  37.224  66.129  0.00  0.00    +0.000 A 
ATOM      4  C   UNL     1      61.025  36.108  66.754  0.00  0.00    +0.000 A 
ATOM      5  C   UNL     1      59.343  37.088  65.243  0.00  0.00    +0.000 A 
ATOM      6  C   UNL     1      60.477  34.850  66.466  0.00  0.00    +0.000 A 
ATOM      7  C   UNL     1      58.831  35.822  64.974  0.00  0.00    +0.000 A 
ATOM      8  C   UNL     1      59.402  34.713  65.587  0.00  0.00    +0.000 A 
ENDROOT
BRANCH   3  14
ATOM      9  O   UNL     1      61.914  38.993  65.804  0.00  0.00    +0.000 OA
ATOM     10  N   UNL     1      60.306  39.278  67.427  0.00  0.00    +0.000 N 
ATOM     11  C   UNL     1      60.640  39.689  69.446  0.00  0.00    +0.000 C 
ATOM     12  C   UNL     1      59.693  38.751  68.645  0.00  0.00    +0.000 C 
ATOM     13  C   UNL     1      60.845  40.456  68.106  0.00  0.00    +0.000 C 
ATOM     14  C   UNL     1      60.938  38.580  66.423  0.00  0.00    +0.000 C 
BRANCH  11  16
ATOM     15  N   UNL     1      62.705  40.088  70.761  0.00  0.00    +0.000 NA
ATOM     16  C   UNL     1      61.959  39.068  69.979  0.00  0.00    +0.000 C 
ATOM     17  C   UNL     1      61.687  37.845  70.873  0.00  0.00    +0.000 C 
ATOM     18  C   UNL     1      62.993  37.260  71.412  0.00  0.00    +0.000 C 
ATOM     19  C   UNL     1      64.013  39.553  71.166  0.00  0.00    +0.000 C 
ATOM     20  C   UNL     1      63.851  38.334  72.073  0.00  0.00    +0.000 C 
ATOM     21  H   UNL     1      62.180  40.271  71.619  0.00  0.00    +0.000 HD
ENDBRANCH  11  16
BRANCH  11  22
ATOM     22  O   UNL     1      59.991  40.463  70.497  0.00  0.00    +0.000 OA
ATOM     23  H   UNL     1      59.794  39.790  71.176  0.00  0.00    +0.000 HD
ENDBRANCH  11  22
ENDBRANCH   3  14
BRANCH   4  24
ATOM     24  N   UNL     1      62.070  36.299  67.684  0.00  0.00    +0.000 N 
ATOM     25  H   UNL     1      61.741  36.555  68.623  0.00  0.00    +0.000 HD
BRANCH  24  28
ATOM     26  I   UNL     1      68.267  35.171  67.507  0.00  0.00    +0.000 I 
ATOM     27  F   UNL     1      63.929  38.298  67.905  0.00  0.00    +0.000 F 
ATOM     28  C   UNL     1      63.443  35.991  67.648  0.00  0.00    +0.000 A 
ATOM     29  C   UNL     1      64.374  37.041  67.748  0.00  0.00    +0.000 A 
ATOM     30  C   UNL     1      63.947  34.698  67.488  0.00  0.00    +0.000 A 
ATOM     31  C   UNL     1      65.749  36.825  67.707  0.00  0.00    +0.000 A 
ATOM     32  C   UNL     1      65.328  34.463  67.444  0.00  0.00    +0.000 A 
ATOM     33  C   UNL     1      66.222  35.527  67.557  0.00  0.00    +0.000 A 
ENDBRANCH  24  28
ENDBRANCH   4  24
TORSDOF 5
ENDMDL
MODEL 2
REMARK VINA RESULT:      -5.5     16.148     17.402
REMARK  Name = 
REMARK  5 active torsions:
REMARK  status: ('A' for Active; 'I' for Inactive)
REMARK    1  A    between atoms: O_5  and  C_10
REMARK    2  A    between atoms: N_9  and  C_20
REMARK    3  A    between atoms: N_9  and  C_25
REMARK    4  A    between atoms: C_10  and  C_11
REMARK    5  A    between atoms: C_18  and  C_19
REMARK                            x       y       z     vdW  Elec       q    Type
REMARK                         _______ _______ _______ _____ _____    ______ ____
ROOT
ATOM      1  F   UNL     1      66.635  48.354  56.676  0.00  0.00    +0.000 F 
ATOM      2  F   UNL     1      67.547  49.455  58.966  0.00  0.00    +0.000 F 
ATOM      3  C   UNL     1      63.892  50.604  57.488  0.00  0.00    +0.000 A 
ATOM      4  C   UNL     1      64.632  49.640  56.767  0.00  0.00    +0.000 A 
ATOM      5  C   UNL     1      64.368  51.162  58.687  0.00  0.00    +0.000 A 
ATOM      6  C   UNL     1      65.879  49.275  57.293  0.00  0.00    +0.000 A 
ATOM      7  C   UNL     1      65.607  50.769  59.184  0.00  0.00    +0.000 A 
ATOM      8  C   UNL     1      66.353  49.828  58.484  0.00  0.00    +0.000 A 
ENDROOT
BRANCH   3  14
ATOM      9  O   UNL     1      62.554  51.673  55.902  0.00  0.00    +0.000 OA
ATOM     10  N   UNL     1      61.480  50.795  57.740  0.00  0.00    +0.000 N 
ATOM     11  C   UNL     1      60.284  51.840  59.094  0.00  0.00    +0.000 C 
ATOM     12  C   UNL     1      61.392  50.753  59.198  0.00  0.00    +0.000 C 
ATOM     13  C   UNL     1      60.174  51.436  57.593  0.00  0.00    +0.000 C 
ATOM     14  C   UNL     1      62.586  51.056  56.962  0.00  0.00    +0.000 C 
BRANCH  11  16
ATOM     15  N   UNL     1      59.620  54.091  59.895  0.00  0.00    +0.000 NA
ATOM     16  C   UNL     1      60.728  53.315  59.279  0.00  0.00    +0.000 C 
ATOM     17  C   UNL     1      61.977  53.423  60.171  0.00  0.00    +0.000 C 
ATOM     18  C   UNL     1      62.387  54.883  60.366  0.00  0.00    +0.000 C 
ATOM     19  C   UNL     1      59.980  55.515  59.961  0.00  0.00    +0.000 C 
ATOM     20  C   UNL     1      61.211  55.730  60.840  0.00  0.00    +0.000 C 
ATOM     21  H   UNL     1      59.509  53.767  60.859  0.00  0.00    +0.000 HD
ENDBRANCH  11  16
BRANCH  11  22
ATOM     22  O   UNL     1      59.089  51.573  59.885  0.00  0.00    +0.000 OA
ATOM     23  H   UNL     1      59.162  50.620  60.079  0.00  0.00    +0.000 HD
ENDBRANCH  11  22
ENDBRANCH   3  14
BRANCH   4  24
ATOM     24  N   UNL     1      64.143  49.154  55.535  0.00  0.00    +0.000 N 
ATOM     25  H   UNL     1      64.226  49.829  54.766  0.00  0.00    +0.000 HD
BRANCH  24  28
ATOM     26  I   UNL     1      62.270  43.444  53.640  0.00  0.00    +0.000 I 
ATOM     27  F   UNL     1      61.498  48.494  55.267  0.00  0.00    +0.000 F 
ATOM     28  C   UNL     1      63.779  47.866  55.099  0.00  0.00    +0.000 A 
ATOM     29  C   UNL     1      62.412  47.551  54.986  0.00  0.00    +0.000 A 
ATOM     30  C   UNL     1      64.698  46.858  54.796  0.00  0.00    +0.000 A 
ATOM     31  C   UNL     1      61.966  46.298  54.575  0.00  0.00    +0.000 A 
ATOM     32  C   UNL     1      64.266  45.590  54.381  0.00  0.00    +0.000 A 
ATOM     33  C   UNL     1      62.903  45.317  54.270  0.00  0.00    +0.000 A 
ENDBRANCH  24  28
ENDBRANCH   4  24
TORSDOF 5
ENDMDL
MODEL 3
REMARK VINA RESULT:      -5.5     17.541     18.942
REMARK  Name = 
REMARK  5 active torsions:
REMARK  status: ('A' for Active; 'I' for Inactive)
REMARK    1  A    between atoms: O_5  and  C_10
REMARK    2  A    between atoms: N_9  and  C_20
REMARK    3  A    between atoms: N_9  and  C_25
REMARK    4  A    between atoms: C_10  and  C_11
REMARK    5  A    between atoms: C_18  and  C_19
REMARK                            x       y       z     vdW  Elec       q    Type
REMARK                         _______ _______ _______ _____ _____    ______ ____
ROOT
ATOM      1  F   UNL     1      63.632  55.258  62.218  0.00  0.00    +0.000 F 
ATOM      2  F   UNL     1      61.255  55.702  63.417  0.00  0.00    +0.000 F 
ATOM      3  C   UNL     1      61.350  54.616  59.457  0.00  0.00    +0.000 A 
ATOM      4  C   UNL     1      62.577  54.748  60.144  0.00  0.00    +0.000 A 
ATOM      5  C   UNL     1      60.115  54.835  60.092  0.00  0.00    +0.000 A 
ATOM      6  C   UNL     1      62.511  55.128  61.492  0.00  0.00    +0.000 A 
ATOM      7  C   UNL     1      60.088  55.202  61.435  0.00  0.00    +0.000 A 
ATOM      8  C   UNL     1      61.286  55.345  62.124  0.00  0.00    +0.000 A 
ENDROOT
BRANCH   3  14
ATOM      9  O   UNL     1      61.012  55.093  57.198  0.00  0.00    +0.000 OA
ATOM     10  N   UNL     1      61.706  52.959  57.712  0.00  0.00    +0.000 N 
ATOM     11  C   UNL     1      60.718  51.184  57.234  0.00  0.00    +0.000 C 
ATOM     12  C   UNL     1      61.451  51.745  58.485  0.00  0.00    +0.000 C 
ATOM     13  C   UNL     1      61.452  52.300  56.432  0.00  0.00    +0.000 C 
ATOM     14  C   UNL     1      61.357  54.254  58.024  0.00  0.00    +0.000 C 
BRANCH  11  16
ATOM     15  N   UNL     1      58.570  50.133  56.577  0.00  0.00    +0.000 NA
ATOM     16  C   UNL     1      59.175  51.342  57.192  0.00  0.00    +0.000 C 
ATOM     17  C   UNL     1      58.589  51.541  58.601  0.00  0.00    +0.000 C 
ATOM     18  C   UNL     1      57.066  51.669  58.548  0.00  0.00    +0.000 C 
ATOM     19  C   UNL     1      57.121  50.322  56.417  0.00  0.00    +0.000 C 
ATOM     20  C   UNL     1      56.439  50.516  57.771  0.00  0.00    +0.000 C 
ATOM     21  H   UNL     1      58.698  49.354  57.227  0.00  0.00    +0.000 HD
ENDBRANCH  11  16
BRANCH  11  22
ATOM     22  O   UNL     1      61.092  49.824  56.864  0.00  0.00    +0.000 OA
ATOM     23  H   UNL     1      60.298  49.307  57.097  0.00  0.00    +0.000 HD
ENDBRANCH  11  22
ENDBRANCH   3  14
BRANCH   4  24
ATOM     24  N   UNL     1      63.794  54.580  59.449  0.00  0.00    +0.000 N 
ATOM     25  H   UNL     1      64.000  55.342  58.793  0.00  0.00    +0.000 HD
BRANCH  24  28
ATOM     26  I   UNL     1      68.803  50.868  60.363  0.00  0.00    +0.000 I 
ATOM     27  F   UNL     1      66.058  55.460  60.715  0.00  0.00    +0.000 F 
ATOM     28  C   UNL     1      64.882  53.707  59.636  0.00  0.00    +0.000 A 
ATOM     29  C   UNL     1      66.038  54.191  60.275  0.00  0.00    +0.000 A 
ATOM     30  C   UNL     1      64.900  52.380  59.195  0.00  0.00    +0.000 A 
ATOM     31  C   UNL     1      67.162  53.398  60.488  0.00  0.00    +0.000 A 
ATOM     32  C   UNL     1      66.024  51.568  59.400  0.00  0.00    +0.000 A 
ATOM     33  C   UNL     1      67.148  52.080  60.048  0.00  0.00    +0.000 A 
ENDBRANCH  24  28
ENDBRANCH   4  24
TORSDOF 5
ENDMDL
MODEL 4
REMARK VINA RESULT:      -5.4      8.934     11.519
REMARK  Name = 
REMARK  5 active torsions:
REMARK  status: ('A' for Active; 'I' for Inactive)
REMARK    1  A    between atoms: O_5  and  C_10
REMARK    2  A    between atoms: N_9  and  C_20
REMARK    3  A    between atoms: N_9  and  C_25
REMARK    4  A    between atoms: C_10  and  C_11
REMARK    5  A    between atoms: C_18  and  C_19
REMARK                            x       y       z     vdW  Elec       q    Type
REMARK                         _______ _______ _______ _____ _____    ______ ____
ROOT
ATOM      1  F   UNL     1      72.431  38.738  58.516  0.00  0.00    +0.000 F 
ATOM      2  F   UNL     1      71.549  36.323  57.692  0.00  0.00    +0.000 F 
ATOM      3  C   UNL     1      71.411  37.269  61.686  0.00  0.00    +0.000 A 
ATOM      4  C   UNL     1      71.927  38.230  60.788  0.00  0.00    +0.000 A 
ATOM      5  C   UNL     1      70.940  36.020  61.247  0.00  0.00    +0.000 A 
ATOM      6  C   UNL     1      71.969  37.874  59.433  0.00  0.00    +0.000 A 
ATOM      7  C   UNL     1      70.989  35.704  59.892  0.00  0.00    +0.000 A 
ATOM      8  C   UNL     1      71.502  36.633  58.996  0.00  0.00    +0.000 A 
ENDROOT
BRANCH   3  14
ATOM      9  O   UNL     1      72.374  37.351  63.810  0.00  0.00    +0.000 OA
ATOM     10  N   UNL     1      70.185  38.045  63.639  0.00  0.00    +0.000 N 
ATOM     11  C   UNL     1      68.552  37.265  64.678  0.00  0.00    +0.000 C 
ATOM     12  C   UNL     1      68.828  37.710  63.213  0.00  0.00    +0.000 C 
ATOM     13  C   UNL     1      69.825  38.080  65.056  0.00  0.00    +0.000 C 
ATOM     14  C   UNL     1      71.376  37.574  63.132  0.00  0.00    +0.000 C 
BRANCH  11  16
ATOM     15  N   UNL     1      67.620  35.331  65.919  0.00  0.00    +0.000 NA
ATOM     16  C   UNL     1      68.702  35.753  64.993  0.00  0.00    +0.000 C 
ATOM     17  C   UNL     1      68.636  34.899  63.715  0.00  0.00    +0.000 C 
ATOM     18  C   UNL     1      68.758  33.411  64.043  0.00  0.00    +0.000 C 
ATOM     19  C   UNL     1      67.821  33.933  66.325  0.00  0.00    +0.000 C 
ATOM     20  C   UNL     1      67.760  32.996  65.119  0.00  0.00    +0.000 C 
ATOM     21  H   UNL     1      66.736  35.367  65.405  0.00  0.00    +0.000 HD
ENDBRANCH  11  16
BRANCH  11  22
ATOM     22  O   UNL     1      67.312  37.775  65.250  0.00  0.00    +0.000 OA
ATOM     23  H   UNL     1      66.848  38.144  64.475  0.00  0.00    +0.000 HD
ENDBRANCH  11  22
ENDBRANCH   3  14
BRANCH   4  24
ATOM     24  N   UNL     1      72.446  39.447  61.281  0.00  0.00    +0.000 N 
ATOM     25  H   UNL     1      73.299  39.332  61.842  0.00  0.00    +0.000 HD
BRANCH  24  28
ATOM     26  I   UNL     1      70.975  45.448  60.046  0.00  0.00    +0.000 I 
ATOM     27  F   UNL     1      70.329  40.711  62.473  0.00  0.00    +0.000 F 
ATOM     28  C   UNL     1      72.167  40.792  60.977  0.00  0.00    +0.000 A 
ATOM     29  C   UNL     1      71.063  41.410  61.592  0.00  0.00    +0.000 A 
ATOM     30  C   UNL     1      72.906  41.555  60.069  0.00  0.00    +0.000 A 
ATOM     31  C   UNL     1      70.709  42.732  61.337  0.00  0.00    +0.000 A 
ATOM     32  C   UNL     1      72.563  42.887  59.800  0.00  0.00    +0.000 A 
ATOM     33  C   UNL     1      71.468  43.470  60.437  0.00  0.00    +0.000 A 
ENDBRANCH  24  28
ENDBRANCH   4  24
TORSDOF 5
ENDMDL
MODEL 5
REMARK VINA RESULT:      -5.3     17.247     19.126
REMARK  Name = 
REMARK  5 active torsions:
REMARK  status: ('A' for Active; 'I' for Inactive)
REMARK    1  A    between atoms: O_5  and  C_10
REMARK    2  A    between atoms: N_9  and  C_20
REMARK    3  A    between atoms: N_9  and  C_25
REMARK    4  A    between atoms: C_10  and  C_11
REMARK    5  A    between atoms: C_18  and  C_19
REMARK                            x       y       z     vdW  Elec       q    Type
REMARK                         _______ _______ _______ _____ _____    ______ ____
ROOT
ATOM      1  F   UNL     1      64.235  54.905  61.808  0.00  0.00    +0.000 F 
ATOM      2  F   UNL     1      62.277  55.713  63.483  0.00  0.00    +0.000 F 
ATOM      3  C   UNL     1      61.319  54.577  59.655  0.00  0.00    +0.000 A 
ATOM      4  C   UNL     1      62.676  54.532  60.046  0.00  0.00    +0.000 A 
ATOM      5  C   UNL     1      60.304  54.985  60.538  0.00  0.00    +0.000 A 
ATOM      6  C   UNL     1      62.972  54.935  61.356  0.00  0.00    +0.000 A 
ATOM      7  C   UNL     1      60.634  55.368  61.835  0.00  0.00    +0.000 A 
ATOM      8  C   UNL     1      61.965  55.340  62.234  0.00  0.00    +0.000 A 
ENDROOT
BRANCH   3  14
ATOM      9  O   UNL     1      60.932  55.068  57.407  0.00  0.00    +0.000 OA
ATOM     10  N   UNL     1      60.595  52.887  58.062  0.00  0.00    +0.000 N 
ATOM     11  C   UNL     1      58.827  51.794  57.875  0.00  0.00    +0.000 C 
ATOM     12  C   UNL     1      59.907  51.979  58.979  0.00  0.00    +0.000 C 
ATOM     13  C   UNL     1      59.880  52.383  56.890  0.00  0.00    +0.000 C 
ATOM     14  C   UNL     1      60.951  54.200  58.274  0.00  0.00    +0.000 C 
BRANCH  11  16
ATOM     15  N   UNL     1      56.951  52.837  56.632  0.00  0.00    +0.000 NA
ATOM     16  C   UNL     1      57.555  52.678  57.980  0.00  0.00    +0.000 C 
ATOM     17  C   UNL     1      56.515  52.062  58.932  0.00  0.00    +0.000 C 
ATOM     18  C   UNL     1      55.258  52.930  59.005  0.00  0.00    +0.000 C 
ATOM     19  C   UNL     1      55.819  53.773  56.696  0.00  0.00    +0.000 C 
ATOM     20  C   UNL     1      54.719  53.242  57.613  0.00  0.00    +0.000 C 
ATOM     21  H   UNL     1      56.571  51.930  56.351  0.00  0.00    +0.000 HD
ENDBRANCH  11  16
BRANCH  11  22
ATOM     22  O   UNL     1      58.453  50.410  57.610  0.00  0.00    +0.000 OA
ATOM     23  H   UNL     1      59.233  50.059  57.140  0.00  0.00    +0.000 HD
ENDBRANCH  11  22
ENDBRANCH   3  14
BRANCH   4  24
ATOM     24  N   UNL     1      63.668  54.177  59.107  0.00  0.00    +0.000 N 
ATOM     25  H   UNL     1      63.642  54.741  58.250  0.00  0.00    +0.000 HD
BRANCH  24  28
ATOM     26  I   UNL     1      68.657  50.354  59.551  0.00  0.00    +0.000 I 
ATOM     27  F   UNL     1      63.424  51.449  59.154  0.00  0.00    +0.000 F 
ATOM     28  C   UNL     1      64.816  53.368  59.198  0.00  0.00    +0.000 A 
ATOM     29  C   UNL     1      64.658  51.970  59.236  0.00  0.00    +0.000 A 
ATOM     30  C   UNL     1      66.118  53.870  59.284  0.00  0.00    +0.000 A 
ATOM     31  C   UNL     1      65.740  51.099  59.339  0.00  0.00    +0.000 A 
ATOM     32  C   UNL     1      67.217  53.007  59.388  0.00  0.00    +0.000 A 
ATOM     33  C   UNL     1      67.023  51.626  59.413  0.00  0.00    +0.000 A 
ENDBRANCH  24  28
ENDBRANCH   4  24
TORSDOF 5
ENDMDL
MODEL 6
REMARK VINA RESULT:      -5.2     16.943     19.605
REMARK  Name = 
REMARK  5 active torsions:
REMARK  status: ('A' for Active; 'I' for Inactive)
REMARK    1  A    between atoms: O_5  and  C_10
REMARK    2  A    between atoms: N_9  and  C_20
REMARK    3  A    between atoms: N_9  and  C_25
REMARK    4  A    between atoms: C_10  and  C_11
REMARK    5  A    between atoms: C_18  and  C_19
REMARK                            x       y       z     vdW  Elec       q    Type
REMARK                         _______ _______ _______ _____ _____    ______ ____
ROOT
ATOM      1  F   UNL     1      63.509  54.450  61.767  0.00  0.00    +0.000 F 
ATOM      2  F   UNL     1      63.351  57.105  62.232  0.00  0.00    +0.000 F 
ATOM      3  C   UNL     1      60.753  55.362  59.573  0.00  0.00    +0.000 A 
ATOM      4  C   UNL     1      61.707  54.540  60.212  0.00  0.00    +0.000 A 
ATOM      5  C   UNL     1      60.667  56.741  59.831  0.00  0.00    +0.000 A 
ATOM      6  C   UNL     1      62.585  55.166  61.108  0.00  0.00    +0.000 A 
ATOM      7  C   UNL     1      61.550  57.327  60.734  0.00  0.00    +0.000 A 
ATOM      8  C   UNL     1      62.501  56.535  61.366  0.00  0.00    +0.000 A 
ENDROOT
BRANCH   3  14
ATOM      9  O   UNL     1      58.959  53.989  58.985  0.00  0.00    +0.000 OA
ATOM     10  N   UNL     1      60.031  55.082  57.266  0.00  0.00    +0.000 N 
ATOM     11  C   UNL     1      60.935  54.197  55.606  0.00  0.00    +0.000 C 
ATOM     12  C   UNL     1      61.300  55.345  56.589  0.00  0.00    +0.000 C 
ATOM     13  C   UNL     1      59.475  54.356  56.126  0.00  0.00    +0.000 C 
ATOM     14  C   UNL     1      59.824  54.764  58.590  0.00  0.00    +0.000 C 
BRANCH  11  16
ATOM     15  N   UNL     1      60.522  51.752  55.571  0.00  0.00    +0.000 NA
ATOM     16  C   UNL     1      61.523  52.794  55.914  0.00  0.00    +0.000 C 
ATOM     17  C   UNL     1      62.815  52.536  55.118  0.00  0.00    +0.000 C 
ATOM     18  C   UNL     1      63.369  51.141  55.411  0.00  0.00    +0.000 C 
ATOM     19  C   UNL     1      61.017  50.427  55.973  0.00  0.00    +0.000 C 
ATOM     20  C   UNL     1      62.299  50.070  55.224  0.00  0.00    +0.000 C 
ATOM     21  H   UNL     1      60.423  51.736  54.553  0.00  0.00    +0.000 HD
ENDBRANCH  11  16
BRANCH  11  22
ATOM     22  O   UNL     1      61.117  54.518  54.196  0.00  0.00    +0.000 OA
ATOM     23  H   UNL     1      62.088  54.531  54.097  0.00  0.00    +0.000 HD
ENDBRANCH  11  22
ENDBRANCH   3  14
BRANCH   4  24
ATOM     24  N   UNL     1      61.796  53.172  59.874  0.00  0.00    +0.000 N 
ATOM     25  H   UNL     1      60.884  52.709  59.791  0.00  0.00    +0.000 HD
BRANCH  24  28
ATOM     26  I   UNL     1      66.428  49.402  57.864  0.00  0.00    +0.000 I 
ATOM     27  F   UNL     1      61.487  50.459  59.659  0.00  0.00    +0.000 F 
ATOM     28  C   UNL     1      62.861  52.376  59.411  0.00  0.00    +0.000 A 
ATOM     29  C   UNL     1      62.678  50.983  59.326  0.00  0.00    +0.000 A 
ATOM     30  C   UNL     1      64.113  52.882  59.052  0.00  0.00    +0.000 A 
ATOM     31  C   UNL     1      63.682  50.124  58.890  0.00  0.00    +0.000 A 
ATOM     32  C   UNL     1      65.136  52.031  58.612  0.00  0.00    +0.000 A 
ATOM     33  C   UNL     1      64.914  50.656  58.531  0.00  0.00    +0.000 A 
ENDBRANCH  24  28
ENDBRANCH   4  24
TORSDOF 5
ENDMDL
MODEL 7
REMARK VINA RESULT:      -5.2     35.247     37.985
REMARK  Name = 
REMARK  5 active torsions:
REMARK  status: ('A' for Active; 'I' for Inactive)
REMARK    1  A    between atoms: O_5  and  C_10
REMARK    2  A    between atoms: N_9  and  C_20
REMARK    3  A    between atoms: N_9  and  C_25
REMARK    4  A    between atoms: C_10  and  C_11
REMARK    5  A    between atoms: C_18  and  C_19
REMARK                            x       y       z     vdW  Elec       q    Type
REMARK                         _______ _______ _______ _____ _____    ______ ____
ROOT
ATOM      1  F   UNL     1      57.827  73.768  85.454  0.00  0.00    +0.000 F 
ATOM      2  F   UNL     1      59.007  74.056  87.864  0.00  0.00    +0.000 F 
ATOM      3  C   UNL     1      58.754  70.323  86.173  0.00  0.00    +0.000 A 
ATOM      4  C   UNL     1      58.210  71.417  85.463  0.00  0.00    +0.000 A 
ATOM      5  C   UNL     1      59.380  70.484  87.421  0.00  0.00    +0.000 A 
ATOM      6  C   UNL     1      58.305  72.677  86.071  0.00  0.00    +0.000 A 
ATOM      7  C   UNL     1      59.464  71.752  87.990  0.00  0.00    +0.000 A 
ATOM      8  C   UNL     1      58.926  72.838  87.310  0.00  0.00    +0.000 A 
ENDROOT
BRANCH   3  14
ATOM      9  O   UNL     1      59.508  68.588  84.805  0.00  0.00    +0.000 OA
ATOM     10  N   UNL     1      57.550  68.220  85.959  0.00  0.00    +0.000 N 
ATOM     11  C   UNL     1      55.695  67.737  85.132  0.00  0.00    +0.000 C 
ATOM     12  C   UNL     1      56.198  68.692  86.252  0.00  0.00    +0.000 C 
ATOM     13  C   UNL     1      57.074  67.025  85.264  0.00  0.00    +0.000 C 
ATOM     14  C   UNL     1      58.651  68.964  85.599  0.00  0.00    +0.000 C 
BRANCH  11  16
ATOM     15  N   UNL     1      55.068  67.291  82.774  0.00  0.00    +0.000 NA
ATOM     16  C   UNL     1      55.481  68.355  83.725  0.00  0.00    +0.000 C 
ATOM     17  C   UNL     1      54.406  69.457  83.749  0.00  0.00    +0.000 C 
ATOM     18  C   UNL     1      54.187  70.038  82.352  0.00  0.00    +0.000 C 
ATOM     19  C   UNL     1      54.982  67.838  81.413  0.00  0.00    +0.000 C 
ATOM     20  C   UNL     1      53.926  68.939  81.328  0.00  0.00    +0.000 C 
ATOM     21  H   UNL     1      54.125  66.989  83.033  0.00  0.00    +0.000 HD
ENDBRANCH  11  16
BRANCH  11  22
ATOM     22  O   UNL     1      54.548  66.915  85.497  0.00  0.00    +0.000 OA
ATOM     23  H   UNL     1      53.910  67.099  84.783  0.00  0.00    +0.000 HD
ENDBRANCH  11  22
ENDBRANCH   3  14
BRANCH   4  24
ATOM     24  N   UNL     1      57.535  71.199  84.243  0.00  0.00    +0.000 N 
ATOM     25  H   UNL     1      56.672  70.653  84.343  0.00  0.00    +0.000 HD
BRANCH  24  28
ATOM     26  I   UNL     1      57.964  73.840  78.538  0.00  0.00    +0.000 I 
ATOM     27  F   UNL     1      55.762  73.095  83.369  0.00  0.00    +0.000 F 
ATOM     28  C   UNL     1      57.682  71.764  82.962  0.00  0.00    +0.000 A 
ATOM     29  C   UNL     1      56.746  72.724  82.535  0.00  0.00    +0.000 A 
ATOM     30  C   UNL     1      58.692  71.407  82.065  0.00  0.00    +0.000 A 
ATOM     31  C   UNL     1      56.811  73.323  81.279  0.00  0.00    +0.000 A 
ATOM     32  C   UNL     1      58.771  71.999  80.797  0.00  0.00    +0.000 A 
ATOM     33  C   UNL     1      57.832  72.956  80.411  0.00  0.00    +0.000 A 
ENDBRANCH  24  28
ENDBRANCH   4  24
TORSDOF 5
ENDMDL
MODEL 8
REMARK VINA RESULT:      -5.2     19.229     22.095
REMARK  Name = 
REMARK  5 active torsions:
REMARK  status: ('A' for Active; 'I' for Inactive)
REMARK    1  A    between atoms: O_5  and  C_10
REMARK    2  A    between atoms: N_9  and  C_20
REMARK    3  A    between atoms: N_9  and  C_25
REMARK    4  A    between atoms: C_10  and  C_11
REMARK    5  A    between atoms: C_18  and  C_19
REMARK                            x       y       z     vdW  Elec       q    Type
REMARK                         _______ _______ _______ _____ _____    ______ ____
ROOT
ATOM      1  F   UNL     1      64.071  56.979  61.594  0.00  0.00    +0.000 F 
ATOM      2  F   UNL     1      63.036  55.642  63.699  0.00  0.00    +0.000 F 
ATOM      3  C   UNL     1      60.709  56.299  60.380  0.00  0.00    +0.000 A 
ATOM      4  C   UNL     1      62.033  56.791  60.376  0.00  0.00    +0.000 A 
ATOM      5  C   UNL     1      60.182  55.591  61.474  0.00  0.00    +0.000 A 
ATOM      6  C   UNL     1      62.799  56.558  61.527  0.00  0.00    +0.000 A 
ATOM      7  C   UNL     1      60.976  55.370  62.596  0.00  0.00    +0.000 A 
ATOM      8  C   UNL     1      62.277  55.855  62.614  0.00  0.00    +0.000 A 
ENDROOT
BRANCH   3  14
ATOM      9  O   UNL     1      58.955  57.391  59.294  0.00  0.00    +0.000 OA
ATOM     10  N   UNL     1      60.055  55.759  58.099  0.00  0.00    +0.000 N 
ATOM     11  C   UNL     1      59.200  54.058  57.245  0.00  0.00    +0.000 C 
ATOM     12  C   UNL     1      60.493  54.365  58.053  0.00  0.00    +0.000 C 
ATOM     13  C   UNL     1      59.119  55.592  56.989  0.00  0.00    +0.000 C 
ATOM     14  C   UNL     1      59.841  56.546  59.209  0.00  0.00    +0.000 C 
BRANCH  11  16
ATOM     15  N   UNL     1      56.830  53.335  57.125  0.00  0.00    +0.000 NA
ATOM     16  C   UNL     1      57.980  53.527  58.045  0.00  0.00    +0.000 C 
ATOM     17  C   UNL     1      58.298  52.192  58.742  0.00  0.00    +0.000 C 
ATOM     18  C   UNL     1      57.081  51.668  59.504  0.00  0.00    +0.000 C 
ATOM     19  C   UNL     1      55.633  52.953  57.888  0.00  0.00    +0.000 C 
ATOM     20  C   UNL     1      55.845  51.624  58.612  0.00  0.00    +0.000 C 
ATOM     21  H   UNL     1      57.051  52.551  56.506  0.00  0.00    +0.000 HD
ENDBRANCH  11  16
BRANCH  11  22
ATOM     22  O   UNL     1      59.402  53.251  56.049  0.00  0.00    +0.000 OA
ATOM     23  H   UNL     1      58.941  52.418  56.264  0.00  0.00    +0.000 HD
ENDBRANCH  11  22
ENDBRANCH   3  14
BRANCH   4  24
ATOM     24  N   UNL     1      62.499  57.551  59.281  0.00  0.00    +0.000 N 
ATOM     25  H   UNL     1      62.553  57.018  58.405  0.00  0.00    +0.000 HD
BRANCH  24  28
ATOM     26  I   UNL     1      63.584  63.705  58.471  0.00  0.00    +0.000 I 
ATOM     27  F   UNL     1      65.019  58.557  58.910  0.00  0.00    +0.000 F 
ATOM     28  C   UNL     1      62.685  58.933  59.096  0.00  0.00    +0.000 A 
ATOM     29  C   UNL     1      63.993  59.423  58.923  0.00  0.00    +0.000 A 
ATOM     30  C   UNL     1      61.645  59.867  59.101  0.00  0.00    +0.000 A 
ATOM     31  C   UNL     1      64.266  60.777  58.747  0.00  0.00    +0.000 A 
ATOM     32  C   UNL     1      61.902  61.233  58.925  0.00  0.00    +0.000 A 
ATOM     33  C   UNL     1      63.211  61.681  58.747  0.00  0.00    +0.000 A 
ENDBRANCH  24  28
ENDBRANCH   4  24
TORSDOF 5
ENDMDL
MODEL 9
REMARK VINA RESULT:      -5.2     17.009     19.449
REMARK  Name = 
REMARK  5 active torsions:
REMARK  status: ('A' for Active; 'I' for Inactive)
REMARK    1  A    between atoms: O_5  and  C_10
REMARK    2  A    between atoms: N_9  and  C_20
REMARK    3  A    between atoms: N_9  and  C_25
REMARK    4  A    between atoms: C_10  and  C_11
REMARK    5  A    between atoms: C_18  and  C_19
REMARK                            x       y       z     vdW  Elec       q    Type
REMARK                         _______ _______ _______ _____ _____    ______ ____
ROOT
ATOM      1  F   UNL     1      60.634  54.212  60.992  0.00  0.00    +0.000 F 
ATOM      2  F   UNL     1      61.136  55.920  63.022  0.00  0.00    +0.000 F 
ATOM      3  C   UNL     1      63.869  55.537  59.981  0.00  0.00    +0.000 A 
ATOM      4  C   UNL     1      62.692  54.758  59.924  0.00  0.00    +0.000 A 
ATOM      5  C   UNL     1      64.116  56.434  61.034  0.00  0.00    +0.000 A 
ATOM      6  C   UNL     1      61.783  54.905  60.981  0.00  0.00    +0.000 A 
ATOM      7  C   UNL     1      63.186  56.561  62.062  0.00  0.00    +0.000 A 
ATOM      8  C   UNL     1      62.027  55.796  62.027  0.00  0.00    +0.000 A 
ENDROOT
BRANCH   3  14
ATOM      9  O   UNL     1      64.624  55.820  57.791  0.00  0.00    +0.000 OA
ATOM     10  N   UNL     1      66.046  54.739  59.243  0.00  0.00    +0.000 N 
ATOM     11  C   UNL     1      66.837  52.822  59.008  0.00  0.00    +0.000 C 
ATOM     12  C   UNL     1      66.222  53.634  60.183  0.00  0.00    +0.000 C 
ATOM     13  C   UNL     1      67.008  54.193  58.288  0.00  0.00    +0.000 C 
ATOM     14  C   UNL     1      64.882  55.397  58.913  0.00  0.00    +0.000 C 
BRANCH  11  16
ATOM     15  N   UNL     1      66.636  51.196  57.146  0.00  0.00    +0.000 NA
ATOM     16  C   UNL     1      65.887  51.865  58.241  0.00  0.00    +0.000 C 
ATOM     17  C   UNL     1      65.288  50.796  59.172  0.00  0.00    +0.000 C 
ATOM     18  C   UNL     1      64.375  49.845  58.398  0.00  0.00    +0.000 C 
ATOM     19  C   UNL     1      65.720  50.382  56.334  0.00  0.00    +0.000 C 
ATOM     20  C   UNL     1      65.079  49.276  57.171  0.00  0.00    +0.000 C 
ATOM     21  H   UNL     1      67.306  50.551  57.574  0.00  0.00    +0.000 HD
ENDBRANCH  11  16
BRANCH  11  22
ATOM     22  O   UNL     1      68.087  52.140  59.322  0.00  0.00    +0.000 OA
ATOM     23  H   UNL     1      68.567  52.799  59.859  0.00  0.00    +0.000 HD
ENDBRANCH  11  22
ENDBRANCH   3  14
BRANCH   4  24
ATOM     24  N   UNL     1      62.516  53.823  58.881  0.00  0.00    +0.000 N 
ATOM     25  H   UNL     1      63.395  53.417  58.541  0.00  0.00    +0.000 HD
BRANCH  24  28
ATOM     26  I   UNL     1      57.490  50.697  56.717  0.00  0.00    +0.000 I 
ATOM     27  F   UNL     1      61.852  51.320  59.772  0.00  0.00    +0.000 F 
ATOM     28  C   UNL     1      61.377  53.172  58.371  0.00  0.00    +0.000 A 
ATOM     29  C   UNL     1      61.070  51.880  58.836  0.00  0.00    +0.000 A 
ATOM     30  C   UNL     1      60.536  53.721  57.398  0.00  0.00    +0.000 A 
ATOM     31  C   UNL     1      59.970  51.162  58.375  0.00  0.00    +0.000 A 
ATOM     32  C   UNL     1      59.425  53.011  56.922  0.00  0.00    +0.000 A 
ATOM     33  C   UNL     1      59.146  51.737  57.415  0.00  0.00    +0.000 A 
ENDBRANCH  24  28
ENDBRANCH   4  24
TORSDOF 5
ENDMDL
