MODEL 1
REMARK VINA RESULT:      -6.4      0.000      0.000
REMARK  Name = COUMESTROL.pdbqt.pdb
REMARK  2 active torsions:
REMARK  status: ('A' for Active; 'I' for Inactive)
REMARK    1  A    between atoms: C_16  and  O_19
REMARK    2  A    between atoms: C_18  and  O_21
REMARK                            x       y       z     vdW  Elec       q    Type
REMARK                         _______ _______ _______ _____ _____    ______ ____
ROOT
ATOM      1  O   UNL     1      64.380  53.572  59.643  0.00  0.00    +0.000 OA
ATOM      2  O   UNL     1      60.339  52.977  59.702  0.00  0.00    +0.000 OA
ATOM      3  O   UNL     1      60.754  50.735  59.331  0.00  0.00    +0.000 OA
ATOM      4  C   UNL     1      62.611  52.173  59.488  0.00  0.00    +0.000 A 
ATOM      5  C   UNL     1      63.034  53.463  59.676  0.00  0.00    +0.000 A 
ATOM      6  C   UNL     1      63.788  51.401  59.322  0.00  0.00    +0.000 A 
ATOM      7  C   UNL     1      62.185  54.596  59.888  0.00  0.00    +0.000 A 
ATOM      8  C   UNL     1      64.849  52.305  59.424  0.00  0.00    +0.000 A 
ATOM      9  C   UNL     1      60.811  54.312  59.895  0.00  0.00    +0.000 A 
ATOM     10  C   UNL     1      61.199  51.864  59.493  0.00  0.00    +0.000 A 
ATOM     11  C   UNL     1      64.079  50.046  59.096  0.00  0.00    +0.000 A 
ATOM     12  C   UNL     1      62.626  55.900  60.077  0.00  0.00    +0.000 A 
ATOM     13  C   UNL     1      66.194  51.955  59.318  0.00  0.00    +0.000 A 
ATOM     14  C   UNL     1      59.865  55.311  60.089  0.00  0.00    +0.000 A 
ATOM     15  C   UNL     1      65.418  49.659  58.984  0.00  0.00    +0.000 A 
ATOM     16  C   UNL     1      66.441  50.599  59.094  0.00  0.00    +0.000 A 
ATOM     17  C   UNL     1      61.688  56.912  60.273  0.00  0.00    +0.000 A 
ATOM     18  C   UNL     1      60.323  56.611  60.277  0.00  0.00    +0.000 A 
ENDROOT
BRANCH  16  19
ATOM     19  O   UNL     1      67.730  50.150  58.975  0.00  0.00    +0.000 OA
ATOM     20  H   UNL     1      67.780  49.256  59.355  0.00  0.00    +0.000 HD
ENDBRANCH  16  19
BRANCH  18  21
ATOM     21  O   UNL     1      59.398  57.598  60.468  0.00  0.00    +0.000 OA
ATOM     22  H   UNL     1      59.288  57.736  61.425  0.00  0.00    +0.000 HD
ENDBRANCH  18  21
TORSDOF 2
ENDMDL
MODEL 2
REMARK VINA RESULT:      -6.2     37.765     39.317
REMARK  Name = COUMESTROL.pdbqt.pdb
REMARK  2 active torsions:
REMARK  status: ('A' for Active; 'I' for Inactive)
REMARK    1  A    between atoms: C_16  and  O_19
REMARK    2  A    between atoms: C_18  and  O_21
REMARK                            x       y       z     vdW  Elec       q    Type
REMARK                         _______ _______ _______ _____ _____    ______ ____
ROOT
ATOM      1  O   UNL     1      75.373  79.741  84.557  0.00  0.00    +0.000 OA
ATOM      2  O   UNL     1      74.856  83.621  83.390  0.00  0.00    +0.000 OA
ATOM      3  O   UNL     1      76.837  83.437  82.214  0.00  0.00    +0.000 OA
ATOM      4  C   UNL     1      76.100  81.545  83.406  0.00  0.00    +0.000 A 
ATOM      5  C   UNL     1      75.127  81.025  84.218  0.00  0.00    +0.000 A 
ATOM      6  C   UNL     1      77.042  80.504  83.214  0.00  0.00    +0.000 A 
ATOM      7  C   UNL     1      73.965  81.723  84.681  0.00  0.00    +0.000 A 
ATOM      8  C   UNL     1      76.551  79.415  83.941  0.00  0.00    +0.000 A 
ATOM      9  C   UNL     1      73.857  83.049  84.238  0.00  0.00    +0.000 A 
ATOM     10  C   UNL     1      76.004  82.910  82.941  0.00  0.00    +0.000 A 
ATOM     11  C   UNL     1      78.249  80.354  82.512  0.00  0.00    +0.000 A 
ATOM     12  C   UNL     1      72.986  81.183  85.505  0.00  0.00    +0.000 A 
ATOM     13  C   UNL     1      77.182  78.174  84.022  0.00  0.00    +0.000 A 
ATOM     14  C   UNL     1      72.784  83.852  84.605  0.00  0.00    +0.000 A 
ATOM     15  C   UNL     1      78.908  79.123  82.571  0.00  0.00    +0.000 A 
ATOM     16  C   UNL     1      78.379  78.067  83.310  0.00  0.00    +0.000 A 
ATOM     17  C   UNL     1      71.903  81.977  85.881  0.00  0.00    +0.000 A 
ATOM     18  C   UNL     1      71.812  83.297  85.430  0.00  0.00    +0.000 A 
ENDROOT
BRANCH  16  19
ATOM     19  O   UNL     1      79.078  76.890  83.323  0.00  0.00    +0.000 OA
ATOM     20  H   UNL     1      79.925  77.041  83.778  0.00  0.00    +0.000 HD
ENDBRANCH  16  19
BRANCH  18  21
ATOM     21  O   UNL     1      70.753  84.080  85.794  0.00  0.00    +0.000 OA
ATOM     22  H   UNL     1      71.070  84.752  86.424  0.00  0.00    +0.000 HD
ENDBRANCH  18  21
TORSDOF 2
ENDMDL
MODEL 3
REMARK VINA RESULT:      -5.9     15.617     18.324
REMARK  Name = COUMESTROL.pdbqt.pdb
REMARK  2 active torsions:
REMARK  status: ('A' for Active; 'I' for Inactive)
REMARK    1  A    between atoms: C_16  and  O_19
REMARK    2  A    between atoms: C_18  and  O_21
REMARK                            x       y       z     vdW  Elec       q    Type
REMARK                         _______ _______ _______ _____ _____    ______ ____
ROOT
ATOM      1  O   UNL     1      60.851  38.553  67.043  0.00  0.00    +0.000 OA
ATOM      2  O   UNL     1      62.496  34.881  66.341  0.00  0.00    +0.000 OA
ATOM      3  O   UNL     1      64.327  35.564  67.575  0.00  0.00    +0.000 OA
ATOM      4  C   UNL     1      62.559  37.097  67.310  0.00  0.00    +0.000 A 
ATOM      5  C   UNL     1      61.322  37.318  66.765  0.00  0.00    +0.000 A 
ATOM      6  C   UNL     1      62.901  38.292  67.992  0.00  0.00    +0.000 A 
ATOM      7  C   UNL     1      60.576  36.380  65.982  0.00  0.00    +0.000 A 
ATOM      8  C   UNL     1      61.819  39.157  67.799  0.00  0.00    +0.000 A 
ATOM      9  C   UNL     1      61.206  35.142  65.784  0.00  0.00    +0.000 A 
ATOM     10  C   UNL     1      63.222  35.828  67.116  0.00  0.00    +0.000 A 
ATOM     11  C   UNL     1      63.995  38.743  68.747  0.00  0.00    +0.000 A 
ATOM     12  C   UNL     1      59.321  36.616  65.434  0.00  0.00    +0.000 A 
ATOM     13  C   UNL     1      61.747  40.452  68.309  0.00  0.00    +0.000 A 
ATOM     14  C   UNL     1      60.604  34.131  65.046  0.00  0.00    +0.000 A 
ATOM     15  C   UNL     1      63.956  40.037  69.275  0.00  0.00    +0.000 A 
ATOM     16  C   UNL     1      62.855  40.862  69.055  0.00  0.00    +0.000 A 
ATOM     17  C   UNL     1      58.705  35.610  64.691  0.00  0.00    +0.000 A 
ATOM     18  C   UNL     1      59.348  34.383  64.504  0.00  0.00    +0.000 A 
ENDROOT
BRANCH  16  19
ATOM     19  O   UNL     1      62.884  42.117  69.601  0.00  0.00    +0.000 OA
ATOM     20  H   UNL     1      63.762  42.260  69.996  0.00  0.00    +0.000 HD
ENDBRANCH  16  19
BRANCH  18  21
ATOM     21  O   UNL     1      58.750  33.393  63.777  0.00  0.00    +0.000 OA
ATOM     22  H   UNL     1      58.502  33.757  62.909  0.00  0.00    +0.000 HD
ENDBRANCH  18  21
TORSDOF 2
ENDMDL
MODEL 4
REMARK VINA RESULT:      -5.9     37.920     38.956
REMARK  Name = COUMESTROL.pdbqt.pdb
REMARK  2 active torsions:
REMARK  status: ('A' for Active; 'I' for Inactive)
REMARK    1  A    between atoms: C_16  and  O_19
REMARK    2  A    between atoms: C_18  and  O_21
REMARK                            x       y       z     vdW  Elec       q    Type
REMARK                         _______ _______ _______ _____ _____    ______ ____
ROOT
ATOM      1  O   UNL     1      75.561  81.795  82.584  0.00  0.00    +0.000 OA
ATOM      2  O   UNL     1      78.428  78.892  82.766  0.00  0.00    +0.000 OA
ATOM      3  O   UNL     1      77.415  78.138  84.701  0.00  0.00    +0.000 OA
ATOM      4  C   UNL     1      76.461  80.004  83.630  0.00  0.00    +0.000 A 
ATOM      5  C   UNL     1      76.543  80.869  82.570  0.00  0.00    +0.000 A 
ATOM      6  C   UNL     1      75.331  80.418  84.379  0.00  0.00    +0.000 A 
ATOM      7  C   UNL     1      77.538  80.833  81.541  0.00  0.00    +0.000 A 
ATOM      8  C   UNL     1      74.811  81.522  83.696  0.00  0.00    +0.000 A 
ATOM      9  C   UNL     1      78.488  79.809  81.671  0.00  0.00    +0.000 A 
ATOM     10  C   UNL     1      77.431  78.944  83.779  0.00  0.00    +0.000 A 
ATOM     11  C   UNL     1      74.688  79.989  85.551  0.00  0.00    +0.000 A 
ATOM     12  C   UNL     1      77.611  81.716  80.470  0.00  0.00    +0.000 A 
ATOM     13  C   UNL     1      73.686  82.238  84.101  0.00  0.00    +0.000 A 
ATOM     14  C   UNL     1      79.514  79.649  80.749  0.00  0.00    +0.000 A 
ATOM     15  C   UNL     1      73.556  80.685  85.986  0.00  0.00    +0.000 A 
ATOM     16  C   UNL     1      73.076  81.780  85.271  0.00  0.00    +0.000 A 
ATOM     17  C   UNL     1      78.636  81.567  79.537  0.00  0.00    +0.000 A 
ATOM     18  C   UNL     1      79.573  80.540  79.683  0.00  0.00    +0.000 A 
ENDROOT
BRANCH  16  19
ATOM     19  O   UNL     1      71.963  82.414  85.755  0.00  0.00    +0.000 OA
ATOM     20  H   UNL     1      71.352  81.741  86.101  0.00  0.00    +0.000 HD
ENDBRANCH  16  19
BRANCH  18  21
ATOM     21  O   UNL     1      80.580  80.389  78.772  0.00  0.00    +0.000 OA
ATOM     22  H   UNL     1      80.224  79.922  77.995  0.00  0.00    +0.000 HD
ENDBRANCH  18  21
TORSDOF 2
ENDMDL
MODEL 5
REMARK VINA RESULT:      -5.7     13.393     16.217
REMARK  Name = COUMESTROL.pdbqt.pdb
REMARK  2 active torsions:
REMARK  status: ('A' for Active; 'I' for Inactive)
REMARK    1  A    between atoms: C_16  and  O_19
REMARK    2  A    between atoms: C_18  and  O_21
REMARK                            x       y       z     vdW  Elec       q    Type
REMARK                         _______ _______ _______ _____ _____    ______ ____
ROOT
ATOM      1  O   UNL     1      63.993  37.281  53.681  0.00  0.00    +0.000 OA
ATOM      2  O   UNL     1      61.586  39.192  56.372  0.00  0.00    +0.000 OA
ATOM      3  O   UNL     1      61.234  37.142  57.378  0.00  0.00    +0.000 OA
ATOM      4  C   UNL     1      62.643  37.201  55.493  0.00  0.00    +0.000 A 
ATOM      5  C   UNL     1      63.215  37.989  54.528  0.00  0.00    +0.000 A 
ATOM      6  C   UNL     1      63.098  35.884  55.235  0.00  0.00    +0.000 A 
ATOM      7  C   UNL     1      63.036  39.403  54.393  0.00  0.00    +0.000 A 
ATOM      8  C   UNL     1      63.925  35.984  54.112  0.00  0.00    +0.000 A 
ATOM      9  C   UNL     1      62.197  39.987  55.353  0.00  0.00    +0.000 A 
ATOM     10  C   UNL     1      61.776  37.787  56.489  0.00  0.00    +0.000 A 
ATOM     11  C   UNL     1      62.908  34.621  55.819  0.00  0.00    +0.000 A 
ATOM     12  C   UNL     1      63.622  40.191  53.410  0.00  0.00    +0.000 A 
ATOM     13  C   UNL     1      64.584  34.907  53.522  0.00  0.00    +0.000 A 
ATOM     14  C   UNL     1      61.929  41.351  55.350  0.00  0.00    +0.000 A 
ATOM     15  C   UNL     1      63.554  33.518  55.252  0.00  0.00    +0.000 A 
ATOM     16  C   UNL     1      64.369  33.669  54.132  0.00  0.00    +0.000 A 
ATOM     17  C   UNL     1      63.362  41.561  53.395  0.00  0.00    +0.000 A 
ATOM     18  C   UNL     1      62.523  42.126  54.360  0.00  0.00    +0.000 A 
ENDROOT
BRANCH  16  19
ATOM     19  O   UNL     1      64.970  32.546  53.629  0.00  0.00    +0.000 OA
ATOM     20  H   UNL     1      65.930  32.625  53.766  0.00  0.00    +0.000 HD
ENDBRANCH  16  19
BRANCH  18  21
ATOM     21  O   UNL     1      62.264  43.467  54.351  0.00  0.00    +0.000 OA
ATOM     22  H   UNL     1      61.350  43.602  54.044  0.00  0.00    +0.000 HD
ENDBRANCH  18  21
TORSDOF 2
ENDMDL
MODEL 6
REMARK VINA RESULT:      -5.7     11.025     14.614
REMARK  Name = COUMESTROL.pdbqt.pdb
REMARK  2 active torsions:
REMARK  status: ('A' for Active; 'I' for Inactive)
REMARK    1  A    between atoms: C_16  and  O_19
REMARK    2  A    between atoms: C_18  and  O_21
REMARK                            x       y       z     vdW  Elec       q    Type
REMARK                         _______ _______ _______ _____ _____    ______ ____
ROOT
ATOM      1  O   UNL     1      61.931  41.860  54.848  0.00  0.00    +0.000 OA
ATOM      2  O   UNL     1      64.204  38.607  53.882  0.00  0.00    +0.000 OA
ATOM      3  O   UNL     1      65.522  40.017  52.612  0.00  0.00    +0.000 OA
ATOM      4  C   UNL     1      63.693  40.968  53.748  0.00  0.00    +0.000 A 
ATOM      5  C   UNL     1      62.628  40.735  54.579  0.00  0.00    +0.000 A 
ATOM      6  C   UNL     1      63.668  42.357  53.467  0.00  0.00    +0.000 A 
ATOM      7  C   UNL     1      62.259  39.464  55.124  0.00  0.00    +0.000 A 
ATOM      8  C   UNL     1      62.567  42.862  54.166  0.00  0.00    +0.000 A 
ATOM      9  C   UNL     1      63.087  38.396  54.747  0.00  0.00    +0.000 A 
ATOM     10  C   UNL     1      64.555  39.879  53.351  0.00  0.00    +0.000 A 
ATOM     11  C   UNL     1      64.445  43.245  52.706  0.00  0.00    +0.000 A 
ATOM     12  C   UNL     1      61.176  39.241  55.966  0.00  0.00    +0.000 A 
ATOM     13  C   UNL     1      62.179  44.201  54.162  0.00  0.00    +0.000 A 
ATOM     14  C   UNL     1      62.853  37.103  55.197  0.00  0.00    +0.000 A 
ATOM     15  C   UNL     1      64.085  44.596  52.679  0.00  0.00    +0.000 A 
ATOM     16  C   UNL     1      62.978  45.051  53.393  0.00  0.00    +0.000 A 
ATOM     17  C   UNL     1      60.930  37.948  56.425  0.00  0.00    +0.000 A 
ATOM     18  C   UNL     1      61.765  36.896  56.039  0.00  0.00    +0.000 A 
ENDROOT
BRANCH  16  19
ATOM     19  O   UNL     1      62.683  46.386  53.321  0.00  0.00    +0.000 OA
ATOM     20  H   UNL     1      62.329  46.669  54.182  0.00  0.00    +0.000 HD
ENDBRANCH  16  19
BRANCH  18  21
ATOM     21  O   UNL     1      61.529  35.626  56.486  0.00  0.00    +0.000 OA
ATOM     22  H   UNL     1      61.351  35.058  55.716  0.00  0.00    +0.000 HD
ENDBRANCH  18  21
TORSDOF 2
ENDMDL
MODEL 7
REMARK VINA RESULT:      -5.6     20.248     23.046
REMARK  Name = COUMESTROL.pdbqt.pdb
REMARK  2 active torsions:
REMARK  status: ('A' for Active; 'I' for Inactive)
REMARK    1  A    between atoms: C_16  and  O_19
REMARK    2  A    between atoms: C_18  and  O_21
REMARK                            x       y       z     vdW  Elec       q    Type
REMARK                         _______ _______ _______ _____ _____    ______ ____
ROOT
ATOM      1  O   UNL     1      50.156  33.154  58.964  0.00  0.00    +0.000 OA
ATOM      2  O   UNL     1      52.342  36.013  57.032  0.00  0.00    +0.000 OA
ATOM      3  O   UNL     1      51.743  37.480  58.713  0.00  0.00    +0.000 OA
ATOM      4  C   UNL     1      50.928  35.275  58.851  0.00  0.00    +0.000 A 
ATOM      5  C   UNL     1      50.899  34.038  58.263  0.00  0.00    +0.000 A 
ATOM      6  C   UNL     1      50.137  35.166  60.022  0.00  0.00    +0.000 A 
ATOM      7  C   UNL     1      51.563  33.677  57.047  0.00  0.00    +0.000 A 
ATOM      8  C   UNL     1      49.685  33.843  60.048  0.00  0.00    +0.000 A 
ATOM      9  C   UNL     1      52.293  34.711  56.443  0.00  0.00    +0.000 A 
ATOM     10  C   UNL     1      51.675  36.352  58.241  0.00  0.00    +0.000 A 
ATOM     11  C   UNL     1      49.752  36.028  61.062  0.00  0.00    +0.000 A 
ATOM     12  C   UNL     1      51.525  32.418  56.461  0.00  0.00    +0.000 A 
ATOM     13  C   UNL     1      48.868  33.310  61.044  0.00  0.00    +0.000 A 
ATOM     14  C   UNL     1      52.989  34.511  55.258  0.00  0.00    +0.000 A 
ATOM     15  C   UNL     1      48.933  35.526  62.078  0.00  0.00    +0.000 A 
ATOM     16  C   UNL     1      48.508  34.200  62.059  0.00  0.00    +0.000 A 
ATOM     17  C   UNL     1      52.220  32.203  55.271  0.00  0.00    +0.000 A 
ATOM     18  C   UNL     1      52.942  33.245  54.683  0.00  0.00    +0.000 A 
ENDROOT
BRANCH  16  19
ATOM     19  O   UNL     1      47.707  33.776  63.086  0.00  0.00    +0.000 OA
ATOM     20  H   UNL     1      46.901  33.386  62.705  0.00  0.00    +0.000 HD
ENDBRANCH  16  19
BRANCH  18  21
ATOM     21  O   UNL     1      53.626  33.041  53.518  0.00  0.00    +0.000 OA
ATOM     22  H   UNL     1      53.443  33.787  52.920  0.00  0.00    +0.000 HD
ENDBRANCH  18  21
TORSDOF 2
ENDMDL
MODEL 8
REMARK VINA RESULT:      -5.6     20.801     22.088
REMARK  Name = COUMESTROL.pdbqt.pdb
REMARK  2 active torsions:
REMARK  status: ('A' for Active; 'I' for Inactive)
REMARK    1  A    between atoms: C_16  and  O_19
REMARK    2  A    between atoms: C_18  and  O_21
REMARK                            x       y       z     vdW  Elec       q    Type
REMARK                         _______ _______ _______ _____ _____    ______ ____
ROOT
ATOM      1  O   UNL     1      53.052  33.449  59.598  0.00  0.00    +0.000 OA
ATOM      2  O   UNL     1      51.650  35.782  56.552  0.00  0.00    +0.000 OA
ATOM      3  O   UNL     1      50.616  37.091  58.151  0.00  0.00    +0.000 OA
ATOM      4  C   UNL     1      51.856  35.236  58.900  0.00  0.00    +0.000 A 
ATOM      5  C   UNL     1      52.630  34.166  58.534  0.00  0.00    +0.000 A 
ATOM      6  C   UNL     1      51.781  35.192  60.315  0.00  0.00    +0.000 A 
ATOM      7  C   UNL     1      52.979  33.810  57.191  0.00  0.00    +0.000 A 
ATOM      8  C   UNL     1      52.532  34.076  60.697  0.00  0.00    +0.000 A 
ATOM      9  C   UNL     1      52.461  34.658  56.201  0.00  0.00    +0.000 A 
ATOM     10  C   UNL     1      51.314  36.119  57.893  0.00  0.00    +0.000 A 
ATOM     11  C   UNL     1      51.167  35.964  61.315  0.00  0.00    +0.000 A 
ATOM     12  C   UNL     1      53.765  32.723  56.833  0.00  0.00    +0.000 A 
ATOM     13  C   UNL     1      52.718  33.668  62.017  0.00  0.00    +0.000 A 
ATOM     14  C   UNL     1      52.714  34.440  54.853  0.00  0.00    +0.000 A 
ATOM     15  C   UNL     1      51.334  35.583  62.650  0.00  0.00    +0.000 A 
ATOM     16  C   UNL     1      52.092  34.462  62.981  0.00  0.00    +0.000 A 
ATOM     17  C   UNL     1      54.028  32.491  55.483  0.00  0.00    +0.000 A 
ATOM     18  C   UNL     1      53.503  33.347  54.510  0.00  0.00    +0.000 A 
ENDROOT
BRANCH  16  19
ATOM     19  O   UNL     1      52.213  34.147  64.308  0.00  0.00    +0.000 OA
ATOM     20  H   UNL     1      53.159  34.109  64.529  0.00  0.00    +0.000 HD
ENDBRANCH  16  19
BRANCH  18  21
ATOM     21  O   UNL     1      53.756  33.126  53.186  0.00  0.00    +0.000 OA
ATOM     22  H   UNL     1      53.968  33.978  52.767  0.00  0.00    +0.000 HD
ENDBRANCH  18  21
TORSDOF 2
ENDMDL
MODEL 9
REMARK VINA RESULT:      -5.5     13.695     16.289
REMARK  Name = COUMESTROL.pdbqt.pdb
REMARK  2 active torsions:
REMARK  status: ('A' for Active; 'I' for Inactive)
REMARK    1  A    between atoms: C_16  and  O_19
REMARK    2  A    between atoms: C_18  and  O_21
REMARK                            x       y       z     vdW  Elec       q    Type
REMARK                         _______ _______ _______ _____ _____    ______ ____
ROOT
ATOM      1  O   UNL     1      55.938  65.002  69.391  0.00  0.00    +0.000 OA
ATOM      2  O   UNL     1      57.063  63.032  65.995  0.00  0.00    +0.000 OA
ATOM      3  O   UNL     1      59.099  64.113  66.149  0.00  0.00    +0.000 OA
ATOM      4  C   UNL     1      57.494  64.574  67.808  0.00  0.00    +0.000 A 
ATOM      5  C   UNL     1      56.230  64.312  68.267  0.00  0.00    +0.000 A 
ATOM      6  C   UNL     1      58.050  65.509  68.718  0.00  0.00    +0.000 A 
ATOM      7  C   UNL     1      55.291  63.418  67.660  0.00  0.00    +0.000 A 
ATOM      8  C   UNL     1      57.055  65.741  69.673  0.00  0.00    +0.000 A 
ATOM      9  C   UNL     1      55.749  62.779  66.498  0.00  0.00    +0.000 A 
ATOM     10  C   UNL     1      57.981  63.925  66.613  0.00  0.00    +0.000 A 
ATOM     11  C   UNL     1      59.274  66.184  68.845  0.00  0.00    +0.000 A 
ATOM     12  C   UNL     1      54.011  63.161  68.136  0.00  0.00    +0.000 A 
ATOM     13  C   UNL     1      57.193  66.606  70.757  0.00  0.00    +0.000 A 
ATOM     14  C   UNL     1      54.950  61.884  65.799  0.00  0.00    +0.000 A 
ATOM     15  C   UNL     1      59.446  67.060  69.921  0.00  0.00    +0.000 A 
ATOM     16  C   UNL     1      58.425  67.258  70.848  0.00  0.00    +0.000 A 
ATOM     17  C   UNL     1      53.198  62.264  67.444  0.00  0.00    +0.000 A 
ATOM     18  C   UNL     1      53.671  61.637  66.288  0.00  0.00    +0.000 A 
ENDROOT
BRANCH  16  19
ATOM     19  O   UNL     1      58.662  68.129  71.877  0.00  0.00    +0.000 OA
ATOM     20  H   UNL     1      59.490  67.868  72.315  0.00  0.00    +0.000 HD
ENDBRANCH  16  19
BRANCH  18  21
ATOM     21  O   UNL     1      52.880  60.757  65.605  0.00  0.00    +0.000 OA
ATOM     22  H   UNL     1      53.454  60.152  65.104  0.00  0.00    +0.000 HD
ENDBRANCH  18  21
TORSDOF 2
ENDMDL
