MODEL 1
REMARK VINA RESULT:      -6.4      0.000      0.000
REMARK  Name = CP466722.pdbqt.pdb
REMARK  3 active torsions:
REMARK  status: ('A' for Active; 'I' for Inactive)
REMARK    1  A    between atoms: C_5  and  C_23
REMARK    2  A    between atoms: C_14  and  O_16
REMARK    3  A    between atoms: C_15  and  O_18
REMARK                            x       y       z     vdW  Elec       q    Type
REMARK                         _______ _______ _______ _____ _____    ______ ____
ROOT
ATOM      1  N   UNL     1      74.429  81.380  84.183  0.00  0.00    +0.000 N 
ATOM      2  N   UNL     1      73.703  82.376  83.624  0.00  0.00    +0.000 NA
ATOM      3  N   UNL     1      72.755  81.719  85.587  0.00  0.00    +0.000 NA
ATOM      4  C   UNL     1      73.835  81.007  85.391  0.00  0.00    +0.000 A 
ATOM      5  C   UNL     1      72.699  82.554  84.496  0.00  0.00    +0.000 A 
ATOM      6  C   UNL     1      75.592  80.814  83.559  0.00  0.00    +0.000 A 
ATOM      7  N   UNL     1      76.146  79.730  84.164  0.00  0.00    +0.000 NA
ATOM      8  C   UNL     1      77.215  79.191  83.569  0.00  0.00    +0.000 A 
ATOM      9  N   UNL     1      77.771  79.622  82.434  0.00  0.00    +0.000 NA
ATOM     10  C   UNL     1      77.223  80.686  81.844  0.00  0.00    +0.000 A 
ATOM     11  C   UNL     1      76.109  81.357  82.366  0.00  0.00    +0.000 A 
ATOM     12  C   UNL     1      77.787  81.137  80.659  0.00  0.00    +0.000 A 
ATOM     13  C   UNL     1      75.628  82.495  81.676  0.00  0.00    +0.000 A 
ATOM     14  C   UNL     1      76.224  82.961  80.510  0.00  0.00    +0.000 A 
ATOM     15  C   UNL     1      77.281  82.240  79.967  0.00  0.00    +0.000 A 
ATOM     16  N   UNL     1      74.312  80.062  86.224  0.00  0.00    +0.000 N 
ATOM     17  H   UNL     1      73.693  79.701  86.942  0.00  0.00    +0.000 HD
ATOM     18  H   UNL     1      75.021  79.410  85.891  0.00  0.00    +0.000 HD
ENDROOT
BRANCH   5  19
ATOM     19  C   UNL     1      71.625  83.537  84.322  0.00  0.00    +0.000 A 
ATOM     20  N   UNL     1      70.572  83.198  83.528  0.00  0.00    +0.000 NA
ATOM     21  C   UNL     1      69.596  84.121  83.383  0.00  0.00    +0.000 A 
ATOM     22  C   UNL     1      69.607  85.366  83.986  0.00  0.00    +0.000 A 
ATOM     23  C   UNL     1      70.693  85.682  84.792  0.00  0.00    +0.000 A 
ATOM     24  C   UNL     1      71.720  84.763  84.968  0.00  0.00    +0.000 A 
ENDBRANCH   5  19
BRANCH  14  25
ATOM     25  O   UNL     1      75.682  84.057  79.895  0.00  0.00    +0.000 OA
ATOM     26  C   UNL     1      76.240  85.238  80.413  0.00  0.00    +0.000 C 
ENDBRANCH  14  25
BRANCH  15  27
ATOM     27  O   UNL     1      77.890  82.644  78.810  0.00  0.00    +0.000 OA
ATOM     28  C   UNL     1      78.216  81.529  78.019  0.00  0.00    +0.000 C 
ENDBRANCH  15  27
TORSDOF 3
ENDMDL
MODEL 2
REMARK VINA RESULT:      -6.2     26.075     27.613
REMARK  Name = CP466722.pdbqt.pdb
REMARK  3 active torsions:
REMARK  status: ('A' for Active; 'I' for Inactive)
REMARK    1  A    between atoms: C_5  and  C_23
REMARK    2  A    between atoms: C_14  and  O_16
REMARK    3  A    between atoms: C_15  and  O_18
REMARK                            x       y       z     vdW  Elec       q    Type
REMARK                         _______ _______ _______ _____ _____    ______ ____
ROOT
ATOM      1  N   UNL     1      59.552  66.991  69.316  0.00  0.00    +0.000 N 
ATOM      2  N   UNL     1      60.237  66.615  68.210  0.00  0.00    +0.000 NA
ATOM      3  N   UNL     1      61.430  68.157  69.386  0.00  0.00    +0.000 NA
ATOM      4  C   UNL     1      60.312  67.924  70.025  0.00  0.00    +0.000 A 
ATOM      5  C   UNL     1      61.363  67.340  68.282  0.00  0.00    +0.000 A 
ATOM      6  C   UNL     1      58.241  66.499  69.629  0.00  0.00    +0.000 A 
ATOM      7  N   UNL     1      57.614  67.061  70.697  0.00  0.00    +0.000 NA
ATOM      8  C   UNL     1      56.383  66.618  70.973  0.00  0.00    +0.000 A 
ATOM      9  N   UNL     1      55.722  65.684  70.284  0.00  0.00    +0.000 NA
ATOM     10  C   UNL     1      56.342  65.136  69.237  0.00  0.00    +0.000 A 
ATOM     11  C   UNL     1      57.637  65.497  68.844  0.00  0.00    +0.000 A 
ATOM     12  C   UNL     1      55.661  64.171  68.508  0.00  0.00    +0.000 A 
ATOM     13  C   UNL     1      58.213  64.828  67.737  0.00  0.00    +0.000 A 
ATOM     14  C   UNL     1      57.536  63.836  67.037  0.00  0.00    +0.000 A 
ATOM     15  C   UNL     1      56.225  63.545  67.394  0.00  0.00    +0.000 A 
ATOM     16  N   UNL     1      59.946  68.488  71.193  0.00  0.00    +0.000 N 
ATOM     17  H   UNL     1      60.442  69.317  71.501  0.00  0.00    +0.000 HD
ATOM     18  H   UNL     1      58.976  68.421  71.500  0.00  0.00    +0.000 HD
ENDROOT
BRANCH   5  19
ATOM     19  C   UNL     1      62.437  67.289  67.285  0.00  0.00    +0.000 A 
ATOM     20  N   UNL     1      62.097  67.034  65.992  0.00  0.00    +0.000 NA
ATOM     21  C   UNL     1      63.105  66.991  65.093  0.00  0.00    +0.000 A 
ATOM     22  C   UNL     1      64.437  67.191  65.408  0.00  0.00    +0.000 A 
ATOM     23  C   UNL     1      64.753  67.452  66.735  0.00  0.00    +0.000 A 
ATOM     24  C   UNL     1      63.748  67.504  67.693  0.00  0.00    +0.000 A 
ENDBRANCH   5  19
BRANCH  14  25
ATOM     25  O   UNL     1      58.158  63.256  65.965  0.00  0.00    +0.000 OA
ATOM     26  C   UNL     1      59.500  63.667  65.894  0.00  0.00    +0.000 C 
ENDBRANCH  14  25
BRANCH  15  27
ATOM     27  O   UNL     1      55.507  62.590  66.725  0.00  0.00    +0.000 OA
ATOM     28  C   UNL     1      54.522  62.045  67.568  0.00  0.00    +0.000 C 
ENDBRANCH  15  27
TORSDOF 3
ENDMDL
MODEL 3
REMARK VINA RESULT:      -6.2     57.701     58.750
REMARK  Name = CP466722.pdbqt.pdb
REMARK  3 active torsions:
REMARK  status: ('A' for Active; 'I' for Inactive)
REMARK    1  A    between atoms: C_5  and  C_23
REMARK    2  A    between atoms: C_14  and  O_16
REMARK    3  A    between atoms: C_15  and  O_18
REMARK                            x       y       z     vdW  Elec       q    Type
REMARK                         _______ _______ _______ _____ _____    ______ ____
ROOT
ATOM      1  N   UNL     1      51.892  34.960  57.774  0.00  0.00    +0.000 N 
ATOM      2  N   UNL     1      51.823  34.652  59.090  0.00  0.00    +0.000 NA
ATOM      3  N   UNL     1      50.806  36.651  58.696  0.00  0.00    +0.000 NA
ATOM      4  C   UNL     1      51.249  36.181  57.558  0.00  0.00    +0.000 A 
ATOM      5  C   UNL     1      51.163  35.695  59.618  0.00  0.00    +0.000 A 
ATOM      6  C   UNL     1      52.571  34.138  56.813  0.00  0.00    +0.000 A 
ATOM      7  N   UNL     1      52.680  34.632  55.551  0.00  0.00    +0.000 NA
ATOM      8  C   UNL     1      53.333  33.875  54.663  0.00  0.00    +0.000 A 
ATOM      9  N   UNL     1      53.889  32.686  54.917  0.00  0.00    +0.000 NA
ATOM     10  C   UNL     1      53.778  32.206  56.157  0.00  0.00    +0.000 A 
ATOM     11  C   UNL     1      53.110  32.889  57.182  0.00  0.00    +0.000 A 
ATOM     12  C   UNL     1      54.360  30.977  56.434  0.00  0.00    +0.000 A 
ATOM     13  C   UNL     1      53.024  32.273  58.453  0.00  0.00    +0.000 A 
ATOM     14  C   UNL     1      53.578  31.024  58.709  0.00  0.00    +0.000 A 
ATOM     15  C   UNL     1      54.301  30.395  57.703  0.00  0.00    +0.000 A 
ATOM     16  N   UNL     1      51.105  36.774  56.357  0.00  0.00    +0.000 N 
ATOM     17  H   UNL     1      50.843  37.753  56.335  0.00  0.00    +0.000 HD
ATOM     18  H   UNL     1      51.668  36.455  55.569  0.00  0.00    +0.000 HD
ENDROOT
BRANCH   5  19
ATOM     19  C   UNL     1      50.846  35.830  61.042  0.00  0.00    +0.000 A 
ATOM     20  N   UNL     1      51.881  35.933  61.921  0.00  0.00    +0.000 NA
ATOM     21  C   UNL     1      51.562  36.055  63.228  0.00  0.00    +0.000 A 
ATOM     22  C   UNL     1      50.267  36.084  63.713  0.00  0.00    +0.000 A 
ATOM     23  C   UNL     1      49.231  35.980  62.793  0.00  0.00    +0.000 A 
ATOM     24  C   UNL     1      49.514  35.851  61.439  0.00  0.00    +0.000 A 
ENDBRANCH   5  19
BRANCH  14  25
ATOM     25  O   UNL     1      53.468  30.510  59.973  0.00  0.00    +0.000 OA
ATOM     26  C   UNL     1      54.386  31.130  60.837  0.00  0.00    +0.000 C 
ENDBRANCH  14  25
BRANCH  15  27
ATOM     27  O   UNL     1      54.883  29.174  57.909  0.00  0.00    +0.000 OA
ATOM     28  C   UNL     1      56.283  29.284  57.827  0.00  0.00    +0.000 C 
ENDBRANCH  15  27
TORSDOF 3
ENDMDL
MODEL 4
REMARK VINA RESULT:      -6.1     47.016     48.415
REMARK  Name = CP466722.pdbqt.pdb
REMARK  3 active torsions:
REMARK  status: ('A' for Active; 'I' for Inactive)
REMARK    1  A    between atoms: C_5  and  C_23
REMARK    2  A    between atoms: C_14  and  O_16
REMARK    3  A    between atoms: C_15  and  O_18
REMARK                            x       y       z     vdW  Elec       q    Type
REMARK                         _______ _______ _______ _____ _____    ______ ____
ROOT
ATOM      1  N   UNL     1      56.479  39.446  71.196  0.00  0.00    +0.000 N 
ATOM      2  N   UNL     1      57.718  39.117  70.763  0.00  0.00    +0.000 NA
ATOM      3  N   UNL     1      56.548  40.133  69.095  0.00  0.00    +0.000 NA
ATOM      4  C   UNL     1      55.790  40.080  70.159  0.00  0.00    +0.000 A 
ATOM      5  C   UNL     1      57.726  39.543  69.491  0.00  0.00    +0.000 A 
ATOM      6  C   UNL     1      55.999  39.128  72.510  0.00  0.00    +0.000 A 
ATOM      7  N   UNL     1      54.691  39.397  72.767  0.00  0.00    +0.000 NA
ATOM      8  C   UNL     1      54.239  39.079  73.985  0.00  0.00    +0.000 A 
ATOM      9  N   UNL     1      54.962  38.515  74.957  0.00  0.00    +0.000 NA
ATOM     10  C   UNL     1      56.244  38.254  74.700  0.00  0.00    +0.000 A 
ATOM     11  C   UNL     1      56.850  38.548  73.471  0.00  0.00    +0.000 A 
ATOM     12  C   UNL     1      57.002  37.660  75.699  0.00  0.00    +0.000 A 
ATOM     13  C   UNL     1      58.227  38.259  73.316  0.00  0.00    +0.000 A 
ATOM     14  C   UNL     1      58.985  37.698  74.338  0.00  0.00    +0.000 A 
ATOM     15  C   UNL     1      58.351  37.345  75.522  0.00  0.00    +0.000 A 
ATOM     16  N   UNL     1      54.537  40.567  70.252  0.00  0.00    +0.000 N 
ATOM     17  H   UNL     1      54.044  40.788  69.393  0.00  0.00    +0.000 HD
ATOM     18  H   UNL     1      53.946  40.287  71.035  0.00  0.00    +0.000 HD
ENDROOT
BRANCH   5  19
ATOM     19  C   UNL     1      58.868  39.399  68.584  0.00  0.00    +0.000 A 
ATOM     20  N   UNL     1      59.700  40.466  68.429  0.00  0.00    +0.000 NA
ATOM     21  C   UNL     1      60.745  40.309  67.587  0.00  0.00    +0.000 A 
ATOM     22  C   UNL     1      61.012  39.145  66.889  0.00  0.00    +0.000 A 
ATOM     23  C   UNL     1      60.148  38.072  67.069  0.00  0.00    +0.000 A 
ATOM     24  C   UNL     1      59.060  38.191  67.924  0.00  0.00    +0.000 A 
ENDBRANCH   5  19
BRANCH  14  25
ATOM     25  O   UNL     1      60.305  37.431  74.096  0.00  0.00    +0.000 OA
ATOM     26  C   UNL     1      60.581  37.517  72.720  0.00  0.00    +0.000 C 
ENDBRANCH  14  25
BRANCH  15  27
ATOM     27  O   UNL     1      59.048  36.772  76.552  0.00  0.00    +0.000 OA
ATOM     28  C   UNL     1      58.665  37.348  77.776  0.00  0.00    +0.000 C 
ENDBRANCH  15  27
TORSDOF 3
ENDMDL
MODEL 5
REMARK VINA RESULT:      -5.9     58.382     59.360
REMARK  Name = CP466722.pdbqt.pdb
REMARK  3 active torsions:
REMARK  status: ('A' for Active; 'I' for Inactive)
REMARK    1  A    between atoms: C_5  and  C_23
REMARK    2  A    between atoms: C_14  and  O_16
REMARK    3  A    between atoms: C_15  and  O_18
REMARK                            x       y       z     vdW  Elec       q    Type
REMARK                         _______ _______ _______ _____ _____    ______ ____
ROOT
ATOM      1  N   UNL     1      51.344  35.213  57.830  0.00  0.00    +0.000 N 
ATOM      2  N   UNL     1      50.850  34.781  59.014  0.00  0.00    +0.000 NA
ATOM      3  N   UNL     1      50.692  37.048  58.876  0.00  0.00    +0.000 NA
ATOM      4  C   UNL     1      51.222  36.603  57.766  0.00  0.00    +0.000 A 
ATOM      5  C   UNL     1      50.468  35.914  59.621  0.00  0.00    +0.000 A 
ATOM      6  C   UNL     1      51.926  34.332  56.857  0.00  0.00    +0.000 A 
ATOM      7  N   UNL     1      52.505  34.913  55.773  0.00  0.00    +0.000 NA
ATOM      8  C   UNL     1      53.066  34.092  54.879  0.00  0.00    +0.000 A 
ATOM      9  N   UNL     1      53.111  32.759  54.970  0.00  0.00    +0.000 NA
ATOM     10  C   UNL     1      52.541  32.195  56.036  0.00  0.00    +0.000 A 
ATOM     11  C   UNL     1      51.906  32.935  57.043  0.00  0.00    +0.000 A 
ATOM     12  C   UNL     1      52.589  30.812  56.146  0.00  0.00    +0.000 A 
ATOM     13  C   UNL     1      51.304  32.233  58.114  0.00  0.00    +0.000 A 
ATOM     14  C   UNL     1      51.326  30.845  58.194  0.00  0.00    +0.000 A 
ATOM     15  C   UNL     1      52.025  30.132  57.227  0.00  0.00    +0.000 A 
ATOM     16  N   UNL     1      51.589  37.361  56.714  0.00  0.00    +0.000 N 
ATOM     17  H   UNL     1      51.684  38.361  56.855  0.00  0.00    +0.000 HD
ATOM     18  H   UNL     1      52.191  36.962  55.994  0.00  0.00    +0.000 HD
ENDROOT
BRANCH   5  19
ATOM     19  C   UNL     1      49.869  35.968  60.958  0.00  0.00    +0.000 A 
ATOM     20  N   UNL     1      48.537  36.230  61.052  0.00  0.00    +0.000 NA
ATOM     21  C   UNL     1      48.009  36.275  62.295  0.00  0.00    +0.000 A 
ATOM     22  C   UNL     1      48.734  36.070  63.455  0.00  0.00    +0.000 A 
ATOM     23  C   UNL     1      50.091  35.801  63.329  0.00  0.00    +0.000 A 
ATOM     24  C   UNL     1      50.675  35.748  62.069  0.00  0.00    +0.000 A 
ENDBRANCH   5  19
BRANCH  14  25
ATOM     25  O   UNL     1      50.739  30.247  59.276  0.00  0.00    +0.000 OA
ATOM     26  C   UNL     1      49.866  31.141  59.918  0.00  0.00    +0.000 C 
ENDBRANCH  14  25
BRANCH  15  27
ATOM     27  O   UNL     1      52.094  28.765  57.271  0.00  0.00    +0.000 OA
ATOM     28  C   UNL     1      51.206  28.205  56.335  0.00  0.00    +0.000 C 
ENDBRANCH  15  27
TORSDOF 3
ENDMDL
MODEL 6
REMARK VINA RESULT:      -5.9     45.663     47.079
REMARK  Name = CP466722.pdbqt.pdb
REMARK  3 active torsions:
REMARK  status: ('A' for Active; 'I' for Inactive)
REMARK    1  A    between atoms: C_5  and  C_23
REMARK    2  A    between atoms: C_14  and  O_16
REMARK    3  A    between atoms: C_15  and  O_18
REMARK                            x       y       z     vdW  Elec       q    Type
REMARK                         _______ _______ _______ _____ _____    ______ ____
ROOT
ATOM      1  N   UNL     1      58.915  39.319  70.667  0.00  0.00    +0.000 N 
ATOM      2  N   UNL     1      59.122  38.952  71.954  0.00  0.00    +0.000 NA
ATOM      3  N   UNL     1      56.905  38.831  71.449  0.00  0.00    +0.000 NA
ATOM      4  C   UNL     1      57.551  39.221  70.381  0.00  0.00    +0.000 A 
ATOM      5  C   UNL     1      57.888  38.666  72.397  0.00  0.00    +0.000 A 
ATOM      6  C   UNL     1      59.969  39.767  69.802  0.00  0.00    +0.000 A 
ATOM      7  N   UNL     1      59.601  40.233  68.579  0.00  0.00    +0.000 NA
ATOM      8  C   UNL     1      60.582  40.671  67.783  0.00  0.00    +0.000 A 
ATOM      9  N   UNL     1      61.881  40.696  68.094  0.00  0.00    +0.000 NA
ATOM     10  C   UNL     1      62.236  40.237  69.296  0.00  0.00    +0.000 A 
ATOM     11  C   UNL     1      61.313  39.737  70.224  0.00  0.00    +0.000 A 
ATOM     12  C   UNL     1      63.582  40.267  69.634  0.00  0.00    +0.000 A 
ATOM     13  C   UNL     1      61.802  39.244  71.457  0.00  0.00    +0.000 A 
ATOM     14  C   UNL     1      63.156  39.244  71.770  0.00  0.00    +0.000 A 
ATOM     15  C   UNL     1      64.049  39.813  70.869  0.00  0.00    +0.000 A 
ATOM     16  N   UNL     1      56.995  39.484  69.183  0.00  0.00    +0.000 N 
ATOM     17  H   UNL     1      55.990  39.617  69.139  0.00  0.00    +0.000 HD
ATOM     18  H   UNL     1      57.532  39.992  68.480  0.00  0.00    +0.000 HD
ENDROOT
BRANCH   5  19
ATOM     19  C   UNL     1      57.588  38.224  73.762  0.00  0.00    +0.000 A 
ATOM     20  N   UNL     1      58.614  38.165  74.655  0.00  0.00    +0.000 NA
ATOM     21  C   UNL     1      58.312  37.753  75.905  0.00  0.00    +0.000 A 
ATOM     22  C   UNL     1      57.042  37.397  76.321  0.00  0.00    +0.000 A 
ATOM     23  C   UNL     1      56.014  37.470  75.389  0.00  0.00    +0.000 A 
ATOM     24  C   UNL     1      56.281  37.886  74.091  0.00  0.00    +0.000 A 
ENDBRANCH   5  19
BRANCH  14  25
ATOM     25  O   UNL     1      63.541  38.770  72.995  0.00  0.00    +0.000 OA
ATOM     26  C   UNL     1      63.484  37.366  73.018  0.00  0.00    +0.000 C 
ENDBRANCH  14  25
BRANCH  15  27
ATOM     27  O   UNL     1      65.390  39.856  71.137  0.00  0.00    +0.000 OA
ATOM     28  C   UNL     1      66.058  38.835  70.437  0.00  0.00    +0.000 C 
ENDBRANCH  15  27
TORSDOF 3
ENDMDL
MODEL 7
REMARK VINA RESULT:      -5.7     28.286     29.875
REMARK  Name = CP466722.pdbqt.pdb
REMARK  3 active torsions:
REMARK  status: ('A' for Active; 'I' for Inactive)
REMARK    1  A    between atoms: C_5  and  C_23
REMARK    2  A    between atoms: C_14  and  O_16
REMARK    3  A    between atoms: C_15  and  O_18
REMARK                            x       y       z     vdW  Elec       q    Type
REMARK                         _______ _______ _______ _____ _____    ______ ____
ROOT
ATOM      1  N   UNL     1      57.133  64.104  67.372  0.00  0.00    +0.000 N 
ATOM      2  N   UNL     1      57.292  65.093  68.283  0.00  0.00    +0.000 NA
ATOM      3  N   UNL     1      59.269  64.659  67.239  0.00  0.00    +0.000 NA
ATOM      4  C   UNL     1      58.355  63.869  66.738  0.00  0.00    +0.000 A 
ATOM      5  C   UNL     1      58.593  65.403  68.179  0.00  0.00    +0.000 A 
ATOM      6  C   UNL     1      55.888  63.420  67.170  0.00  0.00    +0.000 A 
ATOM      7  N   UNL     1      55.902  62.358  66.321  0.00  0.00    +0.000 NA
ATOM      8  C   UNL     1      54.746  61.708  66.152  0.00  0.00    +0.000 A 
ATOM      9  N   UNL     1      53.591  62.009  66.752  0.00  0.00    +0.000 NA
ATOM     10  C   UNL     1      53.583  63.052  67.584  0.00  0.00    +0.000 A 
ATOM     11  C   UNL     1      54.720  63.830  67.843  0.00  0.00    +0.000 A 
ATOM     12  C   UNL     1      52.391  63.369  68.221  0.00  0.00    +0.000 A 
ATOM     13  C   UNL     1      54.591  64.935  68.719  0.00  0.00    +0.000 A 
ATOM     14  C   UNL     1      53.383  65.265  69.321  0.00  0.00    +0.000 A 
ATOM     15  C   UNL     1      52.285  64.439  69.112  0.00  0.00    +0.000 A 
ATOM     16  N   UNL     1      58.552  62.969  65.754  0.00  0.00    +0.000 N 
ATOM     17  H   UNL     1      59.506  62.707  65.530  0.00  0.00    +0.000 HD
ATOM     18  H   UNL     1      57.850  62.251  65.584  0.00  0.00    +0.000 HD
ENDROOT
BRANCH   5  19
ATOM     19  C   UNL     1      59.260  66.431  68.984  0.00  0.00    +0.000 A 
ATOM     20  N   UNL     1      58.593  66.931  70.060  0.00  0.00    +0.000 NA
ATOM     21  C   UNL     1      59.227  67.878  70.786  0.00  0.00    +0.000 A 
ATOM     22  C   UNL     1      60.494  68.356  70.502  0.00  0.00    +0.000 A 
ATOM     23  C   UNL     1      61.151  67.825  69.399  0.00  0.00    +0.000 A 
ATOM     24  C   UNL     1      60.535  66.850  68.625  0.00  0.00    +0.000 A 
ENDBRANCH   5  19
BRANCH  14  25
ATOM     25  O   UNL     1      53.352  66.337  70.171  0.00  0.00    +0.000 OA
ATOM     26  C   UNL     1      54.656  66.712  70.537  0.00  0.00    +0.000 C 
ENDBRANCH  14  25
BRANCH  15  27
ATOM     27  O   UNL     1      51.077  64.709  69.697  0.00  0.00    +0.000 OA
ATOM     28  C   UNL     1      50.857  63.837  70.778  0.00  0.00    +0.000 C 
ENDBRANCH  15  27
TORSDOF 3
ENDMDL
MODEL 8
REMARK VINA RESULT:      -5.7     29.919     31.443
REMARK  Name = CP466722.pdbqt.pdb
REMARK  3 active torsions:
REMARK  status: ('A' for Active; 'I' for Inactive)
REMARK    1  A    between atoms: C_5  and  C_23
REMARK    2  A    between atoms: C_14  and  O_16
REMARK    3  A    between atoms: C_15  and  O_18
REMARK                            x       y       z     vdW  Elec       q    Type
REMARK                         _______ _______ _______ _____ _____    ______ ____
ROOT
ATOM      1  N   UNL     1      56.244  63.404  67.108  0.00  0.00    +0.000 N 
ATOM      2  N   UNL     1      56.015  64.203  68.176  0.00  0.00    +0.000 NA
ATOM      3  N   UNL     1      58.120  64.544  67.377  0.00  0.00    +0.000 NA
ATOM      4  C   UNL     1      57.535  63.644  66.629  0.00  0.00    +0.000 A 
ATOM      5  C   UNL     1      57.168  64.876  68.313  0.00  0.00    +0.000 A 
ATOM      6  C   UNL     1      55.285  62.454  66.622  0.00  0.00    +0.000 A 
ATOM      7  N   UNL     1      55.695  61.623  65.627  0.00  0.00    +0.000 NA
ATOM      8  C   UNL     1      54.807  60.723  65.191  0.00  0.00    +0.000 A 
ATOM      9  N   UNL     1      53.564  60.571  65.657  0.00  0.00    +0.000 NA
ATOM     10  C   UNL     1      53.167  61.390  66.632  0.00  0.00    +0.000 A 
ATOM     11  C   UNL     1      53.990  62.387  67.173  0.00  0.00    +0.000 A 
ATOM     12  C   UNL     1      51.881  61.235  67.130  0.00  0.00    +0.000 A 
ATOM     13  C   UNL     1      53.456  63.222  68.183  0.00  0.00    +0.000 A 
ATOM     14  C   UNL     1      52.154  63.082  68.648  0.00  0.00    +0.000 A 
ATOM     15  C   UNL     1      51.377  62.041  68.153  0.00  0.00    +0.000 A 
ATOM     16  N   UNL     1      58.082  63.042  65.556  0.00  0.00    +0.000 N 
ATOM     17  H   UNL     1      59.088  63.102  65.434  0.00  0.00    +0.000 HD
ATOM     18  H   UNL     1      57.646  62.203  65.174  0.00  0.00    +0.000 HD
ENDROOT
BRANCH   5  19
ATOM     19  C   UNL     1      57.418  65.872  69.358  0.00  0.00    +0.000 A 
ATOM     20  N   UNL     1      58.523  66.660  69.239  0.00  0.00    +0.000 NA
ATOM     21  C   UNL     1      58.732  67.569  70.216  0.00  0.00    +0.000 A 
ATOM     22  C   UNL     1      57.900  67.743  71.308  0.00  0.00    +0.000 A 
ATOM     23  C   UNL     1      56.780  66.928  71.401  0.00  0.00    +0.000 A 
ATOM     24  C   UNL     1      56.528  65.978  70.419  0.00  0.00    +0.000 A 
ENDBRANCH   5  19
BRANCH  14  25
ATOM     25  O   UNL     1      51.725  63.919  69.643  0.00  0.00    +0.000 OA
ATOM     26  C   UNL     1      52.437  65.130  69.608  0.00  0.00    +0.000 C 
ENDBRANCH  14  25
BRANCH  15  27
ATOM     27  O   UNL     1      50.095  61.848  68.592  0.00  0.00    +0.000 OA
ATOM     28  C   UNL     1      49.377  61.073  67.663  0.00  0.00    +0.000 C 
ENDBRANCH  15  27
TORSDOF 3
ENDMDL
MODEL 9
REMARK VINA RESULT:      -5.7     18.351     20.139
REMARK  Name = CP466722.pdbqt.pdb
REMARK  3 active torsions:
REMARK  status: ('A' for Active; 'I' for Inactive)
REMARK    1  A    between atoms: C_5  and  C_23
REMARK    2  A    between atoms: C_14  and  O_16
REMARK    3  A    between atoms: C_15  and  O_18
REMARK                            x       y       z     vdW  Elec       q    Type
REMARK                         _______ _______ _______ _____ _____    ______ ____
ROOT
ATOM      1  N   UNL     1      57.913  70.520  84.733  0.00  0.00    +0.000 N 
ATOM      2  N   UNL     1      57.958  71.550  83.856  0.00  0.00    +0.000 NA
ATOM      3  N   UNL     1      57.295  69.646  82.798  0.00  0.00    +0.000 NA
ATOM      4  C   UNL     1      57.490  69.370  84.062  0.00  0.00    +0.000 A 
ATOM      5  C   UNL     1      57.582  70.988  82.698  0.00  0.00    +0.000 A 
ATOM      6  C   UNL     1      58.294  70.649  86.111  0.00  0.00    +0.000 A 
ATOM      7  N   UNL     1      58.330  69.505  86.846  0.00  0.00    +0.000 NA
ATOM      8  C   UNL     1      58.707  69.624  88.124  0.00  0.00    +0.000 A 
ATOM      9  N   UNL     1      59.056  70.764  88.727  0.00  0.00    +0.000 NA
ATOM     10  C   UNL     1      59.019  71.882  88.001  0.00  0.00    +0.000 A 
ATOM     11  C   UNL     1      58.630  71.904  86.654  0.00  0.00    +0.000 A 
ATOM     12  C   UNL     1      59.389  73.071  88.614  0.00  0.00    +0.000 A 
ATOM     13  C   UNL     1      58.595  73.152  85.987  0.00  0.00    +0.000 A 
ATOM     14  C   UNL     1      58.931  74.341  86.623  0.00  0.00    +0.000 A 
ATOM     15  C   UNL     1      59.386  74.291  87.935  0.00  0.00    +0.000 A 
ATOM     16  N   UNL     1      57.306  68.166  84.638  0.00  0.00    +0.000 N 
ATOM     17  H   UNL     1      57.233  67.354  84.035  0.00  0.00    +0.000 HD
ATOM     18  H   UNL     1      57.692  67.989  85.565  0.00  0.00    +0.000 HD
ENDROOT
BRANCH   5  19
ATOM     19  C   UNL     1      57.483  71.712  81.427  0.00  0.00    +0.000 A 
ATOM     20  N   UNL     1      56.270  72.219  81.073  0.00  0.00    +0.000 NA
ATOM     21  C   UNL     1      56.205  72.881  79.897  0.00  0.00    +0.000 A 
ATOM     22  C   UNL     1      57.283  73.070  79.051  0.00  0.00    +0.000 A 
ATOM     23  C   UNL     1      58.508  72.544  79.439  0.00  0.00    +0.000 A 
ATOM     24  C   UNL     1      58.619  71.854  80.640  0.00  0.00    +0.000 A 
ENDBRANCH   5  19
BRANCH  14  25
ATOM     25  O   UNL     1      58.891  75.501  85.897  0.00  0.00    +0.000 OA
ATOM     26  C   UNL     1      58.993  75.224  84.523  0.00  0.00    +0.000 C 
ENDBRANCH  14  25
BRANCH  15  27
ATOM     27  O   UNL     1      59.748  75.431  88.601  0.00  0.00    +0.000 OA
ATOM     28  C   UNL     1      59.302  75.378  89.933  0.00  0.00    +0.000 C 
ENDBRANCH  15  27
TORSDOF 3
ENDMDL
