REMARK  Name = Curcumin.pdbqt.pdb
REMARK  8 active torsions:
REMARK  status: ('A' for Active; 'I' for Inactive)
REMARK    1  A    between atoms: C_2  and  C_4
REMARK    2  A    between atoms: C_5  and  C_6
REMARK    3  A    between atoms: C_8  and  O_12
REMARK    4  A    between atoms: C_9  and  O_14
REMARK    5  A    between atoms: C_16  and  C_18
REMARK    6  A    between atoms: C_19  and  C_20
REMARK    7  A    between atoms: C_22  and  O_26
REMARK    8  A    between atoms: C_23  and  O_28
REMARK                            x       y       z     vdW  Elec       q    Type
REMARK                         _______ _______ _______ _____ _____    ______ ____
ROOT
ATOM      1  C   UNL     1       0.027   0.232   0.399  0.00  0.00    +0.000 C 
ATOM      2  C   UNL     1       0.950  -0.567   1.134  0.00  0.00    +0.000 C 
ATOM      3  O   UNL     1       0.589  -1.115   2.165  0.00  0.00    +0.000 OA
ATOM      4  C   UNL     1      -0.896   1.034  -0.333  0.00  0.00    +0.000 C 
ATOM      5  O   UNL     1      -0.483   1.824  -1.170  0.00  0.00    +0.000 OA
ENDROOT
BRANCH   2   6
ATOM      6  C   UNL     1       2.300  -0.726   0.656  0.00  0.00    +0.000 C 
ATOM      7  C   UNL     1       3.425  -0.857   0.256  0.00  0.00    +0.000 C 
BRANCH   7   8
ATOM      8  C   UNL     1       4.762  -1.012  -0.217  0.00  0.00    +0.000 A 
ATOM      9  C   UNL     1       5.752  -0.122   0.194  0.00  0.00    +0.000 A 
ATOM     10  C   UNL     1       7.068  -0.259  -0.259  0.00  0.00    +0.000 A 
ATOM     11  C   UNL     1       7.371  -1.307  -1.134  0.00  0.00    +0.000 A 
ATOM     12  C   UNL     1       6.382  -2.199  -1.547  0.00  0.00    +0.000 A 
ATOM     13  C   UNL     1       5.076  -2.051  -1.088  0.00  0.00    +0.000 A 
BRANCH  10  14
ATOM     14  O   UNL     1       8.094   0.577   0.103  0.00  0.00    +0.000 OA
ATOM     15  C   UNL     1       7.759   1.625   0.968  0.00  0.00    +0.000 C 
ENDBRANCH  10  14
BRANCH  11  16
ATOM     16  O   UNL     1       8.627  -1.521  -1.630  0.00  0.00    +0.000 OA
ATOM     17  H   UNL     1       9.248  -0.854  -1.292  0.00  0.00    +0.000 HD
ENDBRANCH  11  16
ENDBRANCH   7   8
ENDBRANCH   2   6
BRANCH   4  18
ATOM     18  C   UNL     1      -2.309   0.908  -0.082  0.00  0.00    +0.000 C 
ATOM     19  C   UNL     1      -3.488   0.799   0.125  0.00  0.00    +0.000 C 
BRANCH  19  20
ATOM     20  C   UNL     1      -4.886   0.667   0.368  0.00  0.00    +0.000 A 
ATOM     21  C   UNL     1      -5.566  -0.462  -0.087  0.00  0.00    +0.000 A 
ATOM     22  C   UNL     1      -6.937  -0.607   0.143  0.00  0.00    +0.000 A 
ATOM     23  C   UNL     1      -7.611   0.401   0.838  0.00  0.00    +0.000 A 
ATOM     24  C   UNL     1      -6.936   1.532   1.295  0.00  0.00    +0.000 A 
ATOM     25  C   UNL     1      -5.571   1.664   1.059  0.00  0.00    +0.000 A 
BRANCH  22  26
ATOM     26  O   UNL     1      -7.682  -1.685  -0.270  0.00  0.00    +0.000 OA
ATOM     27  C   UNL     1      -6.975  -2.678  -0.966  0.00  0.00    +0.000 C 
ENDBRANCH  22  26
BRANCH  23  28
ATOM     28  O   UNL     1      -8.953   0.278   1.073  0.00  0.00    +0.000 OA
ATOM     29  H   UNL     1      -9.257   1.063   1.564  0.00  0.00    +0.000 HD
ENDBRANCH  23  28
ENDBRANCH  19  20
ENDBRANCH   4  18
TORSDOF 8
