MODEL 1
REMARK VINA RESULT:      -6.2      0.000      0.000
REMARK  Name = Curcumin.pdbqt.pdb
REMARK  8 active torsions:
REMARK  status: ('A' for Active; 'I' for Inactive)
REMARK    1  A    between atoms: C_2  and  C_4
REMARK    2  A    between atoms: C_5  and  C_6
REMARK    3  A    between atoms: C_8  and  O_12
REMARK    4  A    between atoms: C_9  and  O_14
REMARK    5  A    between atoms: C_16  and  C_18
REMARK    6  A    between atoms: C_19  and  C_20
REMARK    7  A    between atoms: C_22  and  O_26
REMARK    8  A    between atoms: C_23  and  O_28
REMARK                            x       y       z     vdW  Elec       q    Type
REMARK                         _______ _______ _______ _____ _____    ______ ____
ROOT
ATOM      1  C   UNL     1      55.740  36.119  64.993  0.00  0.00    +0.000 C 
ATOM      2  C   UNL     1      54.525  36.759  65.373  0.00  0.00    +0.000 C 
ATOM      3  O   UNL     1      54.507  37.490  66.352  0.00  0.00    +0.000 OA
ATOM      4  C   UNL     1      56.956  35.477  64.616  0.00  0.00    +0.000 C 
ATOM      5  O   UNL     1      56.926  34.522  63.853  0.00  0.00    +0.000 OA
ENDROOT
BRANCH   2   6
ATOM      6  C   UNL     1      53.329  36.542  64.600  0.00  0.00    +0.000 C 
ATOM      7  C   UNL     1      52.332  36.362  63.954  0.00  0.00    +0.000 C 
BRANCH   7   8
ATOM      8  C   UNL     1      51.149  36.146  63.187  0.00  0.00    +0.000 A 
ATOM      9  C   UNL     1      51.241  35.927  61.814  0.00  0.00    +0.000 A 
ATOM     10  C   UNL     1      50.091  35.713  61.047  0.00  0.00    +0.000 A 
ATOM     11  C   UNL     1      48.847  35.724  61.685  0.00  0.00    +0.000 A 
ATOM     12  C   UNL     1      48.752  35.944  63.058  0.00  0.00    +0.000 A 
ATOM     13  C   UNL     1      49.904  36.155  63.810  0.00  0.00    +0.000 A 
BRANCH  10  14
ATOM     14  O   UNL     1      50.104  35.489  59.693  0.00  0.00    +0.000 OA
ATOM     15  C   UNL     1      51.095  36.160  58.967  0.00  0.00    +0.000 C 
ENDBRANCH  10  14
BRANCH  11  16
ATOM     16  O   UNL     1      47.669  35.525  61.019  0.00  0.00    +0.000 OA
ATOM     17  H   UNL     1      47.052  35.005  61.560  0.00  0.00    +0.000 HD
ENDBRANCH  11  16
ENDBRANCH   7   8
ENDBRANCH   2   6
BRANCH   4  18
ATOM     18  C   UNL     1      58.210  35.957  65.137  0.00  0.00    +0.000 C 
ATOM     19  C   UNL     1      59.257  36.360  65.567  0.00  0.00    +0.000 C 
BRANCH  19  20
ATOM     20  C   UNL     1      60.500  36.839  66.074  0.00  0.00    +0.000 A 
ATOM     21  C   UNL     1      60.616  38.165  66.490  0.00  0.00    +0.000 A 
ATOM     22  C   UNL     1      61.827  38.651  66.989  0.00  0.00    +0.000 A 
ATOM     23  C   UNL     1      62.919  37.781  67.065  0.00  0.00    +0.000 A 
ATOM     24  C   UNL     1      62.809  36.454  66.650  0.00  0.00    +0.000 A 
ATOM     25  C   UNL     1      61.597  35.984  66.155  0.00  0.00    +0.000 A 
BRANCH  22  26
ATOM     26  O   UNL     1      62.027  39.940  67.419  0.00  0.00    +0.000 OA
ATOM     27  C   UNL     1      60.885  40.756  67.436  0.00  0.00    +0.000 C 
ENDBRANCH  22  26
BRANCH  23  28
ATOM     28  O   UNL     1      64.113  38.237  67.550  0.00  0.00    +0.000 OA
ATOM     29  H   UNL     1      64.361  39.043  67.063  0.00  0.00    +0.000 HD
ENDBRANCH  23  28
ENDBRANCH  19  20
ENDBRANCH   4  18
TORSDOF 8
ENDMDL
MODEL 2
REMARK VINA RESULT:      -6.1      3.110      3.857
REMARK  Name = Curcumin.pdbqt.pdb
REMARK  8 active torsions:
REMARK  status: ('A' for Active; 'I' for Inactive)
REMARK    1  A    between atoms: C_2  and  C_4
REMARK    2  A    between atoms: C_5  and  C_6
REMARK    3  A    between atoms: C_8  and  O_12
REMARK    4  A    between atoms: C_9  and  O_14
REMARK    5  A    between atoms: C_16  and  C_18
REMARK    6  A    between atoms: C_19  and  C_20
REMARK    7  A    between atoms: C_22  and  O_26
REMARK    8  A    between atoms: C_23  and  O_28
REMARK                            x       y       z     vdW  Elec       q    Type
REMARK                         _______ _______ _______ _____ _____    ______ ____
ROOT
ATOM      1  C   UNL     1      55.971  35.988  64.404  0.00  0.00    +0.000 C 
ATOM      2  C   UNL     1      54.578  36.030  64.106  0.00  0.00    +0.000 C 
ATOM      3  O   UNL     1      53.796  36.480  64.930  0.00  0.00    +0.000 OA
ATOM      4  C   UNL     1      57.363  35.943  64.706  0.00  0.00    +0.000 C 
ATOM      5  O   UNL     1      58.104  35.228  64.046  0.00  0.00    +0.000 OA
ENDROOT
BRANCH   2   6
ATOM      6  C   UNL     1      54.102  35.545  62.835  0.00  0.00    +0.000 C 
ATOM      7  C   UNL     1      53.704  35.142  61.776  0.00  0.00    +0.000 C 
BRANCH   7   8
ATOM      8  C   UNL     1      53.232  34.665  60.517  0.00  0.00    +0.000 A 
ATOM      9  C   UNL     1      53.126  35.539  59.438  0.00  0.00    +0.000 A 
ATOM     10  C   UNL     1      52.667  35.088  58.196  0.00  0.00    +0.000 A 
ATOM     11  C   UNL     1      52.315  33.742  58.059  0.00  0.00    +0.000 A 
ATOM     12  C   UNL     1      52.420  32.865  59.138  0.00  0.00    +0.000 A 
ATOM     13  C   UNL     1      52.879  33.327  60.368  0.00  0.00    +0.000 A 
BRANCH  10  14
ATOM     14  O   UNL     1      52.537  35.890  57.090  0.00  0.00    +0.000 OA
ATOM     15  C   UNL     1      51.390  36.690  57.040  0.00  0.00    +0.000 C 
ENDBRANCH  10  14
BRANCH  11  16
ATOM     16  O   UNL     1      51.856  33.210  56.887  0.00  0.00    +0.000 OA
ATOM     17  H   UNL     1      51.274  32.451  57.059  0.00  0.00    +0.000 HD
ENDBRANCH  11  16
ENDBRANCH   7   8
ENDBRANCH   2   6
BRANCH   4  18
ATOM     18  C   UNL     1      57.888  36.740  65.785  0.00  0.00    +0.000 C 
ATOM     19  C   UNL     1      58.326  37.401  66.687  0.00  0.00    +0.000 C 
BRANCH  19  20
ATOM     20  C   UNL     1      58.847  38.182  67.760  0.00  0.00    +0.000 A 
ATOM     21  C   UNL     1      58.000  38.611  68.781  0.00  0.00    +0.000 A 
ATOM     22  C   UNL     1      58.494  39.378  69.840  0.00  0.00    +0.000 A 
ATOM     23  C   UNL     1      59.853  39.705  69.854  0.00  0.00    +0.000 A 
ATOM     24  C   UNL     1      60.704  39.279  68.836  0.00  0.00    +0.000 A 
ATOM     25  C   UNL     1      60.199  38.516  67.787  0.00  0.00    +0.000 A 
BRANCH  22  26
ATOM     26  O   UNL     1      57.730  39.841  70.884  0.00  0.00    +0.000 OA
ATOM     27  C   UNL     1      57.127  38.852  71.677  0.00  0.00    +0.000 C 
ENDBRANCH  22  26
BRANCH  23  28
ATOM     28  O   UNL     1      60.356  40.455  70.882  0.00  0.00    +0.000 OA
ATOM     29  H   UNL     1      59.821  40.290  71.680  0.00  0.00    +0.000 HD
ENDBRANCH  23  28
ENDBRANCH  19  20
ENDBRANCH   4  18
TORSDOF 8
ENDMDL
MODEL 3
REMARK VINA RESULT:      -6.1      3.025     11.113
REMARK  Name = Curcumin.pdbqt.pdb
REMARK  8 active torsions:
REMARK  status: ('A' for Active; 'I' for Inactive)
REMARK    1  A    between atoms: C_2  and  C_4
REMARK    2  A    between atoms: C_5  and  C_6
REMARK    3  A    between atoms: C_8  and  O_12
REMARK    4  A    between atoms: C_9  and  O_14
REMARK    5  A    between atoms: C_16  and  C_18
REMARK    6  A    between atoms: C_19  and  C_20
REMARK    7  A    between atoms: C_22  and  O_26
REMARK    8  A    between atoms: C_23  and  O_28
REMARK                            x       y       z     vdW  Elec       q    Type
REMARK                         _______ _______ _______ _____ _____    ______ ____
ROOT
ATOM      1  C   UNL     1      55.783  36.009  64.464  0.00  0.00    +0.000 C 
ATOM      2  C   UNL     1      57.145  35.839  64.848  0.00  0.00    +0.000 C 
ATOM      3  O   UNL     1      57.834  35.005  64.279  0.00  0.00    +0.000 OA
ATOM      4  C   UNL     1      54.420  36.175  64.082  0.00  0.00    +0.000 C 
ATOM      5  O   UNL     1      53.648  36.762  64.827  0.00  0.00    +0.000 OA
ENDROOT
BRANCH   2   6
ATOM      6  C   UNL     1      57.700  36.653  65.899  0.00  0.00    +0.000 C 
ATOM      7  C   UNL     1      58.164  37.333  66.774  0.00  0.00    +0.000 C 
BRANCH   7   8
ATOM      8  C   UNL     1      58.713  38.140  67.815  0.00  0.00    +0.000 A 
ATOM      9  C   UNL     1      57.899  38.575  68.859  0.00  0.00    +0.000 A 
ATOM     10  C   UNL     1      58.420  39.367  69.887  0.00  0.00    +0.000 A 
ATOM     11  C   UNL     1      59.774  39.714  69.847  0.00  0.00    +0.000 A 
ATOM     12  C   UNL     1      60.590  39.280  68.803  0.00  0.00    +0.000 A 
ATOM     13  C   UNL     1      60.059  38.492  67.786  0.00  0.00    +0.000 A 
BRANCH  10  14
ATOM     14  O   UNL     1      57.681  39.830  70.947  0.00  0.00    +0.000 OA
ATOM     15  C   UNL     1      57.065  38.857  71.742  0.00  0.00    +0.000 C 
ENDBRANCH  10  14
BRANCH  11  16
ATOM     16  O   UNL     1      60.372  40.483  70.806  0.00  0.00    +0.000 OA
ATOM     17  H   UNL     1      59.955  40.339  71.672  0.00  0.00    +0.000 HD
ENDBRANCH  11  16
ENDBRANCH   7   8
ENDBRANCH   2   6
BRANCH   4  18
ATOM     18  C   UNL     1      53.961  35.651  62.822  0.00  0.00    +0.000 C 
ATOM     19  C   UNL     1      53.582  35.210  61.770  0.00  0.00    +0.000 C 
BRANCH  19  20
ATOM     20  C   UNL     1      53.135  34.685  60.522  0.00  0.00    +0.000 A 
ATOM     21  C   UNL     1      52.832  35.552  59.473  0.00  0.00    +0.000 A 
ATOM     22  C   UNL     1      52.392  35.054  58.244  0.00  0.00    +0.000 A 
ATOM     23  C   UNL     1      52.265  33.671  58.087  0.00  0.00    +0.000 A 
ATOM     24  C   UNL     1      52.567  32.800  59.132  0.00  0.00    +0.000 A 
ATOM     25  C   UNL     1      53.003  33.309  60.352  0.00  0.00    +0.000 A 
BRANCH  22  26
ATOM     26  O   UNL     1      52.072  35.837  57.160  0.00  0.00    +0.000 OA
ATOM     27  C   UNL     1      51.408  37.037  57.457  0.00  0.00    +0.000 C 
ENDBRANCH  22  26
BRANCH  23  28
ATOM     28  O   UNL     1      51.836  33.164  56.891  0.00  0.00    +0.000 OA
ATOM     29  H   UNL     1      50.915  33.446  56.744  0.00  0.00    +0.000 HD
ENDBRANCH  23  28
ENDBRANCH  19  20
ENDBRANCH   4  18
TORSDOF 8
ENDMDL
MODEL 4
REMARK VINA RESULT:      -6.0      0.297     11.595
REMARK  Name = Curcumin.pdbqt.pdb
REMARK  8 active torsions:
REMARK  status: ('A' for Active; 'I' for Inactive)
REMARK    1  A    between atoms: C_2  and  C_4
REMARK    2  A    between atoms: C_5  and  C_6
REMARK    3  A    between atoms: C_8  and  O_12
REMARK    4  A    between atoms: C_9  and  O_14
REMARK    5  A    between atoms: C_16  and  C_18
REMARK    6  A    between atoms: C_19  and  C_20
REMARK    7  A    between atoms: C_22  and  O_26
REMARK    8  A    between atoms: C_23  and  O_28
REMARK                            x       y       z     vdW  Elec       q    Type
REMARK                         _______ _______ _______ _____ _____    ______ ____
ROOT
ATOM      1  C   UNL     1      55.709  36.217  65.040  0.00  0.00    +0.000 C 
ATOM      2  C   UNL     1      56.940  35.638  64.616  0.00  0.00    +0.000 C 
ATOM      3  O   UNL     1      56.931  34.726  63.802  0.00  0.00    +0.000 OA
ATOM      4  C   UNL     1      54.478  36.793  65.467  0.00  0.00    +0.000 C 
ATOM      5  O   UNL     1      54.444  37.469  66.486  0.00  0.00    +0.000 OA
ENDROOT
BRANCH   2   6
ATOM      6  C   UNL     1      58.186  36.132  65.145  0.00  0.00    +0.000 C 
ATOM      7  C   UNL     1      59.224  36.543  65.589  0.00  0.00    +0.000 C 
BRANCH   7   8
ATOM      8  C   UNL     1      60.457  37.031  66.114  0.00  0.00    +0.000 A 
ATOM      9  C   UNL     1      60.531  38.323  66.629  0.00  0.00    +0.000 A 
ATOM     10  C   UNL     1      61.732  38.817  67.149  0.00  0.00    +0.000 A 
ATOM     11  C   UNL     1      62.858  37.988  67.140  0.00  0.00    +0.000 A 
ATOM     12  C   UNL     1      62.787  36.694  66.624  0.00  0.00    +0.000 A 
ATOM     13  C   UNL     1      61.585  36.215  66.111  0.00  0.00    +0.000 A 
BRANCH  10  14
ATOM     14  O   UNL     1      61.880  40.076  67.673  0.00  0.00    +0.000 OA
ATOM     15  C   UNL     1      60.902  41.011  67.316  0.00  0.00    +0.000 C 
ENDBRANCH  10  14
BRANCH  11  16
ATOM     16  O   UNL     1      64.075  38.382  67.625  0.00  0.00    +0.000 OA
ATOM     17  H   UNL     1      64.333  37.838  68.387  0.00  0.00    +0.000 HD
ENDBRANCH  11  16
ENDBRANCH   7   8
ENDBRANCH   2   6
BRANCH   4  18
ATOM     18  C   UNL     1      53.281  36.574  64.696  0.00  0.00    +0.000 C 
ATOM     19  C   UNL     1      52.284  36.391  64.049  0.00  0.00    +0.000 C 
BRANCH  19  20
ATOM     20  C   UNL     1      51.105  36.173  63.279  0.00  0.00    +0.000 A 
ATOM     21  C   UNL     1      51.207  35.918  61.912  0.00  0.00    +0.000 A 
ATOM     22  C   UNL     1      50.060  35.702  61.142  0.00  0.00    +0.000 A 
ATOM     23  C   UNL     1      48.812  35.745  61.770  0.00  0.00    +0.000 A 
ATOM     24  C   UNL     1      48.705  36.000  63.137  0.00  0.00    +0.000 A 
ATOM     25  C   UNL     1      49.855  36.213  63.891  0.00  0.00    +0.000 A 
BRANCH  22  26
ATOM     26  O   UNL     1      50.070  35.445  59.792  0.00  0.00    +0.000 OA
ATOM     27  C   UNL     1      51.285  34.965  59.277  0.00  0.00    +0.000 C 
ENDBRANCH  22  26
BRANCH  23  28
ATOM     28  O   UNL     1      47.678  35.537  61.034  0.00  0.00    +0.000 OA
ATOM     29  H   UNL     1      46.940  35.353  61.643  0.00  0.00    +0.000 HD
ENDBRANCH  23  28
ENDBRANCH  19  20
ENDBRANCH   4  18
TORSDOF 8
ENDMDL
MODEL 5
REMARK VINA RESULT:      -6.0      1.939     11.635
REMARK  Name = Curcumin.pdbqt.pdb
REMARK  8 active torsions:
REMARK  status: ('A' for Active; 'I' for Inactive)
REMARK    1  A    between atoms: C_2  and  C_4
REMARK    2  A    between atoms: C_5  and  C_6
REMARK    3  A    between atoms: C_8  and  O_12
REMARK    4  A    between atoms: C_9  and  O_14
REMARK    5  A    between atoms: C_16  and  C_18
REMARK    6  A    between atoms: C_19  and  C_20
REMARK    7  A    between atoms: C_22  and  O_26
REMARK    8  A    between atoms: C_23  and  O_28
REMARK                            x       y       z     vdW  Elec       q    Type
REMARK                         _______ _______ _______ _____ _____    ______ ____
ROOT
ATOM      1  C   UNL     1      56.953  36.302  64.576  0.00  0.00    +0.000 C 
ATOM      2  C   UNL     1      58.338  35.977  64.653  0.00  0.00    +0.000 C 
ATOM      3  O   UNL     1      58.762  34.992  64.067  0.00  0.00    +0.000 OA
ATOM      4  C   UNL     1      55.566  36.624  64.500  0.00  0.00    +0.000 C 
ATOM      5  O   UNL     1      55.078  37.398  65.311  0.00  0.00    +0.000 OA
ENDROOT
BRANCH   2   6
ATOM      6  C   UNL     1      59.229  36.812  65.419  0.00  0.00    +0.000 C 
ATOM      7  C   UNL     1      59.971  37.509  66.055  0.00  0.00    +0.000 C 
BRANCH   7   8
ATOM      8  C   UNL     1      60.852  38.338  66.812  0.00  0.00    +0.000 A 
ATOM      9  C   UNL     1      62.165  37.932  67.038  0.00  0.00    +0.000 A 
ATOM     10  C   UNL     1      63.043  38.732  67.777  0.00  0.00    +0.000 A 
ATOM     11  C   UNL     1      62.575  39.947  68.286  0.00  0.00    +0.000 A 
ATOM     12  C   UNL     1      61.261  40.356  68.062  0.00  0.00    +0.000 A 
ATOM     13  C   UNL     1      60.399  39.550  67.324  0.00  0.00    +0.000 A 
BRANCH  10  14
ATOM     14  O   UNL     1      64.348  38.398  68.039  0.00  0.00    +0.000 OA
ATOM     15  C   UNL     1      64.702  37.065  67.804  0.00  0.00    +0.000 C 
ENDBRANCH  10  14
BRANCH  11  16
ATOM     16  O   UNL     1      63.357  40.795  69.020  0.00  0.00    +0.000 OA
ATOM     17  H   UNL     1      64.205  40.374  69.243  0.00  0.00    +0.000 HD
ENDBRANCH  11  16
ENDBRANCH   7   8
ENDBRANCH   2   6
BRANCH   4  18
ATOM     18  C   UNL     1      54.750  36.035  63.469  0.00  0.00    +0.000 C 
ATOM     19  C   UNL     1      54.066  35.545  62.611  0.00  0.00    +0.000 C 
BRANCH  19  20
ATOM     20  C   UNL     1      53.251  34.965  61.596  0.00  0.00    +0.000 A 
ATOM     21  C   UNL     1      52.323  35.754  60.916  0.00  0.00    +0.000 A 
ATOM     22  C   UNL     1      51.516  35.201  59.918  0.00  0.00    +0.000 A 
ATOM     23  C   UNL     1      51.659  33.844  59.615  0.00  0.00    +0.000 A 
ATOM     24  C   UNL     1      52.585  33.051  60.291  0.00  0.00    +0.000 A 
ATOM     25  C   UNL     1      53.382  33.614  61.283  0.00  0.00    +0.000 A 
BRANCH  22  26
ATOM     26  O   UNL     1      50.579  35.905  59.201  0.00  0.00    +0.000 OA
ATOM     27  C   UNL     1      51.084  36.938  58.396  0.00  0.00    +0.000 C 
ENDBRANCH  22  26
BRANCH  23  28
ATOM     28  O   UNL     1      50.879  33.284  58.641  0.00  0.00    +0.000 OA
ATOM     29  H   UNL     1      51.151  33.644  57.777  0.00  0.00    +0.000 HD
ENDBRANCH  23  28
ENDBRANCH  19  20
ENDBRANCH   4  18
TORSDOF 8
ENDMDL
MODEL 6
REMARK VINA RESULT:      -5.7      2.052     11.637
REMARK  Name = Curcumin.pdbqt.pdb
REMARK  8 active torsions:
REMARK  status: ('A' for Active; 'I' for Inactive)
REMARK    1  A    between atoms: C_2  and  C_4
REMARK    2  A    between atoms: C_5  and  C_6
REMARK    3  A    between atoms: C_8  and  O_12
REMARK    4  A    between atoms: C_9  and  O_14
REMARK    5  A    between atoms: C_16  and  C_18
REMARK    6  A    between atoms: C_19  and  C_20
REMARK    7  A    between atoms: C_22  and  O_26
REMARK    8  A    between atoms: C_23  and  O_28
REMARK                            x       y       z     vdW  Elec       q    Type
REMARK                         _______ _______ _______ _____ _____    ______ ____
ROOT
ATOM      1  C   UNL     1      56.024  36.630  65.383  0.00  0.00    +0.000 C 
ATOM      2  C   UNL     1      57.396  36.270  65.523  0.00  0.00    +0.000 C 
ATOM      3  O   UNL     1      57.821  35.275  64.956  0.00  0.00    +0.000 OA
ATOM      4  C   UNL     1      54.651  36.986  65.246  0.00  0.00    +0.000 C 
ATOM      5  O   UNL     1      54.147  37.773  66.035  0.00  0.00    +0.000 OA
ENDROOT
BRANCH   2   6
ATOM      6  C   UNL     1      58.273  37.083  66.327  0.00  0.00    +0.000 C 
ATOM      7  C   UNL     1      59.004  37.761  66.996  0.00  0.00    +0.000 C 
BRANCH   7   8
ATOM      8  C   UNL     1      59.872  38.568  67.791  0.00  0.00    +0.000 A 
ATOM      9  C   UNL     1      59.556  38.823  69.124  0.00  0.00    +0.000 A 
ATOM     10  C   UNL     1      60.395  39.611  69.918  0.00  0.00    +0.000 A 
ATOM     11  C   UNL     1      61.557  40.139  69.348  0.00  0.00    +0.000 A 
ATOM     12  C   UNL     1      61.875  39.886  68.014  0.00  0.00    +0.000 A 
ATOM     13  C   UNL     1      61.031  39.100  67.235  0.00  0.00    +0.000 A 
BRANCH  10  14
ATOM     14  O   UNL     1      60.150  39.903  71.236  0.00  0.00    +0.000 OA
ATOM     15  C   UNL     1      60.314  38.848  72.142  0.00  0.00    +0.000 C 
ENDBRANCH  10  14
BRANCH  11  16
ATOM     16  O   UNL     1      62.437  40.921  70.044  0.00  0.00    +0.000 OA
ATOM     17  H   UNL     1      62.012  41.299  70.832  0.00  0.00    +0.000 HD
ENDBRANCH  11  16
ENDBRANCH   7   8
ENDBRANCH   2   6
BRANCH   4  18
ATOM     18  C   UNL     1      53.868  36.418  64.180  0.00  0.00    +0.000 C 
ATOM     19  C   UNL     1      53.210  35.942  63.293  0.00  0.00    +0.000 C 
BRANCH  19  20
ATOM     20  C   UNL     1      52.428  35.378  62.244  0.00  0.00    +0.000 A 
ATOM     21  C   UNL     1      51.146  35.866  61.994  0.00  0.00    +0.000 A 
ATOM     22  C   UNL     1      50.366  35.324  60.969  0.00  0.00    +0.000 A 
ATOM     23  C   UNL     1      50.897  34.285  60.200  0.00  0.00    +0.000 A 
ATOM     24  C   UNL     1      52.178  33.793  60.445  0.00  0.00    +0.000 A 
ATOM     25  C   UNL     1      52.944  34.341  61.469  0.00  0.00    +0.000 A 
BRANCH  22  26
ATOM     26  O   UNL     1      49.096  35.745  60.657  0.00  0.00    +0.000 OA
ATOM     27  C   UNL     1      48.152  35.640  61.691  0.00  0.00    +0.000 C 
ENDBRANCH  22  26
BRANCH  23  28
ATOM     28  O   UNL     1      50.149  33.740  59.192  0.00  0.00    +0.000 OA
ATOM     29  H   UNL     1      50.016  34.416  58.502  0.00  0.00    +0.000 HD
ENDBRANCH  23  28
ENDBRANCH  19  20
ENDBRANCH   4  18
TORSDOF 8
ENDMDL
MODEL 7
REMARK VINA RESULT:      -5.7     16.101     20.482
REMARK  Name = Curcumin.pdbqt.pdb
REMARK  8 active torsions:
REMARK  status: ('A' for Active; 'I' for Inactive)
REMARK    1  A    between atoms: C_2  and  C_4
REMARK    2  A    between atoms: C_5  and  C_6
REMARK    3  A    between atoms: C_8  and  O_12
REMARK    4  A    between atoms: C_9  and  O_14
REMARK    5  A    between atoms: C_16  and  C_18
REMARK    6  A    between atoms: C_19  and  C_20
REMARK    7  A    between atoms: C_22  and  O_26
REMARK    8  A    between atoms: C_23  and  O_28
REMARK                            x       y       z     vdW  Elec       q    Type
REMARK                         _______ _______ _______ _____ _____    ______ ____
ROOT
ATOM      1  C   UNL     1      46.324  51.556  60.456  0.00  0.00    +0.000 C 
ATOM      2  C   UNL     1      45.541  52.374  61.321  0.00  0.00    +0.000 C 
ATOM      3  O   UNL     1      44.359  52.560  61.073  0.00  0.00    +0.000 OA
ATOM      4  C   UNL     1      47.107  50.741  59.588  0.00  0.00    +0.000 C 
ATOM      5  O   UNL     1      48.327  50.797  59.639  0.00  0.00    +0.000 OA
ENDROOT
BRANCH   2   6
ATOM      6  C   UNL     1      46.147  52.972  62.484  0.00  0.00    +0.000 C 
ATOM      7  C   UNL     1      46.651  53.470  63.454  0.00  0.00    +0.000 C 
BRANCH   7   8
ATOM      8  C   UNL     1      47.252  54.060  64.605  0.00  0.00    +0.000 A 
ATOM      9  C   UNL     1      46.507  54.226  65.771  0.00  0.00    +0.000 A 
ATOM     10  C   UNL     1      47.080  54.802  66.909  0.00  0.00    +0.000 A 
ATOM     11  C   UNL     1      48.416  55.211  66.854  0.00  0.00    +0.000 A 
ATOM     12  C   UNL     1      49.164  55.047  65.688  0.00  0.00    +0.000 A 
ATOM     13  C   UNL     1      48.581  54.472  64.563  0.00  0.00    +0.000 A 
BRANCH  10  14
ATOM     14  O   UNL     1      46.409  54.995  68.090  0.00  0.00    +0.000 OA
ATOM     15  C   UNL     1      45.012  54.987  68.014  0.00  0.00    +0.000 C 
ENDBRANCH  10  14
BRANCH  11  16
ATOM     16  O   UNL     1      49.061  55.785  67.914  0.00  0.00    +0.000 OA
ATOM     17  H   UNL     1      48.579  55.618  68.741  0.00  0.00    +0.000 HD
ENDBRANCH  11  16
ENDBRANCH   7   8
ENDBRANCH   2   6
BRANCH   4  18
ATOM     18  C   UNL     1      46.455  49.857  58.656  0.00  0.00    +0.000 C 
ATOM     19  C   UNL     1      45.907  49.121  57.879  0.00  0.00    +0.000 C 
BRANCH  19  20
ATOM     20  C   UNL     1      45.253  48.251  56.959  0.00  0.00    +0.000 A 
ATOM     21  C   UNL     1      45.807  47.004  56.670  0.00  0.00    +0.000 A 
ATOM     22  C   UNL     1      45.179  46.138  55.770  0.00  0.00    +0.000 A 
ATOM     23  C   UNL     1      43.987  46.547  55.167  0.00  0.00    +0.000 A 
ATOM     24  C   UNL     1      43.429  47.792  55.452  0.00  0.00    +0.000 A 
ATOM     25  C   UNL     1      44.064  48.645  56.349  0.00  0.00    +0.000 A 
BRANCH  22  26
ATOM     26  O   UNL     1      45.656  44.895  55.431  0.00  0.00    +0.000 OA
ATOM     27  C   UNL     1      46.958  44.606  55.869  0.00  0.00    +0.000 C 
ENDBRANCH  22  26
BRANCH  23  28
ATOM     28  O   UNL     1      43.357  45.714  54.283  0.00  0.00    +0.000 OA
ATOM     29  H   UNL     1      42.394  45.838  54.369  0.00  0.00    +0.000 HD
ENDBRANCH  23  28
ENDBRANCH  19  20
ENDBRANCH   4  18
TORSDOF 8
ENDMDL
MODEL 8
REMARK VINA RESULT:      -5.5      8.548     10.491
REMARK  Name = Curcumin.pdbqt.pdb
REMARK  8 active torsions:
REMARK  status: ('A' for Active; 'I' for Inactive)
REMARK    1  A    between atoms: C_2  and  C_4
REMARK    2  A    between atoms: C_5  and  C_6
REMARK    3  A    between atoms: C_8  and  O_12
REMARK    4  A    between atoms: C_9  and  O_14
REMARK    5  A    between atoms: C_16  and  C_18
REMARK    6  A    between atoms: C_19  and  C_20
REMARK    7  A    between atoms: C_22  and  O_26
REMARK    8  A    between atoms: C_23  and  O_28
REMARK                            x       y       z     vdW  Elec       q    Type
REMARK                         _______ _______ _______ _____ _____    ______ ____
ROOT
ATOM      1  C   UNL     1      51.245  34.270  58.795  0.00  0.00    +0.000 C 
ATOM      2  C   UNL     1      51.350  35.230  59.843  0.00  0.00    +0.000 C 
ATOM      3  O   UNL     1      52.437  35.728  60.101  0.00  0.00    +0.000 OA
ATOM      4  C   UNL     1      51.142  33.307  57.750  0.00  0.00    +0.000 C 
ATOM      5  O   UNL     1      50.158  32.584  57.686  0.00  0.00    +0.000 OA
ENDROOT
BRANCH   2   6
ATOM      6  C   UNL     1      50.177  35.611  60.588  0.00  0.00    +0.000 C 
ATOM      7  C   UNL     1      49.200  35.930  61.209  0.00  0.00    +0.000 C 
BRANCH   7   8
ATOM      8  C   UNL     1      48.038  36.308  61.945  0.00  0.00    +0.000 A 
ATOM      9  C   UNL     1      46.803  35.743  61.633  0.00  0.00    +0.000 A 
ATOM     10  C   UNL     1      45.654  36.102  62.344  0.00  0.00    +0.000 A 
ATOM     11  C   UNL     1      45.767  37.041  63.375  0.00  0.00    +0.000 A 
ATOM     12  C   UNL     1      47.002  37.608  63.689  0.00  0.00    +0.000 A 
ATOM     13  C   UNL     1      48.138  37.241  62.973  0.00  0.00    +0.000 A 
BRANCH  10  14
ATOM     14  O   UNL     1      44.406  35.588  62.094  0.00  0.00    +0.000 OA
ATOM     15  C   UNL     1      44.172  34.288  62.557  0.00  0.00    +0.000 C 
ENDBRANCH  10  14
BRANCH  11  16
ATOM     16  O   UNL     1      44.701  37.454  64.124  0.00  0.00    +0.000 OA
ATOM     17  H   UNL     1      44.840  37.244  65.063  0.00  0.00    +0.000 HD
ENDBRANCH  11  16
ENDBRANCH   7   8
ENDBRANCH   2   6
BRANCH   4  18
ATOM     18  C   UNL     1      52.197  33.191  56.777  0.00  0.00    +0.000 C 
ATOM     19  C   UNL     1      53.081  33.095  55.968  0.00  0.00    +0.000 C 
BRANCH  19  20
ATOM     20  C   UNL     1      54.131  32.981  55.011  0.00  0.00    +0.000 A 
ATOM     21  C   UNL     1      55.413  32.621  55.427  0.00  0.00    +0.000 A 
ATOM     22  C   UNL     1      56.454  32.505  54.502  0.00  0.00    +0.000 A 
ATOM     23  C   UNL     1      56.184  32.754  53.153  0.00  0.00    +0.000 A 
ATOM     24  C   UNL     1      54.905  33.114  52.732  0.00  0.00    +0.000 A 
ATOM     25  C   UNL     1      53.877  33.227  53.664  0.00  0.00    +0.000 A 
BRANCH  22  26
ATOM     26  O   UNL     1      57.743  32.156  54.826  0.00  0.00    +0.000 OA
ATOM     27  C   UNL     1      57.939  30.808  55.161  0.00  0.00    +0.000 C 
ENDBRANCH  22  26
BRANCH  23  28
ATOM     28  O   UNL     1      57.190  32.646  52.232  0.00  0.00    +0.000 OA
ATOM     29  H   UNL     1      56.826  32.839  51.349  0.00  0.00    +0.000 HD
ENDBRANCH  23  28
ENDBRANCH  19  20
ENDBRANCH   4  18
TORSDOF 8
ENDMDL
MODEL 9
REMARK VINA RESULT:      -5.5     14.518     19.617
REMARK  Name = Curcumin.pdbqt.pdb
REMARK  8 active torsions:
REMARK  status: ('A' for Active; 'I' for Inactive)
REMARK    1  A    between atoms: C_2  and  C_4
REMARK    2  A    between atoms: C_5  and  C_6
REMARK    3  A    between atoms: C_8  and  O_12
REMARK    4  A    between atoms: C_9  and  O_14
REMARK    5  A    between atoms: C_16  and  C_18
REMARK    6  A    between atoms: C_19  and  C_20
REMARK    7  A    between atoms: C_22  and  O_26
REMARK    8  A    between atoms: C_23  and  O_28
REMARK                            x       y       z     vdW  Elec       q    Type
REMARK                         _______ _______ _______ _____ _____    ______ ____
ROOT
ATOM      1  C   UNL     1      61.463  51.091  59.241  0.00  0.00    +0.000 C 
ATOM      2  C   UNL     1      62.231  49.923  59.515  0.00  0.00    +0.000 C 
ATOM      3  O   UNL     1      61.682  48.933  59.977  0.00  0.00    +0.000 OA
ATOM      4  C   UNL     1      60.695  52.261  58.970  0.00  0.00    +0.000 C 
ATOM      5  O   UNL     1      61.259  53.334  58.811  0.00  0.00    +0.000 OA
ENDROOT
BRANCH   2   6
ATOM      6  C   UNL     1      63.646  49.914  59.245  0.00  0.00    +0.000 C 
ATOM      7  C   UNL     1      64.826  49.906  59.018  0.00  0.00    +0.000 C 
BRANCH   7   8
ATOM      8  C   UNL     1      66.226  49.898  58.748  0.00  0.00    +0.000 A 
ATOM      9  C   UNL     1      66.734  49.092  57.732  0.00  0.00    +0.000 A 
ATOM     10  C   UNL     1      68.104  49.072  57.453  0.00  0.00    +0.000 A 
ATOM     11  C   UNL     1      68.956  49.878  58.216  0.00  0.00    +0.000 A 
ATOM     12  C   UNL     1      68.451  50.686  59.234  0.00  0.00    +0.000 A 
ATOM     13  C   UNL     1      67.084  50.696  59.500  0.00  0.00    +0.000 A 
BRANCH  10  14
ATOM     14  O   UNL     1      68.675  48.306  56.469  0.00  0.00    +0.000 OA
ATOM     15  C   UNL     1      68.592  46.919  56.641  0.00  0.00    +0.000 C 
ENDBRANCH  10  14
BRANCH  11  16
ATOM     16  O   UNL     1      70.308  49.926  58.018  0.00  0.00    +0.000 OA
ATOM     17  H   UNL     1      70.665  50.787  58.293  0.00  0.00    +0.000 HD
ENDBRANCH  11  16
ENDBRANCH   7   8
ENDBRANCH   2   6
BRANCH   4  18
ATOM     18  C   UNL     1      59.260  52.170  58.884  0.00  0.00    +0.000 C 
ATOM     19  C   UNL     1      58.063  52.090  58.814  0.00  0.00    +0.000 C 
BRANCH  19  20
ATOM     20  C   UNL     1      56.644  51.992  58.730  0.00  0.00    +0.000 A 
ATOM     21  C   UNL     1      56.052  50.778  58.381  0.00  0.00    +0.000 A 
ATOM     22  C   UNL     1      54.661  50.665  58.294  0.00  0.00    +0.000 A 
ATOM     23  C   UNL     1      53.878  51.790  58.565  0.00  0.00    +0.000 A 
ATOM     24  C   UNL     1      54.465  53.005  58.914  0.00  0.00    +0.000 A 
ATOM     25  C   UNL     1      55.850  53.105  58.996  0.00  0.00    +0.000 A 
BRANCH  22  26
ATOM     26  O   UNL     1      53.998  49.509  57.958  0.00  0.00    +0.000 OA
ATOM     27  C   UNL     1      54.782  48.517  57.349  0.00  0.00    +0.000 C 
ENDBRANCH  22  26
BRANCH  23  28
ATOM     28  O   UNL     1      52.515  51.699  58.485  0.00  0.00    +0.000 OA
ATOM     29  H   UNL     1      52.124  52.288  59.156  0.00  0.00    +0.000 HD
ENDBRANCH  23  28
ENDBRANCH  19  20
ENDBRANCH   4  18
TORSDOF 8
ENDMDL
