MODEL 1
REMARK VINA RESULT:      -9.3      0.000      0.000
REMARK  Name = Cyclosporin_A.pdbqt.pdb
REMARK  4 active torsions:
REMARK  status: ('A' for Active; 'I' for Inactive)
REMARK    1  A    between atoms: N_13  and  C_36
REMARK    2  A    between atoms: C_36  and  O_70
REMARK    3  A    between atoms: C_72  and  C_73
REMARK    4  A    between atoms: C_75  and  C_76
REMARK                            x       y       z     vdW  Elec       q    Type
REMARK                         _______ _______ _______ _____ _____    ______ ____
ROOT
ATOM      1  O   UNL     1      44.152  43.044  71.084  0.00  0.00    +0.000 OA
ATOM      2  O   UNL     1      48.251  42.357  74.089  0.00  0.00    +0.000 OA
ATOM      3  O   UNL     1      48.591  37.582  74.144  0.00  0.00    +0.000 OA
ATOM      4  O   UNL     1      40.544  39.732  71.214  0.00  0.00    +0.000 OA
ATOM      5  O   UNL     1      50.733  40.950  71.014  0.00  0.00    +0.000 OA
ATOM      6  O   UNL     1      48.117  33.876  62.635  0.00  0.00    +0.000 OA
ATOM      7  O   UNL     1      42.096  41.769  66.260  0.00  0.00    +0.000 OA
ATOM      8  O   UNL     1      43.600  33.985  64.597  0.00  0.00    +0.000 OA
ATOM      9  O   UNL     1      51.882  35.243  65.361  0.00  0.00    +0.000 OA
ATOM     10  O   UNL     1      41.690  37.618  64.761  0.00  0.00    +0.000 OA
ATOM     11  O   UNL     1      51.301  39.143  67.110  0.00  0.00    +0.000 OA
ATOM     12  N   UNL     1      46.688  41.812  73.084  0.00  0.00    +0.000 NA
ATOM     13  N   UNL     1      44.111  40.729  71.737  0.00  0.00    +0.000 NA
ATOM     14  N   UNL     1      48.736  39.561  74.177  0.00  0.00    +0.000 NA
ATOM     15  N   UNL     1      50.476  38.479  71.745  0.00  0.00    +0.000 NA
ATOM     16  N   UNL     1      42.254  39.755  69.475  0.00  0.00    +0.000 NA
ATOM     17  N   UNL     1      48.475  33.536  64.937  0.00  0.00    +0.000 N 
ATOM     18  N   UNL     1      45.698  34.915  65.057  0.00  0.00    +0.000 N 
ATOM     19  N   UNL     1      43.443  36.746  65.000  0.00  0.00    +0.000 NA
ATOM     20  N   UNL     1      43.540  40.074  66.726  0.00  0.00    +0.000 NA
ATOM     21  N   UNL     1      49.749  38.307  68.858  0.00  0.00    +0.000 NA
ATOM     22  N   UNL     1      49.754  36.118  66.094  0.00  0.00    +0.000 NA
ATOM     23  C   UNL     1      46.036  42.412  72.047  0.00  0.00    +0.000 C 
ATOM     24  C   UNL     1      47.628  39.993  73.570  0.00  0.00    +0.000 C 
ATOM     25  C   UNL     1      42.737  40.595  71.785  0.00  0.00    +0.000 C 
ATOM     26  C   UNL     1      46.143  43.761  71.759  0.00  0.00    +0.000 C 
ATOM     27  C   UNL     1      46.665  39.197  74.363  0.00  0.00    +0.000 C 
ATOM     28  C   UNL     1      44.800  41.944  71.655  0.00  0.00    +0.000 C 
ATOM     29  C   UNL     1      47.928  41.305  73.427  0.00  0.00    +0.000 C 
ATOM     30  C   UNL     1      50.304  38.910  72.964  0.00  0.00    +0.000 C 
ATOM     31  C   UNL     1      49.068  38.529  73.394  0.00  0.00    +0.000 C 
ATOM     32  C   UNL     1      41.936  39.749  70.850  0.00  0.00    +0.000 C 
ATOM     33  C   UNL     1      46.930  44.194  72.871  0.00  0.00    +0.000 C 
ATOM     34  C   UNL     1      44.918  44.164  71.344  0.00  0.00    +0.000 C 
ATOM     35  C   UNL     1      47.285  42.997  73.473  0.00  0.00    +0.000 C 
ATOM     36  C   UNL     1      48.126  38.590  75.017  0.00  0.00    +0.000 C 
ATOM     37  C   UNL     1      41.726  40.656  68.516  0.00  0.00    +0.000 C 
ATOM     38  C   UNL     1      46.404  34.571  63.933  0.00  0.00    +0.000 A 
ATOM     39  C   UNL     1      50.214  39.634  71.143  0.00  0.00    +0.000 C 
ATOM     40  C   UNL     1      49.815  33.990  65.033  0.00  0.00    +0.000 C 
ATOM     41  C   UNL     1      43.388  35.616  65.746  0.00  0.00    +0.000 C 
ATOM     42  C   UNL     1      51.893  38.180  72.078  0.00  0.00    +0.000 C 
ATOM     43  C   UNL     1      46.062  34.746  62.557  0.00  0.00    +0.000 A 
ATOM     44  C   UNL     1      50.661  32.482  64.491  0.00  0.00    +0.000 C 
ATOM     45  C   UNL     1      49.988  39.246  69.721  0.00  0.00    +0.000 C 
ATOM     46  C   UNL     1      42.441  34.721  64.993  0.00  0.00    +0.000 C 
ATOM     47  C   UNL     1      40.591  41.384  68.985  0.00  0.00    +0.000 C 
ATOM     48  C   UNL     1      47.675  34.006  63.929  0.00  0.00    +0.000 A 
ATOM     49  C   UNL     1      42.345  40.826  67.322  0.00  0.00    +0.000 C 
ATOM     50  C   UNL     1      44.389  34.861  65.157  0.00  0.00    +0.000 C 
ATOM     51  C   UNL     1      50.467  35.127  65.448  0.00  0.00    +0.000 C 
ATOM     52  C   UNL     1      43.132  38.730  66.307  0.00  0.00    +0.000 C 
ATOM     53  C   UNL     1      44.839  35.384  61.956  0.00  0.00    +0.000 C 
ATOM     54  C   UNL     1      47.129  34.318  61.809  0.00  0.00    +0.000 A 
ATOM     55  C   UNL     1      42.621  37.514  65.784  0.00  0.00    +0.000 C 
ATOM     56  C   UNL     1      50.246  37.229  66.539  0.00  0.00    +0.000 C 
ATOM     57  C   UNL     1      50.476  40.516  69.871  0.00  0.00    +0.000 C 
ATOM     58  C   UNL     1      49.294  32.516  64.594  0.00  0.00    +0.000 C 
ATOM     59  C   UNL     1      39.899  41.572  69.945  0.00  0.00    +0.000 C 
ATOM     60  C   UNL     1      50.309  38.250  67.658  0.00  0.00    +0.000 C 
ATOM     61  C   UNL     1      42.238  36.471  64.037  0.00  0.00    +0.000 C 
ATOM     62  C   UNL     1      43.058  41.046  65.975  0.00  0.00    +0.000 C 
ATOM     63  C   UNL     1      51.147  38.213  66.301  0.00  0.00    +0.000 C 
ATOM     64  H   UNL     1      43.260  39.668  69.327  0.00  0.00    +0.000 HD
ATOM     65  H   UNL     1      46.205  35.446  65.760  0.00  0.00    +0.000 HD
ATOM     66  H   UNL     1      49.315  37.456  69.206  0.00  0.00    +0.000 HD
ATOM     67  H   UNL     1      48.907  35.746  66.513  0.00  0.00    +0.000 HD
ATOM     68  C   UNL     1      41.966  41.463  72.380  0.00  0.00    +0.000 C 
ATOM     69  C   UNL     1      40.600  41.855  72.301  0.00  0.00    +0.000 C 
ATOM     70  C   UNL     1      39.930  41.034  71.273  0.00  0.00    +0.000 C 
ATOM     71  C   UNL     1      45.875  39.268  75.837  0.00  0.00    +0.000 C 
ATOM     72  C   UNL     1      44.633  38.861  76.093  0.00  0.00    +0.000 C 
ATOM     73  C   UNL     1      47.141  38.679  75.920  0.00  0.00    +0.000 C 
ATOM     74  C   UNL     1      51.648  38.549  73.437  0.00  0.00    +0.000 C 
ATOM     75  C   UNL     1      52.923  38.821  72.960  0.00  0.00    +0.000 C 
ATOM     76  C   UNL     1      54.162  38.087  73.515  0.00  0.00    +0.000 C 
ATOM     77  C   UNL     1      52.967  38.896  71.581  0.00  0.00    +0.000 C 
ATOM     78  C   UNL     1      40.892  34.395  64.757  0.00  0.00    +0.000 C 
ATOM     79  C   UNL     1      40.201  33.303  64.438  0.00  0.00    +0.000 C 
ATOM     80  C   UNL     1      41.187  35.601  64.120  0.00  0.00    +0.000 C 
ATOM     81  C   UNL     1      51.967  32.760  64.494  0.00  0.00    +0.000 C 
ATOM     82  C   UNL     1      52.997  31.750  64.110  0.00  0.00    +0.000 C 
ATOM     83  C   UNL     1      52.318  34.066  64.914  0.00  0.00    +0.000 C 
ENDROOT
BRANCH  69  84
ATOM     84  C   UNL     1      40.052  43.067  72.785  0.00  0.00    +0.000 C 
ATOM     85  C   UNL     1      39.594  44.099  73.195  0.00  0.00    +0.000 C 
BRANCH  85  86
ATOM     86  C   UNL     1      39.015  45.417  73.719  0.00  0.00    +0.000 C 
ATOM     87  C   UNL     1      38.516  46.565  74.174  0.00  0.00    +0.000 C 
ENDBRANCH  85  86
ENDBRANCH  69  84
BRANCH  13  88
ATOM     88  C   UNL     1      44.881  39.524  71.475  0.00  0.00    +0.000 C 
BRANCH  88  89
ATOM     89  O   UNL     1      45.574  38.424  71.213  0.00  0.00    +0.000 OA
ATOM     90  H   UNL     1      46.200  38.245  71.937  0.00  0.00    +0.000 HD
ENDBRANCH  88  89
ENDBRANCH  13  88
TORSDOF 4
ENDMDL
MODEL 2
REMARK VINA RESULT:      -9.1     18.945     23.373
REMARK  Name = Cyclosporin_A.pdbqt.pdb
REMARK  4 active torsions:
REMARK  status: ('A' for Active; 'I' for Inactive)
REMARK    1  A    between atoms: N_13  and  C_36
REMARK    2  A    between atoms: C_36  and  O_70
REMARK    3  A    between atoms: C_72  and  C_73
REMARK    4  A    between atoms: C_75  and  C_76
REMARK                            x       y       z     vdW  Elec       q    Type
REMARK                         _______ _______ _______ _____ _____    ______ ____
ROOT
ATOM      1  O   UNL     1      55.410  48.288  51.611  0.00  0.00    +0.000 OA
ATOM      2  O   UNL     1      55.796  52.436  54.605  0.00  0.00    +0.000 OA
ATOM      3  O   UNL     1      58.220  50.680  58.341  0.00  0.00    +0.000 OA
ATOM      4  O   UNL     1      54.996  43.884  53.717  0.00  0.00    +0.000 OA
ATOM      5  O   UNL     1      59.938  52.872  54.101  0.00  0.00    +0.000 OA
ATOM      6  O   UNL     1      67.817  44.811  53.883  0.00  0.00    +0.000 OA
ATOM      7  O   UNL     1      58.318  44.393  49.267  0.00  0.00    +0.000 OA
ATOM      8  O   UNL     1      64.001  41.737  54.392  0.00  0.00    +0.000 OA
ATOM      9  O   UNL     1      67.239  49.470  55.081  0.00  0.00    +0.000 OA
ATOM     10  O   UNL     1      61.140  41.759  51.445  0.00  0.00    +0.000 OA
ATOM     11  O   UNL     1      63.841  51.254  53.112  0.00  0.00    +0.000 OA
ATOM     12  N   UNL     1      55.936  50.554  54.169  0.00  0.00    +0.000 NA
ATOM     13  N   UNL     1      56.037  47.476  53.787  0.00  0.00    +0.000 NA
ATOM     14  N   UNL     1      57.328  51.666  56.868  0.00  0.00    +0.000 NA
ATOM     15  N   UNL     1      60.471  51.838  56.415  0.00  0.00    +0.000 NA
ATOM     16  N   UNL     1      57.109  44.740  52.850  0.00  0.00    +0.000 NA
ATOM     17  N   UNL     1      66.553  45.739  55.639  0.00  0.00    +0.000 N 
ATOM     18  N   UNL     1      64.342  44.049  54.266  0.00  0.00    +0.000 N 
ATOM     19  N   UNL     1      62.315  42.931  52.510  0.00  0.00    +0.000 NA
ATOM     20  N   UNL     1      59.564  45.028  51.061  0.00  0.00    +0.000 NA
ATOM     21  N   UNL     1      62.194  50.183  54.631  0.00  0.00    +0.000 NA
ATOM     22  N   UNL     1      65.182  48.312  54.570  0.00  0.00    +0.000 NA
ATOM     23  C   UNL     1      56.032  49.918  52.966  0.00  0.00    +0.000 C 
ATOM     24  C   UNL     1      56.961  50.720  55.999  0.00  0.00    +0.000 C 
ATOM     25  C   UNL     1      55.342  46.285  53.725  0.00  0.00    +0.000 C 
ATOM     26  C   UNL     1      55.646  50.492  51.768  0.00  0.00    +0.000 C 
ATOM     27  C   UNL     1      56.276  49.838  56.970  0.00  0.00    +0.000 C 
ATOM     28  C   UNL     1      55.878  48.549  52.903  0.00  0.00    +0.000 C 
ATOM     29  C   UNL     1      56.593  51.489  54.948  0.00  0.00    +0.000 C 
ATOM     30  C   UNL     1      59.318  52.290  56.826  0.00  0.00    +0.000 C 
ATOM     31  C   UNL     1      58.545  51.236  57.212  0.00  0.00    +0.000 C 
ATOM     32  C   UNL     1      55.979  44.934  53.673  0.00  0.00    +0.000 C 
ATOM     33  C   UNL     1      55.074  51.711  52.246  0.00  0.00    +0.000 C 
ATOM     34  C   UNL     1      55.097  49.500  51.026  0.00  0.00    +0.000 C 
ATOM     35  C   UNL     1      55.412  51.695  53.591  0.00  0.00    +0.000 C 
ATOM     36  C   UNL     1      56.879  51.020  58.052  0.00  0.00    +0.000 C 
ATOM     37  C   UNL     1      57.071  44.363  51.483  0.00  0.00    +0.000 C 
ATOM     38  C   UNL     1      65.668  44.114  53.923  0.00  0.00    +0.000 A 
ATOM     39  C   UNL     1      60.202  51.913  55.115  0.00  0.00    +0.000 C 
ATOM     40  C   UNL     1      66.976  47.089  55.541  0.00  0.00    +0.000 C 
ATOM     41  C   UNL     1      62.302  42.650  53.835  0.00  0.00    +0.000 C 
ATOM     42  C   UNL     1      61.128  53.007  57.053  0.00  0.00    +0.000 C 
ATOM     43  C   UNL     1      66.369  43.440  52.878  0.00  0.00    +0.000 A 
ATOM     44  C   UNL     1      68.524  46.965  56.475  0.00  0.00    +0.000 C 
ATOM     45  C   UNL     1      61.266  51.078  54.487  0.00  0.00    +0.000 C 
ATOM     46  C   UNL     1      62.758  41.218  53.914  0.00  0.00    +0.000 C 
ATOM     47  C   UNL     1      55.795  43.885  51.060  0.00  0.00    +0.000 C 
ATOM     48  C   UNL     1      66.612  44.933  54.533  0.00  0.00    +0.000 A 
ATOM     49  C   UNL     1      58.155  44.553  50.690  0.00  0.00    +0.000 C 
ATOM     50  C   UNL     1      63.606  42.963  54.185  0.00  0.00    +0.000 C 
ATOM     51  C   UNL     1      66.486  48.265  55.024  0.00  0.00    +0.000 C 
ATOM     52  C   UNL     1      60.285  43.967  51.769  0.00  0.00    +0.000 C 
ATOM     53  C   UNL     1      65.839  42.488  51.838  0.00  0.00    +0.000 C 
ATOM     54  C   UNL     1      67.662  43.897  52.886  0.00  0.00    +0.000 A 
ATOM     55  C   UNL     1      60.964  42.839  52.299  0.00  0.00    +0.000 C 
ATOM     56  C   UNL     1      64.599  49.353  54.069  0.00  0.00    +0.000 C 
ATOM     57  C   UNL     1      60.811  52.084  53.679  0.00  0.00    +0.000 C 
ATOM     58  C   UNL     1      67.714  45.869  56.320  0.00  0.00    +0.000 C 
ATOM     59  C   UNL     1      54.666  43.710  51.421  0.00  0.00    +0.000 C 
ATOM     60  C   UNL     1      63.359  50.222  54.000  0.00  0.00    +0.000 C 
ATOM     61  C   UNL     1      62.485  41.480  51.945  0.00  0.00    +0.000 C 
ATOM     62  C   UNL     1      59.372  44.791  49.777  0.00  0.00    +0.000 C 
ATOM     63  C   UNL     1      64.772  50.451  53.294  0.00  0.00    +0.000 C 
ATOM     64  H   UNL     1      57.785  45.495  52.966  0.00  0.00    +0.000 HD
ATOM     65  H   UNL     1      63.863  44.940  54.373  0.00  0.00    +0.000 HD
ATOM     66  H   UNL     1      62.127  49.570  55.439  0.00  0.00    +0.000 HD
ATOM     67  H   UNL     1      64.618  47.584  54.999  0.00  0.00    +0.000 HD
ATOM     68  C   UNL     1      54.102  46.213  53.325  0.00  0.00    +0.000 C 
ATOM     69  C   UNL     1      53.248  45.213  52.783  0.00  0.00    +0.000 C 
ATOM     70  C   UNL     1      54.007  43.951  52.671  0.00  0.00    +0.000 C 
ATOM     71  C   UNL     1      54.792  49.704  57.729  0.00  0.00    +0.000 C 
ATOM     72  C   UNL     1      54.149  48.575  58.026  0.00  0.00    +0.000 C 
ATOM     73  C   UNL     1      55.683  50.537  58.411  0.00  0.00    +0.000 C 
ATOM     74  C   UNL     1      59.869  53.418  57.589  0.00  0.00    +0.000 C 
ATOM     75  C   UNL     1      60.747  54.443  57.262  0.00  0.00    +0.000 C 
ATOM     76  C   UNL     1      61.364  55.350  58.347  0.00  0.00    +0.000 C 
ATOM     77  C   UNL     1      61.702  54.047  56.345  0.00  0.00    +0.000 C 
ATOM     78  C   UNL     1      62.261  39.701  53.796  0.00  0.00    +0.000 C 
ATOM     79  C   UNL     1      62.642  38.545  54.334  0.00  0.00    +0.000 C 
ATOM     80  C   UNL     1      62.288  40.253  52.515  0.00  0.00    +0.000 C 
ATOM     81  C   UNL     1      69.079  48.179  56.449  0.00  0.00    +0.000 C 
ATOM     82  C   UNL     1      70.376  48.477  57.126  0.00  0.00    +0.000 C 
ATOM     83  C   UNL     1      68.346  49.177  55.762  0.00  0.00    +0.000 C 
ENDROOT
BRANCH  69  84
ATOM     84  C   UNL     1      52.039  45.439  52.082  0.00  0.00    +0.000 C 
ATOM     85  C   UNL     1      51.012  45.623  51.488  0.00  0.00    +0.000 C 
BRANCH  85  86
ATOM     86  C   UNL     1      49.702  45.853  50.728  0.00  0.00    +0.000 C 
ATOM     87  C   UNL     1      48.560  46.050  50.071  0.00  0.00    +0.000 C 
ENDBRANCH  85  86
ENDBRANCH  69  84
BRANCH  13  88
ATOM     88  C   UNL     1      57.204  47.513  54.653  0.00  0.00    +0.000 C 
BRANCH  88  89
ATOM     89  O   UNL     1      58.281  47.535  55.427  0.00  0.00    +0.000 OA
ATOM     90  H   UNL     1      58.020  47.658  56.357  0.00  0.00    +0.000 HD
ENDBRANCH  88  89
ENDBRANCH  13  88
TORSDOF 4
ENDMDL
MODEL 3
REMARK VINA RESULT:      -9.0     11.686     19.066
REMARK  Name = Cyclosporin_A.pdbqt.pdb
REMARK  4 active torsions:
REMARK  status: ('A' for Active; 'I' for Inactive)
REMARK    1  A    between atoms: N_13  and  C_36
REMARK    2  A    between atoms: C_36  and  O_70
REMARK    3  A    between atoms: C_72  and  C_73
REMARK    4  A    between atoms: C_75  and  C_76
REMARK                            x       y       z     vdW  Elec       q    Type
REMARK                         _______ _______ _______ _____ _____    ______ ____
ROOT
ATOM      1  O   UNL     1      58.244  33.952  73.161  0.00  0.00    +0.000 OA
ATOM      2  O   UNL     1      60.766  35.874  69.129  0.00  0.00    +0.000 OA
ATOM      3  O   UNL     1      61.093  40.495  70.337  0.00  0.00    +0.000 OA
ATOM      4  O   UNL     1      54.924  36.754  75.427  0.00  0.00    +0.000 OA
ATOM      5  O   UNL     1      64.298  36.670  71.248  0.00  0.00    +0.000 OA
ATOM      6  O   UNL     1      65.387  40.895  81.643  0.00  0.00    +0.000 OA
ATOM      7  O   UNL     1      58.345  33.647  78.548  0.00  0.00    +0.000 OA
ATOM      8  O   UNL     1      60.461  40.815  81.672  0.00  0.00    +0.000 OA
ATOM      9  O   UNL     1      67.700  40.739  77.388  0.00  0.00    +0.000 OA
ATOM     10  O   UNL     1      58.620  37.171  81.223  0.00  0.00    +0.000 OA
ATOM     11  O   UNL     1      66.424  37.413  74.957  0.00  0.00    +0.000 OA
ATOM     12  N   UNL     1      59.753  35.951  70.778  0.00  0.00    +0.000 NA
ATOM     13  N   UNL     1      57.960  36.337  73.281  0.00  0.00    +0.000 NA
ATOM     14  N   UNL     1      61.196  38.627  69.675  0.00  0.00    +0.000 NA
ATOM     15  N   UNL     1      63.786  39.202  71.429  0.00  0.00    +0.000 NA
ATOM     16  N   UNL     1      57.195  36.455  76.266  0.00  0.00    +0.000 NA
ATOM     17  N   UNL     1      64.777  41.879  79.593  0.00  0.00    +0.000 N 
ATOM     18  N   UNL     1      62.181  40.282  80.177  0.00  0.00    +0.000 N 
ATOM     19  N   UNL     1      60.130  38.264  80.579  0.00  0.00    +0.000 NA
ATOM     20  N   UNL     1      59.487  35.555  78.068  0.00  0.00    +0.000 NA
ATOM     21  N   UNL     1      64.301  38.510  74.284  0.00  0.00    +0.000 NA
ATOM     22  N   UNL     1      65.451  39.862  77.330  0.00  0.00    +0.000 NA
ATOM     23  C   UNL     1      59.577  35.025  71.765  0.00  0.00    +0.000 C 
ATOM     24  C   UNL     1      60.429  37.926  70.515  0.00  0.00    +0.000 C 
ATOM     25  C   UNL     1      56.687  36.326  73.817  0.00  0.00    +0.000 C 
ATOM     26  C   UNL     1      59.781  33.669  71.582  0.00  0.00    +0.000 C 
ATOM     27  C   UNL     1      59.232  38.794  70.432  0.00  0.00    +0.000 C 
ATOM     28  C   UNL     1      58.611  35.230  72.729  0.00  0.00    +0.000 C 
ATOM     29  C   UNL     1      60.750  36.666  70.140  0.00  0.00    +0.000 C 
ATOM     30  C   UNL     1      63.128  39.098  70.308  0.00  0.00    +0.000 C 
ATOM     31  C   UNL     1      61.827  39.440  70.528  0.00  0.00    +0.000 C 
ATOM     32  C   UNL     1      56.343  36.795  75.193  0.00  0.00    +0.000 C 
ATOM     33  C   UNL     1      60.042  33.641  70.177  0.00  0.00    +0.000 C 
ATOM     34  C   UNL     1      58.828  33.036  72.308  0.00  0.00    +0.000 C 
ATOM     35  C   UNL     1      60.130  34.988  69.861  0.00  0.00    +0.000 C 
ATOM     36  C   UNL     1      60.304  39.713  69.464  0.00  0.00    +0.000 C 
ATOM     37  C   UNL     1      57.096  35.277  77.048  0.00  0.00    +0.000 C 
ATOM     38  C   UNL     1      63.287  40.388  80.980  0.00  0.00    +0.000 A 
ATOM     39  C   UNL     1      63.782  37.905  71.722  0.00  0.00    +0.000 C 
ATOM     40  C   UNL     1      65.957  41.620  78.851  0.00  0.00    +0.000 C 
ATOM     41  C   UNL     1      59.785  39.539  80.278  0.00  0.00    +0.000 C 
ATOM     42  C   UNL     1      64.946  39.735  70.669  0.00  0.00    +0.000 C 
ATOM     43  C   UNL     1      63.535  39.813  82.264  0.00  0.00    +0.000 A 
ATOM     44  C   UNL     1      66.963  43.011  79.430  0.00  0.00    +0.000 C 
ATOM     45  C   UNL     1      64.160  37.870  73.164  0.00  0.00    +0.000 C 
ATOM     46  C   UNL     1      59.235  40.088  81.567  0.00  0.00    +0.000 C 
ATOM     47  C   UNL     1      55.863  34.579  76.873  0.00  0.00    +0.000 C 
ATOM     48  C   UNL     1      64.454  41.070  80.649  0.00  0.00    +0.000 A 
ATOM     49  C   UNL     1      58.148  34.862  77.798  0.00  0.00    +0.000 C 
ATOM     50  C   UNL     1      60.945  40.215  80.619  0.00  0.00    +0.000 C 
ATOM     51  C   UNL     1      66.374  40.716  77.902  0.00  0.00    +0.000 C 
ATOM     52  C   UNL     1      59.297  36.683  78.984  0.00  0.00    +0.000 C 
ATOM     53  C   UNL     1      62.658  38.905  83.083  0.00  0.00    +0.000 C 
ATOM     54  C   UNL     1      64.818  40.140  82.622  0.00  0.00    +0.000 A 
ATOM     55  C   UNL     1      59.055  37.649  79.995  0.00  0.00    +0.000 C 
ATOM     56  C   UNL     1      65.710  38.973  76.426  0.00  0.00    +0.000 C 
ATOM     57  C   UNL     1      64.533  36.750  72.472  0.00  0.00    +0.000 C 
ATOM     58  C   UNL     1      65.673  42.854  79.867  0.00  0.00    +0.000 C 
ATOM     59  C   UNL     1      54.838  34.581  76.252  0.00  0.00    +0.000 C 
ATOM     60  C   UNL     1      65.302  38.305  75.128  0.00  0.00    +0.000 C 
ATOM     61  C   UNL     1      59.425  38.134  81.972  0.00  0.00    +0.000 C 
ATOM     62  C   UNL     1      59.346  34.369  78.630  0.00  0.00    +0.000 C 
ATOM     63  C   UNL     1      66.622  38.068  75.994  0.00  0.00    +0.000 C 
ATOM     64  H   UNL     1      58.174  36.611  76.025  0.00  0.00    +0.000 HD
ATOM     65  H   UNL     1      62.353  40.020  79.209  0.00  0.00    +0.000 HD
ATOM     66  H   UNL     1      63.770  39.369  74.397  0.00  0.00    +0.000 HD
ATOM     67  H   UNL     1      64.510  40.237  77.405  0.00  0.00    +0.000 HD
ATOM     68  C   UNL     1      55.732  35.569  73.348  0.00  0.00    +0.000 C 
ATOM     69  C   UNL     1      54.514  35.021  73.839  0.00  0.00    +0.000 C 
ATOM     70  C   UNL     1      54.329  35.455  75.238  0.00  0.00    +0.000 C 
ATOM     71  C   UNL     1      57.910  39.034  69.436  0.00  0.00    +0.000 C 
ATOM     72  C   UNL     1      56.674  39.354  69.818  0.00  0.00    +0.000 C 
ATOM     73  C   UNL     1      59.036  39.760  69.038  0.00  0.00    +0.000 C 
ATOM     74  C   UNL     1      64.165  39.720  69.473  0.00  0.00    +0.000 C 
ATOM     75  C   UNL     1      65.521  39.473  69.309  0.00  0.00    +0.000 C 
ATOM     76  C   UNL     1      66.432  40.463  68.552  0.00  0.00    +0.000 C 
ATOM     77  C   UNL     1      66.123  39.036  70.474  0.00  0.00    +0.000 C 
ATOM     78  C   UNL     1      57.920  40.164  82.476  0.00  0.00    +0.000 C 
ATOM     79  C   UNL     1      57.429  41.046  83.343  0.00  0.00    +0.000 C 
ATOM     80  C   UNL     1      58.439  38.872  82.566  0.00  0.00    +0.000 C 
ATOM     81  C   UNL     1      68.152  42.892  78.834  0.00  0.00    +0.000 C 
ATOM     82  C   UNL     1      69.257  43.869  79.058  0.00  0.00    +0.000 C 
ATOM     83  C   UNL     1      68.291  41.794  77.950  0.00  0.00    +0.000 C 
ENDROOT
BRANCH  69  84
ATOM     84  C   UNL     1      53.807  33.931  73.279  0.00  0.00    +0.000 C 
ATOM     85  C   UNL     1      53.211  33.000  72.809  0.00  0.00    +0.000 C 
BRANCH  85  86
ATOM     86  C   UNL     1      52.454  31.810  72.209  0.00  0.00    +0.000 C 
ATOM     87  C   UNL     1      51.794  30.775  71.693  0.00  0.00    +0.000 C 
ENDBRANCH  85  86
ENDBRANCH  69  84
BRANCH  13  88
ATOM     88  C   UNL     1      58.779  37.506  73.557  0.00  0.00    +0.000 C 
BRANCH  88  89
ATOM     89  O   UNL     1      59.508  38.582  73.822  0.00  0.00    +0.000 OA
ATOM     90  H   UNL     1      58.961  39.254  74.265  0.00  0.00    +0.000 HD
ENDBRANCH  88  89
ENDBRANCH  13  88
TORSDOF 4
ENDMDL
MODEL 4
REMARK VINA RESULT:      -9.0      5.722     12.753
REMARK  Name = Cyclosporin_A.pdbqt.pdb
REMARK  4 active torsions:
REMARK  status: ('A' for Active; 'I' for Inactive)
REMARK    1  A    between atoms: N_13  and  C_36
REMARK    2  A    between atoms: C_36  and  O_70
REMARK    3  A    between atoms: C_72  and  C_73
REMARK    4  A    between atoms: C_75  and  C_76
REMARK                            x       y       z     vdW  Elec       q    Type
REMARK                         _______ _______ _______ _____ _____    ______ ____
ROOT
ATOM      1  O   UNL     1      41.958  37.552  69.022  0.00  0.00    +0.000 OA
ATOM      2  O   UNL     1      42.519  40.933  72.839  0.00  0.00    +0.000 OA
ATOM      3  O   UNL     1      41.992  45.082  70.510  0.00  0.00    +0.000 OA
ATOM      4  O   UNL     1      43.540  38.759  64.545  0.00  0.00    +0.000 OA
ATOM      5  O   UNL     1      38.518  42.191  72.812  0.00  0.00    +0.000 OA
ATOM      6  O   UNL     1      31.895  44.166  63.904  0.00  0.00    +0.000 OA
ATOM      7  O   UNL     1      38.653  36.114  65.006  0.00  0.00    +0.000 OA
ATOM      8  O   UNL     1      35.807  42.721  61.282  0.00  0.00    +0.000 OA
ATOM      9  O   UNL     1      32.554  45.592  68.488  0.00  0.00    +0.000 OA
ATOM     10  O   UNL     1      37.190  38.901  61.884  0.00  0.00    +0.000 OA
ATOM     11  O   UNL     1      34.691  42.660  70.820  0.00  0.00    +0.000 OA
ATOM     12  N   UNL     1      42.358  40.363  70.995  0.00  0.00    +0.000 NA
ATOM     13  N   UNL     1      42.346  39.680  67.968  0.00  0.00    +0.000 NA
ATOM     14  N   UNL     1      42.120  43.507  71.712  0.00  0.00    +0.000 NA
ATOM     15  N   UNL     1      39.066  44.378  71.539  0.00  0.00    +0.000 NA
ATOM     16  N   UNL     1      41.199  38.924  65.207  0.00  0.00    +0.000 NA
ATOM     17  N   UNL     1      33.694  45.367  64.834  0.00  0.00    +0.000 N 
ATOM     18  N   UNL     1      35.267  43.026  63.539  0.00  0.00    +0.000 N 
ATOM     19  N   UNL     1      36.471  40.483  62.818  0.00  0.00    +0.000 NA
ATOM     20  N   UNL     1      38.211  38.321  65.340  0.00  0.00    +0.000 NA
ATOM     21  N   UNL     1      36.894  43.247  69.837  0.00  0.00    +0.000 NA
ATOM     22  N   UNL     1      34.301  44.162  67.631  0.00  0.00    +0.000 NA
ATOM     23  C   UNL     1      41.825  39.232  70.451  0.00  0.00    +0.000 C 
ATOM     24  C   UNL     1      42.167  42.456  70.889  0.00  0.00    +0.000 C 
ATOM     25  C   UNL     1      43.044  39.199  66.878  0.00  0.00    +0.000 C 
ATOM     26  C   UNL     1      41.638  38.060  71.161  0.00  0.00    +0.000 C 
ATOM     27  C   UNL     1      43.258  42.955  70.021  0.00  0.00    +0.000 C 
ATOM     28  C   UNL     1      42.044  38.945  69.120  0.00  0.00    +0.000 C 
ATOM     29  C   UNL     1      42.010  41.448  71.779  0.00  0.00    +0.000 C 
ATOM     30  C   UNL     1      40.247  44.344  72.092  0.00  0.00    +0.000 C 
ATOM     31  C   UNL     1      41.190  44.256  71.111  0.00  0.00    +0.000 C 
ATOM     32  C   UNL     1      42.549  39.242  65.469  0.00  0.00    +0.000 C 
ATOM     33  C   UNL     1      42.259  38.413  72.398  0.00  0.00    +0.000 C 
ATOM     34  C   UNL     1      41.907  37.044  70.306  0.00  0.00    +0.000 C 
ATOM     35  C   UNL     1      42.508  39.768  72.234  0.00  0.00    +0.000 C 
ATOM     36  C   UNL     1      43.064  44.323  71.031  0.00  0.00    +0.000 C 
ATOM     37  C   UNL     1      40.699  37.623  64.948  0.00  0.00    +0.000 C 
ATOM     38  C   UNL     1      33.917  43.256  63.470  0.00  0.00    +0.000 A 
ATOM     39  C   UNL     1      38.769  43.100  71.750  0.00  0.00    +0.000 C 
ATOM     40  C   UNL     1      33.165  45.614  66.126  0.00  0.00    +0.000 C 
ATOM     41  C   UNL     1      37.050  41.646  62.434  0.00  0.00    +0.000 C 
ATOM     42  C   UNL     1      38.641  45.364  72.566  0.00  0.00    +0.000 C 
ATOM     43  C   UNL     1      32.901  42.505  62.803  0.00  0.00    +0.000 A 
ATOM     44  C   UNL     1      32.153  47.067  65.742  0.00  0.00    +0.000 C 
ATOM     45  C   UNL     1      37.609  42.855  70.846  0.00  0.00    +0.000 C 
ATOM     46  C   UNL     1      36.778  41.725  60.956  0.00  0.00    +0.000 C 
ATOM     47  C   UNL     1      41.720  36.667  64.663  0.00  0.00    +0.000 C 
ATOM     48  C   UNL     1      33.247  44.289  64.118  0.00  0.00    +0.000 A 
ATOM     49  C   UNL     1      39.374  37.361  65.069  0.00  0.00    +0.000 C 
ATOM     50  C   UNL     1      35.986  42.525  62.559  0.00  0.00    +0.000 C 
ATOM     51  C   UNL     1      33.307  45.091  67.390  0.00  0.00    +0.000 C 
ATOM     52  C   UNL     1      37.929  39.123  64.146  0.00  0.00    +0.000 C 
ATOM     53  C   UNL     1      33.028  41.233  62.008  0.00  0.00    +0.000 C 
ATOM     54  C   UNL     1      31.695  43.088  63.098  0.00  0.00    +0.000 A 
ATOM     55  C   UNL     1      37.618  39.738  62.905  0.00  0.00    +0.000 C 
ATOM     56  C   UNL     1      34.543  43.601  68.771  0.00  0.00    +0.000 C 
ATOM     57  C   UNL     1      37.611  42.061  71.961  0.00  0.00    +0.000 C 
ATOM     58  C   UNL     1      32.910  46.467  64.768  0.00  0.00    +0.000 C 
ATOM     59  C   UNL     1      42.908  36.521  64.597  0.00  0.00    +0.000 C 
ATOM     60  C   UNL     1      35.574  43.147  69.786  0.00  0.00    +0.000 C 
ATOM     61  C   UNL     1      36.196  39.861  61.406  0.00  0.00    +0.000 C 
ATOM     62  C   UNL     1      37.874  37.049  65.232  0.00  0.00    +0.000 C 
ATOM     63  C   UNL     1      33.982  43.101  69.900  0.00  0.00    +0.000 C 
ATOM     64  H   UNL     1      40.574  39.393  65.863  0.00  0.00    +0.000 HD
ATOM     65  H   UNL     1      35.678  43.041  64.469  0.00  0.00    +0.000 HD
ATOM     66  H   UNL     1      37.335  43.879  69.174  0.00  0.00    +0.000 HD
ATOM     67  H   UNL     1      35.045  44.236  66.944  0.00  0.00    +0.000 HD
ATOM     68  C   UNL     1      44.011  38.330  66.989  0.00  0.00    +0.000 C 
ATOM     69  C   UNL     1      44.641  37.372  66.145  0.00  0.00    +0.000 C 
ATOM     70  C   UNL     1      44.002  37.421  64.815  0.00  0.00    +0.000 C 
ATOM     71  C   UNL     1      44.929  43.032  70.006  0.00  0.00    +0.000 C 
ATOM     72  C   UNL     1      45.721  42.905  68.943  0.00  0.00    +0.000 C 
ATOM     73  C   UNL     1      44.336  44.110  70.669  0.00  0.00    +0.000 C 
ATOM     74  C   UNL     1      39.974  45.396  73.081  0.00  0.00    +0.000 C 
ATOM     75  C   UNL     1      38.963  45.577  74.015  0.00  0.00    +0.000 C 
ATOM     76  C   UNL     1      38.780  46.920  74.752  0.00  0.00    +0.000 C 
ATOM     77  C   UNL     1      37.748  45.079  73.582  0.00  0.00    +0.000 C 
ATOM     78  C   UNL     1      37.298  41.234  59.524  0.00  0.00    +0.000 C 
ATOM     79  C   UNL     1      37.263  41.732  58.291  0.00  0.00    +0.000 C 
ATOM     80  C   UNL     1      36.704  40.148  60.170  0.00  0.00    +0.000 C 
ATOM     81  C   UNL     1      31.545  47.415  66.879  0.00  0.00    +0.000 C 
ATOM     82  C   UNL     1      30.624  48.586  66.963  0.00  0.00    +0.000 C 
ATOM     83  C   UNL     1      31.851  46.620  68.010  0.00  0.00    +0.000 C 
ENDROOT
BRANCH  69  84
ATOM     84  C   UNL     1      45.432  36.279  66.571  0.00  0.00    +0.000 C 
ATOM     85  C   UNL     1      46.107  35.351  66.925  0.00  0.00    +0.000 C 
BRANCH  85  86
ATOM     86  C   UNL     1      46.968  34.165  67.372  0.00  0.00    +0.000 C 
ATOM     87  C   UNL     1      47.719  33.137  67.764  0.00  0.00    +0.000 C 
ENDBRANCH  85  86
ENDBRANCH  69  84
BRANCH  13  88
ATOM     88  C   UNL     1      41.641  40.939  67.795  0.00  0.00    +0.000 C 
BRANCH  88  89
ATOM     89  O   UNL     1      40.985  42.078  67.617  0.00  0.00    +0.000 OA
ATOM     90  H   UNL     1      40.026  41.913  67.613  0.00  0.00    +0.000 HD
ENDBRANCH  88  89
ENDBRANCH  13  88
TORSDOF 4
ENDMDL
MODEL 5
REMARK VINA RESULT:      -9.0      4.862     11.762
REMARK  Name = Cyclosporin_A.pdbqt.pdb
REMARK  4 active torsions:
REMARK  status: ('A' for Active; 'I' for Inactive)
REMARK    1  A    between atoms: N_13  and  C_36
REMARK    2  A    between atoms: C_36  and  O_70
REMARK    3  A    between atoms: C_72  and  C_73
REMARK    4  A    between atoms: C_75  and  C_76
REMARK                            x       y       z     vdW  Elec       q    Type
REMARK                         _______ _______ _______ _____ _____    ______ ____
ROOT
ATOM      1  O   UNL     1      57.018  34.317  68.372  0.00  0.00    +0.000 OA
ATOM      2  O   UNL     1      55.106  36.407  72.648  0.00  0.00    +0.000 OA
ATOM      3  O   UNL     1      52.142  39.705  70.844  0.00  0.00    +0.000 OA
ATOM      4  O   UNL     1      57.655  37.161  64.432  0.00  0.00    +0.000 OA
ATOM      5  O   UNL     1      51.237  34.877  72.110  0.00  0.00    +0.000 OA
ATOM      6  O   UNL     1      45.300  34.147  62.554  0.00  0.00    +0.000 OA
ATOM      7  O   UNL     1      55.592  32.033  63.695  0.00  0.00    +0.000 OA
ATOM      8  O   UNL     1      49.339  36.042  60.465  0.00  0.00    +0.000 OA
ATOM      9  O   UNL     1      44.683  34.660  67.333  0.00  0.00    +0.000 OA
ATOM     10  O   UNL     1      52.824  33.890  60.774  0.00  0.00    +0.000 OA
ATOM     11  O   UNL     1      48.096  33.279  69.578  0.00  0.00    +0.000 OA
ATOM     12  N   UNL     1      55.431  36.268  70.744  0.00  0.00    +0.000 NA
ATOM     13  N   UNL     1      55.996  36.388  67.696  0.00  0.00    +0.000 NA
ATOM     14  N   UNL     1      53.197  38.341  71.826  0.00  0.00    +0.000 NA
ATOM     15  N   UNL     1      50.309  37.139  71.255  0.00  0.00    +0.000 NA
ATOM     16  N   UNL     1      55.727  35.691  64.703  0.00  0.00    +0.000 NA
ATOM     17  N   UNL     1      45.864  35.973  63.929  0.00  0.00    +0.000 N 
ATOM     18  N   UNL     1      48.629  35.458  62.617  0.00  0.00    +0.000 N 
ATOM     19  N   UNL     1      51.216  34.439  61.776  0.00  0.00    +0.000 NA
ATOM     20  N   UNL     1      53.822  33.352  64.243  0.00  0.00    +0.000 NA
ATOM     21  N   UNL     1      49.449  35.298  69.072  0.00  0.00    +0.000 NA
ATOM     22  N   UNL     1      46.976  34.847  66.601  0.00  0.00    +0.000 NA
ATOM     23  C   UNL     1      55.774  35.199  69.970  0.00  0.00    +0.000 C 
ATOM     24  C   UNL     1      53.946  37.751  70.890  0.00  0.00    +0.000 C 
ATOM     25  C   UNL     1      56.888  36.690  66.685  0.00  0.00    +0.000 C 
ATOM     26  C   UNL     1      56.351  34.047  70.474  0.00  0.00    +0.000 C 
ATOM     27  C   UNL     1      54.499  38.989  70.295  0.00  0.00    +0.000 C 
ATOM     28  C   UNL     1      56.186  35.401  68.669  0.00  0.00    +0.000 C 
ATOM     29  C   UNL     1      54.433  36.704  71.596  0.00  0.00    +0.000 C 
ATOM     30  C   UNL     1      51.210  37.729  71.992  0.00  0.00    +0.000 C 
ATOM     31  C   UNL     1      52.032  38.456  71.183  0.00  0.00    +0.000 C 
ATOM     32  C   UNL     1      56.545  36.713  65.231  0.00  0.00    +0.000 C 
ATOM     33  C   UNL     1      56.545  34.438  71.835  0.00  0.00    +0.000 C 
ATOM     34  C   UNL     1      57.248  33.630  69.547  0.00  0.00    +0.000 C 
ATOM     35  C   UNL     1      55.872  35.649  71.899  0.00  0.00    +0.000 C 
ATOM     36  C   UNL     1      53.427  39.687  71.433  0.00  0.00    +0.000 C 
ATOM     37  C   UNL     1      56.192  34.454  64.190  0.00  0.00    +0.000 C 
ATOM     38  C   UNL     1      47.451  34.808  62.351  0.00  0.00    +0.000 A 
ATOM     39  C   UNL     1      50.893  35.945  71.239  0.00  0.00    +0.000 C 
ATOM     40  C   UNL     1      45.243  35.557  65.134  0.00  0.00    +0.000 C 
ATOM     41  C   UNL     1      50.929  35.758  61.656  0.00  0.00    +0.000 C 
ATOM     42  C   UNL     1      49.305  37.401  72.318  0.00  0.00    +0.000 C 
ATOM     43  C   UNL     1      47.186  33.753  61.426  0.00  0.00    +0.000 A 
ATOM     44  C   UNL     1      43.552  36.107  64.783  0.00  0.00    +0.000 C 
ATOM     45  C   UNL     1      50.203  35.231  70.126  0.00  0.00    +0.000 C 
ATOM     46  C   UNL     1      50.736  35.963  60.178  0.00  0.00    +0.000 C 
ATOM     47  C   UNL     1      57.600  34.427  63.957  0.00  0.00    +0.000 C 
ATOM     48  C   UNL     1      46.246  35.034  63.009  0.00  0.00    +0.000 A 
ATOM     49  C   UNL     1      55.341  33.407  64.048  0.00  0.00    +0.000 C 
ATOM     50  C   UNL     1      49.544  35.735  61.716  0.00  0.00    +0.000 C 
ATOM     51  C   UNL     1      45.630  34.982  66.322  0.00  0.00    +0.000 C 
ATOM     52  C   UNL     1      53.145  34.036  63.138  0.00  0.00    +0.000 C 
ATOM     53  C   UNL     1      48.136  33.039  60.501  0.00  0.00    +0.000 C 
ATOM     54  C   UNL     1      45.876  33.381  61.588  0.00  0.00    +0.000 A 
ATOM     55  C   UNL     1      52.568  34.570  61.956  0.00  0.00    +0.000 C 
ATOM     56  C   UNL     1      47.471  34.332  67.679  0.00  0.00    +0.000 C 
ATOM     57  C   UNL     1      50.665  34.398  71.108  0.00  0.00    +0.000 C 
ATOM     58  C   UNL     1      44.560  36.331  63.880  0.00  0.00    +0.000 C 
ATOM     59  C   UNL     1      58.606  35.068  64.075  0.00  0.00    +0.000 C 
ATOM     60  C   UNL     1      48.506  34.413  68.785  0.00  0.00    +0.000 C 
ATOM     61  C   UNL     1      51.468  34.099  60.268  0.00  0.00    +0.000 C 
ATOM     62  C   UNL     1      54.386  32.207  63.909  0.00  0.00    +0.000 C 
ATOM     63  C   UNL     1      47.313  33.367  68.618  0.00  0.00    +0.000 C 
ATOM     64  H   UNL     1      54.919  35.518  65.301  0.00  0.00    +0.000 HD
ATOM     65  H   UNL     1      48.892  35.527  63.597  0.00  0.00    +0.000 HD
ATOM     66  H   UNL     1      49.411  36.190  68.585  0.00  0.00    +0.000 HD
ATOM     67  H   UNL     1      47.529  35.510  66.067  0.00  0.00    +0.000 HD
ATOM     68  C   UNL     1      58.182  36.610  66.841  0.00  0.00    +0.000 C 
ATOM     69  C   UNL     1      59.316  36.458  65.995  0.00  0.00    +0.000 C 
ATOM     70  C   UNL     1      58.856  36.380  64.594  0.00  0.00    +0.000 C 
ATOM     71  C   UNL     1      55.729  40.088  70.575  0.00  0.00    +0.000 C 
ATOM     72  C   UNL     1      56.464  40.710  69.655  0.00  0.00    +0.000 C 
ATOM     73  C   UNL     1      54.553  40.393  71.267  0.00  0.00    +0.000 C 
ATOM     74  C   UNL     1      50.281  38.143  73.052  0.00  0.00    +0.000 C 
ATOM     75  C   UNL     1      49.349  37.453  73.816  0.00  0.00    +0.000 C 
ATOM     76  C   UNL     1      48.313  38.197  74.685  0.00  0.00    +0.000 C 
ATOM     77  C   UNL     1      48.759  36.416  73.120  0.00  0.00    +0.000 C 
ATOM     78  C   UNL     1      51.514  36.219  58.803  0.00  0.00    +0.000 C 
ATOM     79  C   UNL     1      51.222  36.835  57.660  0.00  0.00    +0.000 C 
ATOM     80  C   UNL     1      51.728  34.894  59.186  0.00  0.00    +0.000 C 
ATOM     81  C   UNL     1      42.813  35.750  65.835  0.00  0.00    +0.000 C 
ATOM     82  C   UNL     1      41.352  36.044  65.918  0.00  0.00    +0.000 C 
ATOM     83  C   UNL     1      43.507  35.100  66.885  0.00  0.00    +0.000 C 
ENDROOT
BRANCH  69  84
ATOM     84  C   UNL     1      60.604  36.034  66.398  0.00  0.00    +0.000 C 
ATOM     85  C   UNL     1      61.695  35.666  66.743  0.00  0.00    +0.000 C 
BRANCH  85  86
ATOM     86  C   UNL     1      63.084  35.195  67.186  0.00  0.00    +0.000 C 
ATOM     87  C   UNL     1      64.289  34.781  67.574  0.00  0.00    +0.000 C 
ENDBRANCH  85  86
ENDBRANCH  69  84
BRANCH  13  88
ATOM     88  C   UNL     1      54.656  36.937  67.576  0.00  0.00    +0.000 C 
BRANCH  88  89
ATOM     89  O   UNL     1      53.433  37.433  67.442  0.00  0.00    +0.000 OA
ATOM     90  H   UNL     1      52.873  37.144  68.185  0.00  0.00    +0.000 HD
ENDBRANCH  88  89
ENDBRANCH  13  88
TORSDOF 4
ENDMDL
MODEL 6
REMARK VINA RESULT:      -8.8     24.608     30.184
REMARK  Name = Cyclosporin_A.pdbqt.pdb
REMARK  4 active torsions:
REMARK  status: ('A' for Active; 'I' for Inactive)
REMARK    1  A    between atoms: N_13  and  C_36
REMARK    2  A    between atoms: C_36  and  O_70
REMARK    3  A    between atoms: C_72  and  C_73
REMARK    4  A    between atoms: C_75  and  C_76
REMARK                            x       y       z     vdW  Elec       q    Type
REMARK                         _______ _______ _______ _____ _____    ______ ____
ROOT
ATOM      1  O   UNL     1      65.226  52.709  55.598  0.00  0.00    +0.000 OA
ATOM      2  O   UNL     1      60.847  55.381  55.564  0.00  0.00    +0.000 OA
ATOM      3  O   UNL     1      60.225  56.233  60.233  0.00  0.00    +0.000 OA
ATOM      4  O   UNL     1      66.159  49.749  59.389  0.00  0.00    +0.000 OA
ATOM      5  O   UNL     1      62.614  59.005  56.721  0.00  0.00    +0.000 OA
ATOM      6  O   UNL     1      70.665  60.681  64.433  0.00  0.00    +0.000 OA
ATOM      7  O   UNL     1      70.328  52.842  57.352  0.00  0.00    +0.000 OA
ATOM      8  O   UNL     1      70.570  55.778  64.898  0.00  0.00    +0.000 OA
ATOM      9  O   UNL     1      66.860  62.911  62.427  0.00  0.00    +0.000 OA
ATOM     10  O   UNL     1      71.477  53.538  61.576  0.00  0.00    +0.000 OA
ATOM     11  O   UNL     1      65.830  61.245  58.584  0.00  0.00    +0.000 OA
ATOM     12  N   UNL     1      62.312  54.403  56.369  0.00  0.00    +0.000 NA
ATOM     13  N   UNL     1      64.425  52.693  57.866  0.00  0.00    +0.000 NA
ATOM     14  N   UNL     1      60.323  56.120  58.255  0.00  0.00    +0.000 NA
ATOM     15  N   UNL     1      61.808  58.779  59.172  0.00  0.00    +0.000 NA
ATOM     16  N   UNL     1      67.118  51.983  59.190  0.00  0.00    +0.000 NA
ATOM     17  N   UNL     1      68.377  60.159  64.624  0.00  0.00    +0.000 N 
ATOM     18  N   UNL     1      69.442  57.409  63.656  0.00  0.00    +0.000 N 
ATOM     19  N   UNL     1      70.515  55.153  62.175  0.00  0.00    +0.000 NA
ATOM     20  N   UNL     1      69.196  54.183  58.801  0.00  0.00    +0.000 NA
ATOM     21  N   UNL     1      64.726  59.249  59.564  0.00  0.00    +0.000 NA
ATOM     22  N   UNL     1      67.068  60.578  61.839  0.00  0.00    +0.000 NA
ATOM     23  C   UNL     1      63.569  54.136  55.912  0.00  0.00    +0.000 C 
ATOM     24  C   UNL     1      61.341  55.290  58.012  0.00  0.00    +0.000 C 
ATOM     25  C   UNL     1      64.886  51.434  58.195  0.00  0.00    +0.000 C 
ATOM     26  C   UNL     1      63.920  54.187  54.575  0.00  0.00    +0.000 C 
ATOM     27  C   UNL     1      60.899  54.196  58.906  0.00  0.00    +0.000 C 
ATOM     28  C   UNL     1      64.354  53.212  56.569  0.00  0.00    +0.000 C 
ATOM     29  C   UNL     1      61.481  55.465  56.677  0.00  0.00    +0.000 C 
ATOM     30  C   UNL     1      60.790  58.099  58.721  0.00  0.00    +0.000 C 
ATOM     31  C   UNL     1      60.824  56.847  59.258  0.00  0.00    +0.000 C 
ATOM     32  C   UNL     1      65.971  51.161  59.186  0.00  0.00    +0.000 C 
ATOM     33  C   UNL     1      62.639  54.426  53.988  0.00  0.00    +0.000 C 
ATOM     34  C   UNL     1      64.802  53.178  54.370  0.00  0.00    +0.000 C 
ATOM     35  C   UNL     1      61.839  54.659  55.096  0.00  0.00    +0.000 C 
ATOM     36  C   UNL     1      59.689  55.351  59.268  0.00  0.00    +0.000 C 
ATOM     37  C   UNL     1      68.285  51.763  58.415  0.00  0.00    +0.000 C 
ATOM     38  C   UNL     1      70.179  58.530  63.941  0.00  0.00    +0.000 A 
ATOM     39  C   UNL     1      62.569  58.635  58.091  0.00  0.00    +0.000 C 
ATOM     40  C   UNL     1      67.825  61.294  63.978  0.00  0.00    +0.000 C 
ATOM     41  C   UNL     1      69.743  54.947  63.269  0.00  0.00    +0.000 C 
ATOM     42  C   UNL     1      60.939  59.981  59.248  0.00  0.00    +0.000 C 
ATOM     43  C   UNL     1      71.592  58.729  63.873  0.00  0.00    +0.000 A 
ATOM     44  C   UNL     1      67.866  62.455  65.368  0.00  0.00    +0.000 C 
ATOM     45  C   UNL     1      63.929  59.023  58.566  0.00  0.00    +0.000 C 
ATOM     46  C   UNL     1      70.710  54.478  64.322  0.00  0.00    +0.000 C 
ATOM     47  C   UNL     1      68.349  50.459  57.839  0.00  0.00    +0.000 C 
ATOM     48  C   UNL     1      69.650  59.761  64.316  0.00  0.00    +0.000 A 
ATOM     49  C   UNL     1      69.168  52.771  58.205  0.00  0.00    +0.000 C 
ATOM     50  C   UNL     1      69.838  56.180  63.896  0.00  0.00    +0.000 C 
ATOM     51  C   UNL     1      67.303  61.597  62.742  0.00  0.00    +0.000 C 
ATOM     52  C   UNL     1      69.611  54.130  60.205  0.00  0.00    +0.000 C 
ATOM     53  C   UNL     1      72.667  57.766  63.443  0.00  0.00    +0.000 C 
ATOM     54  C   UNL     1      71.839  60.044  64.172  0.00  0.00    +0.000 A 
ATOM     55  C   UNL     1      70.173  54.008  61.502  0.00  0.00    +0.000 C 
ATOM     56  C   UNL     1      66.576  60.726  60.652  0.00  0.00    +0.000 C 
ATOM     57  C   UNL     1      63.724  59.262  57.234  0.00  0.00    +0.000 C 
ATOM     58  C   UNL     1      68.290  61.161  65.528  0.00  0.00    +0.000 C 
ATOM     59  C   UNL     1      67.742  49.433  57.715  0.00  0.00    +0.000 C 
ATOM     60  C   UNL     1      65.616  60.230  59.588  0.00  0.00    +0.000 C 
ATOM     61  C   UNL     1      71.831  54.455  62.659  0.00  0.00    +0.000 C 
ATOM     62  C   UNL     1      70.161  53.918  57.940  0.00  0.00    +0.000 C 
ATOM     63  C   UNL     1      66.547  61.526  59.558  0.00  0.00    +0.000 C 
ATOM     64  H   UNL     1      66.867  52.970  59.136  0.00  0.00    +0.000 HD
ATOM     65  H   UNL     1      68.651  57.540  63.030  0.00  0.00    +0.000 HD
ATOM     66  H   UNL     1      64.490  58.817  60.454  0.00  0.00    +0.000 HD
ATOM     67  H   UNL     1      66.967  59.685  62.313  0.00  0.00    +0.000 HD
ATOM     68  C   UNL     1      64.709  50.396  57.425  0.00  0.00    +0.000 C 
ATOM     69  C   UNL     1      65.333  49.130  57.238  0.00  0.00    +0.000 C 
ATOM     70  C   UNL     1      66.457  49.011  58.188  0.00  0.00    +0.000 C 
ATOM     71  C   UNL     1      59.845  52.896  58.890  0.00  0.00    +0.000 C 
ATOM     72  C   UNL     1      60.040  51.708  59.461  0.00  0.00    +0.000 C 
ATOM     73  C   UNL     1      59.237  54.091  59.286  0.00  0.00    +0.000 C 
ATOM     74  C   UNL     1      59.814  59.189  58.864  0.00  0.00    +0.000 C 
ATOM     75  C   UNL     1      59.798  60.507  58.430  0.00  0.00    +0.000 C 
ATOM     76  C   UNL     1      58.751  61.513  58.954  0.00  0.00    +0.000 C 
ATOM     77  C   UNL     1      61.059  61.071  58.406  0.00  0.00    +0.000 C 
ATOM     78  C   UNL     1      71.481  53.190  64.878  0.00  0.00    +0.000 C 
ATOM     79  C   UNL     1      71.934  52.810  66.069  0.00  0.00    +0.000 C 
ATOM     80  C   UNL     1      72.069  53.564  63.668  0.00  0.00    +0.000 C 
ATOM     81  C   UNL     1      67.396  63.616  64.905  0.00  0.00    +0.000 C 
ATOM     82  C   UNL     1      67.268  64.826  65.770  0.00  0.00    +0.000 C 
ATOM     83  C   UNL     1      66.998  63.622  63.545  0.00  0.00    +0.000 C 
ENDROOT
BRANCH  69  84
ATOM     84  C   UNL     1      65.206  48.300  56.099  0.00  0.00    +0.000 C 
ATOM     85  C   UNL     1      65.097  47.588  55.138  0.00  0.00    +0.000 C 
BRANCH  85  86
ATOM     86  C   UNL     1      64.960  46.676  53.914  0.00  0.00    +0.000 C 
ATOM     87  C   UNL     1      64.843  45.879  52.854  0.00  0.00    +0.000 C 
ENDBRANCH  85  86
ENDBRANCH  69  84
BRANCH  13  88
ATOM     88  C   UNL     1      64.264  53.641  58.957  0.00  0.00    +0.000 C 
BRANCH  88  89
ATOM     89  O   UNL     1      64.138  54.497  59.962  0.00  0.00    +0.000 OA
ATOM     90  H   UNL     1      64.727  54.241  60.694  0.00  0.00    +0.000 HD
ENDBRANCH  88  89
ENDBRANCH  13  88
TORSDOF 4
ENDMDL
MODEL 7
REMARK VINA RESULT:      -8.7     18.832     24.646
REMARK  Name = Cyclosporin_A.pdbqt.pdb
REMARK  4 active torsions:
REMARK  status: ('A' for Active; 'I' for Inactive)
REMARK    1  A    between atoms: N_13  and  C_36
REMARK    2  A    between atoms: C_36  and  O_70
REMARK    3  A    between atoms: C_72  and  C_73
REMARK    4  A    between atoms: C_75  and  C_76
REMARK                            x       y       z     vdW  Elec       q    Type
REMARK                         _______ _______ _______ _____ _____    ______ ____
ROOT
ATOM      1  O   UNL     1      50.626  59.319  83.943  0.00  0.00    +0.000 OA
ATOM      2  O   UNL     1      46.535  57.320  81.582  0.00  0.00    +0.000 OA
ATOM      3  O   UNL     1      48.355  53.258  79.818  0.00  0.00    +0.000 OA
ATOM      4  O   UNL     1      55.071  58.546  82.031  0.00  0.00    +0.000 OA
ATOM      5  O   UNL     1      46.080  54.130  84.267  0.00  0.00    +0.000 OA
ATOM      6  O   UNL     1      54.115  47.729  88.910  0.00  0.00    +0.000 OA
ATOM      7  O   UNL     1      54.470  58.206  87.564  0.00  0.00    +0.000 OA
ATOM      8  O   UNL     1      57.208  50.665  86.444  0.00  0.00    +0.000 OA
ATOM      9  O   UNL     1      49.481  47.516  87.512  0.00  0.00    +0.000 OA
ATOM     10  O   UNL     1      57.137  54.674  87.337  0.00  0.00    +0.000 OA
ATOM     11  O   UNL     1      47.669  51.422  87.263  0.00  0.00    +0.000 OA
ATOM     12  N   UNL     1      48.408  57.458  82.054  0.00  0.00    +0.000 NA
ATOM     13  N   UNL     1      51.478  57.608  82.483  0.00  0.00    +0.000 NA
ATOM     14  N   UNL     1      47.343  54.804  80.543  0.00  0.00    +0.000 NA
ATOM     15  N   UNL     1      47.156  52.424  82.643  0.00  0.00    +0.000 NA
ATOM     16  N   UNL     1      54.193  57.249  83.901  0.00  0.00    +0.000 NA
ATOM     17  N   UNL     1      53.224  47.814  86.733  0.00  0.00    +0.000 N 
ATOM     18  N   UNL     1      54.893  50.430  86.697  0.00  0.00    +0.000 N 
ATOM     19  N   UNL     1      55.982  53.097  87.072  0.00  0.00    +0.000 NA
ATOM     20  N   UNL     1      53.865  56.174  86.738  0.00  0.00    +0.000 NA
ATOM     21  N   UNL     1      48.773  51.975  85.109  0.00  0.00    +0.000 NA
ATOM     22  N   UNL     1      50.634  49.526  86.830  0.00  0.00    +0.000 NA
ATOM     23  C   UNL     1      49.021  58.042  83.124  0.00  0.00    +0.000 C 
ATOM     24  C   UNL     1      48.274  55.595  81.085  0.00  0.00    +0.000 C 
ATOM     25  C   UNL     1      52.670  58.233  82.173  0.00  0.00    +0.000 C 
ATOM     26  C   UNL     1      48.426  59.017  83.904  0.00  0.00    +0.000 C 
ATOM     27  C   UNL     1      49.176  55.642  79.912  0.00  0.00    +0.000 C 
ATOM     28  C   UNL     1      50.389  58.217  83.115  0.00  0.00    +0.000 C 
ATOM     29  C   UNL     1      47.486  56.473  81.748  0.00  0.00    +0.000 C 
ATOM     30  C   UNL     1      46.714  53.158  81.660  0.00  0.00    +0.000 C 
ATOM     31  C   UNL     1      47.777  53.601  80.930  0.00  0.00    +0.000 C 
ATOM     32  C   UNL     1      54.018  57.740  82.589  0.00  0.00    +0.000 C 
ATOM     33  C   UNL     1      47.217  59.223  83.170  0.00  0.00    +0.000 C 
ATOM     34  C   UNL     1      49.405  59.892  84.240  0.00  0.00    +0.000 C 
ATOM     35  C   UNL     1      47.257  58.203  82.231  0.00  0.00    +0.000 C 
ATOM     36  C   UNL     1      48.013  54.535  79.318  0.00  0.00    +0.000 C 
ATOM     37  C   UNL     1      54.544  58.033  85.029  0.00  0.00    +0.000 C 
ATOM     38  C   UNL     1      54.819  49.509  87.709  0.00  0.00    +0.000 A 
ATOM     39  C   UNL     1      47.056  53.361  83.581  0.00  0.00    +0.000 C 
ATOM     40  C   UNL     1      51.871  47.503  87.024  0.00  0.00    +0.000 C 
ATOM     41  C   UNL     1      56.289  52.383  85.962  0.00  0.00    +0.000 C 
ATOM     42  C   UNL     1      45.997  51.514  82.451  0.00  0.00    +0.000 C 
ATOM     43  C   UNL     1      55.471  49.502  88.980  0.00  0.00    +0.000 A 
ATOM     44  C   UNL     1      52.009  45.697  87.095  0.00  0.00    +0.000 C 
ATOM     45  C   UNL     1      47.877  52.822  84.704  0.00  0.00    +0.000 C 
ATOM     46  C   UNL     1      57.721  51.970  86.171  0.00  0.00    +0.000 C 
ATOM     47  C   UNL     1      55.017  59.336  84.691  0.00  0.00    +0.000 C 
ATOM     48  C   UNL     1      54.009  48.378  87.703  0.00  0.00    +0.000 A 
ATOM     49  C   UNL     1      54.337  57.560  86.283  0.00  0.00    +0.000 C 
ATOM     50  C   UNL     1      55.979  51.099  86.379  0.00  0.00    +0.000 C 
ATOM     51  C   UNL     1      50.687  48.187  87.167  0.00  0.00    +0.000 C 
ATOM     52  C   UNL     1      54.938  55.192  86.560  0.00  0.00    +0.000 C 
ATOM     53  C   UNL     1      56.404  50.523  89.574  0.00  0.00    +0.000 C 
ATOM     54  C   UNL     1      55.011  48.412  89.674  0.00  0.00    +0.000 A 
ATOM     55  C   UNL     1      56.074  54.343  86.509  0.00  0.00    +0.000 C 
ATOM     56  C   UNL     1      49.586  50.279  86.911  0.00  0.00    +0.000 C 
ATOM     57  C   UNL     1      46.857  53.637  85.113  0.00  0.00    +0.000 C 
ATOM     58  C   UNL     1      53.103  46.469  86.798  0.00  0.00    +0.000 C 
ATOM     59  C   UNL     1      55.202  60.083  83.772  0.00  0.00    +0.000 C 
ATOM     60  C   UNL     1      48.718  51.347  86.274  0.00  0.00    +0.000 C 
ATOM     61  C   UNL     1      57.422  53.277  87.662  0.00  0.00    +0.000 C 
ATOM     62  C   UNL     1      54.078  57.041  87.710  0.00  0.00    +0.000 C 
ATOM     63  C   UNL     1      48.472  50.551  87.635  0.00  0.00    +0.000 C 
ATOM     64  H   UNL     1      53.439  56.613  84.162  0.00  0.00    +0.000 HD
ATOM     65  H   UNL     1      54.005  50.765  86.329  0.00  0.00    +0.000 HD
ATOM     66  H   UNL     1      49.401  51.593  84.406  0.00  0.00    +0.000 HD
ATOM     67  H   UNL     1      51.372  49.768  86.175  0.00  0.00    +0.000 HD
ATOM     68  C   UNL     1      52.737  59.490  81.828  0.00  0.00    +0.000 C 
ATOM     69  C   UNL     1      53.729  60.510  81.830  0.00  0.00    +0.000 C 
ATOM     70  C   UNL     1      54.986  59.947  82.362  0.00  0.00    +0.000 C 
ATOM     71  C   UNL     1      49.328  56.468  78.465  0.00  0.00    +0.000 C 
ATOM     72  C   UNL     1      50.464  56.852  77.884  0.00  0.00    +0.000 C 
ATOM     73  C   UNL     1      48.505  55.342  78.370  0.00  0.00    +0.000 C 
ATOM     74  C   UNL     1      45.599  52.269  81.305  0.00  0.00    +0.000 C 
ATOM     75  C   UNL     1      44.567  51.706  82.042  0.00  0.00    +0.000 C 
ATOM     76  C   UNL     1      43.678  50.588  81.458  0.00  0.00    +0.000 C 
ATOM     77  C   UNL     1      44.942  51.414  83.340  0.00  0.00    +0.000 C 
ATOM     78  C   UNL     1      59.237  52.463  86.022  0.00  0.00    +0.000 C 
ATOM     79  C   UNL     1      60.402  51.860  85.802  0.00  0.00    +0.000 C 
ATOM     80  C   UNL     1      58.660  53.140  87.099  0.00  0.00    +0.000 C 
ATOM     81  C   UNL     1      50.793  45.238  87.400  0.00  0.00    +0.000 C 
ATOM     82  C   UNL     1      50.505  43.780  87.540  0.00  0.00    +0.000 C 
ATOM     83  C   UNL     1      49.784  46.219  87.555  0.00  0.00    +0.000 C 
ENDROOT
BRANCH  69  84
ATOM     84  C   UNL     1      53.493  61.902  81.749  0.00  0.00    +0.000 C 
ATOM     85  C   UNL     1      53.299  63.085  81.677  0.00  0.00    +0.000 C 
BRANCH  85  86
ATOM     86  C   UNL     1      53.058  64.596  81.585  0.00  0.00    +0.000 C 
ATOM     87  C   UNL     1      52.853  65.909  81.506  0.00  0.00    +0.000 C 
ENDBRANCH  85  86
ENDBRANCH  69  84
BRANCH  13  88
ATOM     88  C   UNL     1      51.454  56.157  82.397  0.00  0.00    +0.000 C 
BRANCH  88  89
ATOM     89  O   UNL     1      51.436  54.832  82.345  0.00  0.00    +0.000 OA
ATOM     90  H   UNL     1      50.889  54.477  83.068  0.00  0.00    +0.000 HD
ENDBRANCH  88  89
ENDBRANCH  13  88
TORSDOF 4
ENDMDL
MODEL 8
REMARK VINA RESULT:      -8.6     22.117     27.743
REMARK  Name = Cyclosporin_A.pdbqt.pdb
REMARK  4 active torsions:
REMARK  status: ('A' for Active; 'I' for Inactive)
REMARK    1  A    between atoms: N_13  and  C_36
REMARK    2  A    between atoms: C_36  and  O_70
REMARK    3  A    between atoms: C_72  and  C_73
REMARK    4  A    between atoms: C_75  and  C_76
REMARK                            x       y       z     vdW  Elec       q    Type
REMARK                         _______ _______ _______ _____ _____    ______ ____
ROOT
ATOM      1  O   UNL     1      54.492  68.219  67.003  0.00  0.00    +0.000 OA
ATOM      2  O   UNL     1      55.376  65.198  62.953  0.00  0.00    +0.000 OA
ATOM      3  O   UNL     1      55.851  60.922  65.051  0.00  0.00    +0.000 OA
ATOM      4  O   UNL     1      56.640  67.138  71.272  0.00  0.00    +0.000 OA
ATOM      5  O   UNL     1      51.708  63.178  63.188  0.00  0.00    +0.000 OA
ATOM      6  O   UNL     1      46.346  59.523  72.407  0.00  0.00    +0.000 OA
ATOM      7  O   UNL     1      51.314  68.789  71.328  0.00  0.00    +0.000 OA
ATOM      8  O   UNL     1      50.109  61.584  74.828  0.00  0.00    +0.000 OA
ATOM      9  O   UNL     1      46.887  58.471  67.708  0.00  0.00    +0.000 OA
ATOM     10  O   UNL     1      50.677  65.625  74.366  0.00  0.00    +0.000 OA
ATOM     11  O   UNL     1      48.220  61.872  65.416  0.00  0.00    +0.000 OA
ATOM     12  N   UNL     1      55.262  65.638  64.835  0.00  0.00    +0.000 NA
ATOM     13  N   UNL     1      55.367  66.162  67.892  0.00  0.00    +0.000 NA
ATOM     14  N   UNL     1      55.574  62.545  63.944  0.00  0.00    +0.000 NA
ATOM     15  N   UNL     1      52.770  61.084  64.280  0.00  0.00    +0.000 NA
ATOM     16  N   UNL     1      54.327  66.547  70.770  0.00  0.00    +0.000 NA
ATOM     17  N   UNL     1      48.260  58.744  71.278  0.00  0.00    +0.000 N 
ATOM     18  N   UNL     1      49.454  61.285  72.601  0.00  0.00    +0.000 N 
ATOM     19  N   UNL     1      50.201  63.979  73.391  0.00  0.00    +0.000 NA
ATOM     20  N   UNL     1      51.279  66.557  70.889  0.00  0.00    +0.000 NA
ATOM     21  N   UNL     1      50.568  61.684  66.201  0.00  0.00    +0.000 NA
ATOM     22  N   UNL     1      48.390  60.175  68.525  0.00  0.00    +0.000 NA
ATOM     23  C   UNL     1      54.567  66.616  65.486  0.00  0.00    +0.000 C 
ATOM     24  C   UNL     1      55.486  63.546  64.824  0.00  0.00    +0.000 C 
ATOM     25  C   UNL     1      56.048  66.719  68.957  0.00  0.00    +0.000 C 
ATOM     26  C   UNL     1      54.100  67.760  64.865  0.00  0.00    +0.000 C 
ATOM     27  C   UNL     1      56.720  63.231  65.580  0.00  0.00    +0.000 C 
ATOM     28  C   UNL     1      54.836  66.877  66.813  0.00  0.00    +0.000 C 
ATOM     29  C   UNL     1      55.065  64.544  64.012  0.00  0.00    +0.000 C 
ATOM     30  C   UNL     1      53.872  61.375  63.647  0.00  0.00    +0.000 C 
ATOM     31  C   UNL     1      54.858  61.601  64.561  0.00  0.00    +0.000 C 
ATOM     32  C   UNL     1      55.687  66.514  70.393  0.00  0.00    +0.000 C 
ATOM     33  C   UNL     1      54.674  67.594  63.567  0.00  0.00    +0.000 C 
ATOM     34  C   UNL     1      54.238  68.767  65.761  0.00  0.00    +0.000 C 
ATOM     35  C   UNL     1      55.191  66.309  63.629  0.00  0.00    +0.000 C 
ATOM     36  C   UNL     1      56.711  61.900  64.503  0.00  0.00    +0.000 C 
ATOM     37  C   UNL     1      53.610  67.711  71.144  0.00  0.00    +0.000 C 
ATOM     38  C   UNL     1      48.183  60.791  72.752  0.00  0.00    +0.000 A 
ATOM     39  C   UNL     1      52.216  62.288  64.171  0.00  0.00    +0.000 C 
ATOM     40  C   UNL     1      47.683  58.459  70.014  0.00  0.00    +0.000 C 
ATOM     41  C   UNL     1      51.023  62.935  73.659  0.00  0.00    +0.000 C 
ATOM     42  C   UNL     1      52.459  60.083  63.227  0.00  0.00    +0.000 C 
ATOM     43  C   UNL     1      47.101  61.295  73.535  0.00  0.00    +0.000 A 
ATOM     44  C   UNL     1      47.005  56.819  70.379  0.00  0.00    +0.000 C 
ATOM     45  C   UNL     1      51.109  62.257  65.169  0.00  0.00    +0.000 C 
ATOM     46  C   UNL     1      50.894  62.735  75.144  0.00  0.00    +0.000 C 
ATOM     47  C   UNL     1      54.448  68.834  71.415  0.00  0.00    +0.000 C 
ATOM     48  C   UNL     1      47.674  59.678  72.090  0.00  0.00    +0.000 A 
ATOM     49  C   UNL     1      52.253  67.713  71.135  0.00  0.00    +0.000 C 
ATOM     50  C   UNL     1      50.141  61.871  73.555  0.00  0.00    +0.000 C 
ATOM     51  C   UNL     1      47.617  59.058  68.778  0.00  0.00    +0.000 C 
ATOM     52  C   UNL     1      51.256  65.660  72.048  0.00  0.00    +0.000 C 
ATOM     53  C   UNL     1      47.046  62.529  74.396  0.00  0.00    +0.000 C 
ATOM     54  C   UNL     1      46.009  60.502  73.291  0.00  0.00    +0.000 A 
ATOM     55  C   UNL     1      51.172  64.938  73.267  0.00  0.00    +0.000 C 
ATOM     56  C   UNL     1      48.425  60.826  67.408  0.00  0.00    +0.000 C 
ATOM     57  C   UNL     1      50.867  63.087  64.108  0.00  0.00    +0.000 C 
ATOM     58  C   UNL     1      47.710  57.509  71.331  0.00  0.00    +0.000 C 
ATOM     59  C   UNL     1      55.587  69.208  71.404  0.00  0.00    +0.000 C 
ATOM     60  C   UNL     1      49.262  61.521  66.352  0.00  0.00    +0.000 C 
ATOM     61  C   UNL     1      49.929  64.467  74.854  0.00  0.00    +0.000 C 
ATOM     62  C   UNL     1      50.714  67.730  71.100  0.00  0.00    +0.000 C 
ATOM     63  C   UNL     1      47.688  61.258  66.356  0.00  0.00    +0.000 C 
ATOM     64  H   UNL     1      53.753  65.996  70.132  0.00  0.00    +0.000 HD
ATOM     65  H   UNL     1      49.782  61.395  71.644  0.00  0.00    +0.000 HD
ATOM     66  H   UNL     1      51.176  61.121  66.790  0.00  0.00    +0.000 HD
ATOM     67  H   UNL     1      49.189  60.217  69.151  0.00  0.00    +0.000 HD
ATOM     68  C   UNL     1      56.817  67.766  68.832  0.00  0.00    +0.000 C 
ATOM     69  C   UNL     1      57.318  68.788  69.686  0.00  0.00    +0.000 C 
ATOM     70  C   UNL     1      56.812  68.552  71.053  0.00  0.00    +0.000 C 
ATOM     71  C   UNL     1      58.370  63.483  65.470  0.00  0.00    +0.000 C 
ATOM     72  C   UNL     1      59.208  63.713  66.480  0.00  0.00    +0.000 C 
ATOM     73  C   UNL     1      57.943  62.342  64.786  0.00  0.00    +0.000 C 
ATOM     74  C   UNL     1      53.726  60.338  62.617  0.00  0.00    +0.000 C 
ATOM     75  C   UNL     1      52.695  60.007  61.748  0.00  0.00    +0.000 C 
ATOM     76  C   UNL     1      52.714  58.689  60.944  0.00  0.00    +0.000 C 
ATOM     77  C   UNL     1      51.448  60.235  62.297  0.00  0.00    +0.000 C 
ATOM     78  C   UNL     1      51.426  63.251  76.563  0.00  0.00    +0.000 C 
ATOM     79  C   UNL     1      51.589  62.698  77.762  0.00  0.00    +0.000 C 
ATOM     80  C   UNL     1      50.583  64.228  76.030  0.00  0.00    +0.000 C 
ATOM     81  C   UNL     1      46.384  56.412  69.269  0.00  0.00    +0.000 C 
ATOM     82  C   UNL     1      45.701  55.088  69.179  0.00  0.00    +0.000 C 
ATOM     83  C   UNL     1      46.436  57.304  68.171  0.00  0.00    +0.000 C 
ENDROOT
BRANCH  69  84
ATOM     84  C   UNL     1      57.846  70.034  69.274  0.00  0.00    +0.000 C 
ATOM     85  C   UNL     1      58.302  71.090  68.927  0.00  0.00    +0.000 C 
BRANCH  85  86
ATOM     86  C   UNL     1      58.886  72.436  68.488  0.00  0.00    +0.000 C 
ATOM     87  C   UNL     1      59.394  73.609  68.112  0.00  0.00    +0.000 C 
ENDBRANCH  85  86
ENDBRANCH  69  84
BRANCH  13  88
ATOM     88  C   UNL     1      54.934  64.782  68.037  0.00  0.00    +0.000 C 
BRANCH  88  89
ATOM     89  O   UNL     1      54.517  63.531  68.177  0.00  0.00    +0.000 OA
ATOM     90  H   UNL     1      53.941  63.458  68.959  0.00  0.00    +0.000 HD
ENDBRANCH  88  89
ENDBRANCH  13  88
TORSDOF 4
ENDMDL
MODEL 9
REMARK VINA RESULT:      -8.5     18.306     25.871
REMARK  Name = Cyclosporin_A.pdbqt.pdb
REMARK  4 active torsions:
REMARK  status: ('A' for Active; 'I' for Inactive)
REMARK    1  A    between atoms: N_13  and  C_36
REMARK    2  A    between atoms: C_36  and  O_70
REMARK    3  A    between atoms: C_72  and  C_73
REMARK    4  A    between atoms: C_75  and  C_76
REMARK                            x       y       z     vdW  Elec       q    Type
REMARK                         _______ _______ _______ _____ _____    ______ ____
ROOT
ATOM      1  O   UNL     1      73.077  36.966  65.236  0.00  0.00    +0.000 OA
ATOM      2  O   UNL     1      76.509  39.737  67.853  0.00  0.00    +0.000 OA
ATOM      3  O   UNL     1      73.790  43.335  69.459  0.00  0.00    +0.000 OA
ATOM      4  O   UNL     1      69.422  39.286  62.941  0.00  0.00    +0.000 OA
ATOM      5  O   UNL     1      74.881  38.880  71.623  0.00  0.00    +0.000 OA
ATOM      6  O   UNL     1      64.010  38.365  74.564  0.00  0.00    +0.000 OA
ATOM      7  O   UNL     1      68.265  34.562  65.668  0.00  0.00    +0.000 OA
ATOM      8  O   UNL     1      63.174  39.315  69.804  0.00  0.00    +0.000 OA
ATOM      9  O   UNL     1      68.362  39.405  76.424  0.00  0.00    +0.000 OA
ATOM     10  O   UNL     1      64.588  36.614  67.052  0.00  0.00    +0.000 OA
ATOM     11  O   UNL     1      71.575  37.646  74.147  0.00  0.00    +0.000 OA
ATOM     12  N   UNL     1      74.797  39.373  67.025  0.00  0.00    +0.000 NA
ATOM     13  N   UNL     1      72.058  39.116  65.590  0.00  0.00    +0.000 NA
ATOM     14  N   UNL     1      75.089  41.899  69.023  0.00  0.00    +0.000 NA
ATOM     15  N   UNL     1      73.714  41.184  71.800  0.00  0.00    +0.000 NA
ATOM     16  N   UNL     1      69.147  38.213  65.114  0.00  0.00    +0.000 NA
ATOM     17  N   UNL     1      65.431  40.177  74.075  0.00  0.00    +0.000 N 
ATOM     18  N   UNL     1      65.030  39.063  71.207  0.00  0.00    +0.000 N 
ATOM     19  N   UNL     1      65.040  37.528  68.740  0.00  0.00    +0.000 NA
ATOM     20  N   UNL     1      68.211  36.220  67.226  0.00  0.00    +0.000 NA
ATOM     21  N   UNL     1      71.434  39.338  72.336  0.00  0.00    +0.000 NA
ATOM     22  N   UNL     1      68.349  39.114  74.027  0.00  0.00    +0.000 NA
ATOM     23  C   UNL     1      74.197  38.195  66.691  0.00  0.00    +0.000 C 
ATOM     24  C   UNL     1      74.441  41.104  68.167  0.00  0.00    +0.000 C 
ATOM     25  C   UNL     1      71.354  39.163  64.403  0.00  0.00    +0.000 C 
ATOM     26  C   UNL     1      74.888  37.009  66.522  0.00  0.00    +0.000 C 
ATOM     27  C   UNL     1      74.000  42.165  67.233  0.00  0.00    +0.000 C 
ATOM     28  C   UNL     1      73.075  38.203  65.888  0.00  0.00    +0.000 C 
ATOM     29  C   UNL     1      75.295  40.054  68.121  0.00  0.00    +0.000 C 
ATOM     30  C   UNL     1      74.668  41.668  71.053  0.00  0.00    +0.000 C 
ATOM     31  C   UNL     1      74.121  42.161  69.906  0.00  0.00    +0.000 C 
ATOM     32  C   UNL     1      69.864  39.116  64.300  0.00  0.00    +0.000 C 
ATOM     33  C   UNL     1      76.231  37.479  66.657  0.00  0.00    +0.000 C 
ATOM     34  C   UNL     1      74.289  36.357  65.496  0.00  0.00    +0.000 C 
ATOM     35  C   UNL     1      76.050  38.791  67.068  0.00  0.00    +0.000 C 
ATOM     36  C   UNL     1      74.739  43.142  68.429  0.00  0.00    +0.000 C 
ATOM     37  C   UNL     1      68.839  36.872  64.773  0.00  0.00    +0.000 C 
ATOM     38  C   UNL     1      64.443  38.611  72.361  0.00  0.00    +0.000 A 
ATOM     39  C   UNL     1      73.913  39.909  71.483  0.00  0.00    +0.000 C 
ATOM     40  C   UNL     1      66.406  39.988  75.087  0.00  0.00    +0.000 C 
ATOM     41  C   UNL     1      64.797  38.860  68.715  0.00  0.00    +0.000 C 
ATOM     42  C   UNL     1      74.416  41.715  72.997  0.00  0.00    +0.000 C 
ATOM     43  C   UNL     1      63.516  37.541  72.549  0.00  0.00    +0.000 A 
ATOM     44  C   UNL     1      65.544  40.796  76.461  0.00  0.00    +0.000 C 
ATOM     45  C   UNL     1      72.668  39.233  71.948  0.00  0.00    +0.000 C 
ATOM     46  C   UNL     1      63.324  38.963  68.427  0.00  0.00    +0.000 C 
ATOM     47  C   UNL     1      69.041  36.574  63.392  0.00  0.00    +0.000 C 
ATOM     48  C   UNL     1      64.700  39.106  73.635  0.00  0.00    +0.000 A 
ATOM     49  C   UNL     1      68.481  35.985  65.736  0.00  0.00    +0.000 C 
ATOM     50  C   UNL     1      64.438  39.089  70.034  0.00  0.00    +0.000 C 
ATOM     51  C   UNL     1      67.673  39.462  75.181  0.00  0.00    +0.000 C 
ATOM     52  C   UNL     1      66.932  36.911  67.405  0.00  0.00    +0.000 C 
ATOM     53  C   UNL     1      62.943  36.590  71.532  0.00  0.00    +0.000 C 
ATOM     54  C   UNL     1      63.288  37.424  73.896  0.00  0.00    +0.000 A 
ATOM     55  C   UNL     1      65.615  37.431  67.500  0.00  0.00    +0.000 C 
ATOM     56  C   UNL     1      69.543  38.618  73.977  0.00  0.00    +0.000 C 
ATOM     57  C   UNL     1      73.770  38.422  71.964  0.00  0.00    +0.000 C 
ATOM     58  C   UNL     1      64.980  40.755  75.211  0.00  0.00    +0.000 C 
ATOM     59  C   UNL     1      69.436  37.034  62.358  0.00  0.00    +0.000 C 
ATOM     60  C   UNL     1      70.905  38.613  73.311  0.00  0.00    +0.000 C 
ATOM     61  C   UNL     1      63.690  37.014  68.134  0.00  0.00    +0.000 C 
ATOM     62  C   UNL     1      68.100  34.967  66.826  0.00  0.00    +0.000 C 
ATOM     63  C   UNL     1      70.421  37.785  74.587  0.00  0.00    +0.000 C 
ATOM     64  H   UNL     1      69.479  38.241  66.078  0.00  0.00    +0.000 HD
ATOM     65  H   UNL     1      66.041  39.171  71.230  0.00  0.00    +0.000 HD
ATOM     66  H   UNL     1      70.929  40.175  72.056  0.00  0.00    +0.000 HD
ATOM     67  H   UNL     1      67.985  39.619  73.224  0.00  0.00    +0.000 HD
ATOM     68  C   UNL     1      71.894  38.869  63.252  0.00  0.00    +0.000 C 
ATOM     69  C   UNL     1      71.435  38.441  61.975  0.00  0.00    +0.000 C 
ATOM     70  C   UNL     1      69.963  38.322  62.016  0.00  0.00    +0.000 C 
ATOM     71  C   UNL     1      74.602  43.048  65.946  0.00  0.00    +0.000 C 
ATOM     72  C   UNL     1      73.926  43.444  64.869  0.00  0.00    +0.000 C 
ATOM     73  C   UNL     1      74.896  43.618  67.188  0.00  0.00    +0.000 C 
ATOM     74  C   UNL     1      75.385  42.335  72.149  0.00  0.00    +0.000 C 
ATOM     75  C   UNL     1      75.856  41.893  73.378  0.00  0.00    +0.000 C 
ATOM     76  C   UNL     1      76.348  42.885  74.454  0.00  0.00    +0.000 C 
ATOM     77  C   UNL     1      75.048  40.919  73.934  0.00  0.00    +0.000 C 
ATOM     78  C   UNL     1      62.239  38.952  67.250  0.00  0.00    +0.000 C 
ATOM     79  C   UNL     1      61.042  39.505  67.072  0.00  0.00    +0.000 C 
ATOM     80  C   UNL     1      62.711  37.650  67.422  0.00  0.00    +0.000 C 
ATOM     81  C   UNL     1      66.337  40.673  77.528  0.00  0.00    +0.000 C 
ATOM     82  C   UNL     1      65.966  41.228  78.863  0.00  0.00    +0.000 C 
ATOM     83  C   UNL     1      67.567  40.006  77.310  0.00  0.00    +0.000 C 
ENDROOT
BRANCH  69  84
ATOM     84  C   UNL     1      72.220  37.833  60.968  0.00  0.00    +0.000 C 
ATOM     85  C   UNL     1      72.881  37.316  60.108  0.00  0.00    +0.000 C 
BRANCH  85  86
ATOM     86  C   UNL     1      73.719  36.654  59.009  0.00  0.00    +0.000 C 
ATOM     87  C   UNL     1      74.447  36.084  58.051  0.00  0.00    +0.000 C 
ENDBRANCH  85  86
ENDBRANCH  69  84
BRANCH  13  88
ATOM     88  C   UNL     1      71.522  39.882  66.704  0.00  0.00    +0.000 C 
BRANCH  88  89
ATOM     89  O   UNL     1      71.012  40.569  67.717  0.00  0.00    +0.000 OA
ATOM     90  H   UNL     1      70.465  39.986  68.273  0.00  0.00    +0.000 HD
ENDBRANCH  88  89
ENDBRANCH  13  88
TORSDOF 4
ENDMDL
