MODEL 1
REMARK VINA RESULT:      -6.8      0.000      0.000
REMARK  Name = Danazol.pdbqt.pdb
REMARK  2 active torsions:
REMARK  status: ('A' for Active; 'I' for Inactive)
REMARK    1  A    between atoms: C_9  and  O_23
REMARK    2  A    between atoms: C_9  and  C_25
REMARK                            x       y       z     vdW  Elec       q    Type
REMARK                         _______ _______ _______ _____ _____    ______ ____
ROOT
ATOM      1  O   UNL     1      69.088  49.832  61.883  0.00  0.00    +0.000 OA
ATOM      2  N   UNL     1      69.731  50.524  62.931  0.00  0.00    +0.000 NA
ATOM      3  C   UNL     1      63.198  53.993  59.448  0.00  0.00    +0.000 C 
ATOM      4  C   UNL     1      63.091  55.515  59.986  0.00  0.00    +0.000 C 
ATOM      5  C   UNL     1      64.479  53.269  59.346  0.00  0.00    +0.000 C 
ATOM      6  C   UNL     1      65.814  53.749  59.850  0.00  0.00    +0.000 C 
ATOM      7  C   UNL     1      67.150  53.012  59.597  0.00  0.00    +0.000 C 
ATOM      8  C   UNL     1      64.415  55.810  60.552  0.00  0.00    +0.000 C 
ATOM      9  C   UNL     1      61.852  55.463  61.048  0.00  0.00    +0.000 C 
ATOM     10  C   UNL     1      65.695  55.015  60.486  0.00  0.00    +0.000 C 
ATOM     11  C   UNL     1      61.979  53.312  59.727  0.00  0.00    +0.000 C 
ATOM     12  C   UNL     1      64.537  51.947  58.849  0.00  0.00    +0.000 C 
ATOM     13  C   UNL     1      61.195  54.202  60.645  0.00  0.00    +0.000 C 
ATOM     14  C   UNL     1      67.000  51.401  59.225  0.00  0.00    +0.000 C 
ATOM     15  C   UNL     1      62.817  56.400  58.716  0.00  0.00    +0.000 C 
ATOM     16  C   UNL     1      65.713  51.019  58.774  0.00  0.00    +0.000 C 
ATOM     17  C   UNL     1      67.985  53.014  60.850  0.00  0.00    +0.000 C 
ATOM     18  C   UNL     1      67.896  53.687  58.411  0.00  0.00    +0.000 C 
ATOM     19  C   UNL     1      67.669  50.558  59.981  0.00  0.00    +0.000 C 
ATOM     20  C   UNL     1      68.647  52.014  61.621  0.00  0.00    +0.000 A 
ATOM     21  C   UNL     1      68.465  50.749  61.134  0.00  0.00    +0.000 A 
ATOM     22  C   UNL     1      69.453  51.831  62.741  0.00  0.00    +0.000 A 
ENDROOT
BRANCH   9  23
ATOM     23  O   UNL     1      60.912  56.542  60.932  0.00  0.00    +0.000 OA
ATOM     24  H   UNL     1      60.900  57.015  61.782  0.00  0.00    +0.000 HD
ENDBRANCH   9  23
BRANCH   9  25
ATOM     25  C   UNL     1      62.345  55.388  62.446  0.00  0.00    +0.000 C 
ATOM     26  C   UNL     1      62.736  55.301  63.572  0.00  0.00    +0.000 C 
ENDBRANCH   9  25
TORSDOF 2
ENDMDL
MODEL 2
REMARK VINA RESULT:      -6.2     23.340     26.075
REMARK  Name = Danazol.pdbqt.pdb
REMARK  2 active torsions:
REMARK  status: ('A' for Active; 'I' for Inactive)
REMARK    1  A    between atoms: C_9  and  O_23
REMARK    2  A    between atoms: C_9  and  C_25
REMARK                            x       y       z     vdW  Elec       q    Type
REMARK                         _______ _______ _______ _____ _____    ______ ____
ROOT
ATOM      1  O   UNL     1      49.137  54.757  77.412  0.00  0.00    +0.000 OA
ATOM      2  N   UNL     1      49.347  55.818  76.506  0.00  0.00    +0.000 NA
ATOM      3  C   UNL     1      52.965  56.212  83.828  0.00  0.00    +0.000 C 
ATOM      4  C   UNL     1      53.590  57.694  84.000  0.00  0.00    +0.000 C 
ATOM      5  C   UNL     1      51.785  55.935  82.988  0.00  0.00    +0.000 C 
ATOM      6  C   UNL     1      51.095  56.910  82.073  0.00  0.00    +0.000 C 
ATOM      7  C   UNL     1      49.779  56.607  81.319  0.00  0.00    +0.000 C 
ATOM      8  C   UNL     1      52.919  58.509  82.977  0.00  0.00    +0.000 C 
ATOM      9  C   UNL     1      55.193  57.465  83.796  0.00  0.00    +0.000 C 
ATOM     10  C   UNL     1      51.750  58.172  82.085  0.00  0.00    +0.000 C 
ATOM     11  C   UNL     1      53.998  55.247  84.001  0.00  0.00    +0.000 C 
ATOM     12  C   UNL     1      51.252  54.629  82.880  0.00  0.00    +0.000 C 
ATOM     13  C   UNL     1      55.293  56.005  84.006  0.00  0.00    +0.000 C 
ATOM     14  C   UNL     1      49.444  54.994  81.118  0.00  0.00    +0.000 C 
ATOM     15  C   UNL     1      53.183  58.166  85.444  0.00  0.00    +0.000 C 
ATOM     16  C   UNL     1      50.141  54.134  82.002  0.00  0.00    +0.000 C 
ATOM     17  C   UNL     1      49.860  57.134  79.910  0.00  0.00    +0.000 C 
ATOM     18  C   UNL     1      48.584  57.230  82.095  0.00  0.00    +0.000 C 
ATOM     19  C   UNL     1      49.240  54.584  79.886  0.00  0.00    +0.000 C 
ATOM     20  C   UNL     1      49.648  56.580  78.614  0.00  0.00    +0.000 A 
ATOM     21  C   UNL     1      49.319  55.252  78.642  0.00  0.00    +0.000 A 
ATOM     22  C   UNL     1      49.646  56.898  77.259  0.00  0.00    +0.000 A 
ENDROOT
BRANCH   9  23
ATOM     23  O   UNL     1      56.026  58.136  84.754  0.00  0.00    +0.000 OA
ATOM     24  H   UNL     1      55.447  58.670  85.325  0.00  0.00    +0.000 HD
ENDBRANCH   9  23
BRANCH   9  25
ATOM     25  C   UNL     1      55.619  57.839  82.425  0.00  0.00    +0.000 C 
ATOM     26  C   UNL     1      55.989  58.137  81.328  0.00  0.00    +0.000 C 
ENDBRANCH   9  25
TORSDOF 2
ENDMDL
MODEL 3
REMARK VINA RESULT:      -6.0      4.372      7.203
REMARK  Name = Danazol.pdbqt.pdb
REMARK  2 active torsions:
REMARK  status: ('A' for Active; 'I' for Inactive)
REMARK    1  A    between atoms: C_9  and  O_23
REMARK    2  A    between atoms: C_9  and  C_25
REMARK                            x       y       z     vdW  Elec       q    Type
REMARK                         _______ _______ _______ _____ _____    ______ ____
ROOT
ATOM      1  O   UNL     1      62.079  59.598  59.463  0.00  0.00    +0.000 OA
ATOM      2  N   UNL     1      63.355  59.894  58.938  0.00  0.00    +0.000 NA
ATOM      3  C   UNL     1      60.894  52.096  58.955  0.00  0.00    +0.000 C 
ATOM      4  C   UNL     1      62.160  51.170  58.561  0.00  0.00    +0.000 C 
ATOM      5  C   UNL     1      61.037  53.403  59.625  0.00  0.00    +0.000 C 
ATOM      6  C   UNL     1      62.329  54.126  59.897  0.00  0.00    +0.000 C 
ATOM      7  C   UNL     1      62.433  55.429  60.724  0.00  0.00    +0.000 C 
ATOM      8  C   UNL     1      63.336  52.031  58.760  0.00  0.00    +0.000 C 
ATOM      9  C   UNL     1      61.849  50.724  57.022  0.00  0.00    +0.000 C 
ATOM     10  C   UNL     1      63.439  53.396  59.392  0.00  0.00    +0.000 C 
ATOM     11  C   UNL     1      59.827  51.838  58.049  0.00  0.00    +0.000 C 
ATOM     12  C   UNL     1      59.906  54.176  59.975  0.00  0.00    +0.000 C 
ATOM     13  C   UNL     1      60.402  51.011  56.938  0.00  0.00    +0.000 C 
ATOM     14  C   UNL     1      61.024  56.299  60.837  0.00  0.00    +0.000 C 
ATOM     15  C   UNL     1      62.158  49.982  59.591  0.00  0.00    +0.000 C 
ATOM     16  C   UNL     1      59.851  55.559  60.552  0.00  0.00    +0.000 C 
ATOM     17  C   UNL     1      63.391  56.384  60.061  0.00  0.00    +0.000 C 
ATOM     18  C   UNL     1      62.878  55.087  62.174  0.00  0.00    +0.000 C 
ATOM     19  C   UNL     1      61.075  57.555  60.452  0.00  0.00    +0.000 C 
ATOM     20  C   UNL     1      63.329  57.746  59.646  0.00  0.00    +0.000 A 
ATOM     21  C   UNL     1      62.110  58.325  59.872  0.00  0.00    +0.000 A 
ATOM     22  C   UNL     1      64.083  58.764  59.069  0.00  0.00    +0.000 A 
ENDROOT
BRANCH   9  23
ATOM     23  O   UNL     1      62.070  49.333  56.740  0.00  0.00    +0.000 OA
ATOM     24  H   UNL     1      63.008  49.227  56.503  0.00  0.00    +0.000 HD
ENDBRANCH   9  23
BRANCH   9  25
ATOM     25  C   UNL     1      62.617  51.550  56.058  0.00  0.00    +0.000 C 
ATOM     26  C   UNL     1      63.254  52.196  55.280  0.00  0.00    +0.000 C 
ENDBRANCH   9  25
TORSDOF 2
ENDMDL
MODEL 4
REMARK VINA RESULT:      -5.9     25.810     29.093
REMARK  Name = Danazol.pdbqt.pdb
REMARK  2 active torsions:
REMARK  status: ('A' for Active; 'I' for Inactive)
REMARK    1  A    between atoms: C_9  and  O_23
REMARK    2  A    between atoms: C_9  and  C_25
REMARK                            x       y       z     vdW  Elec       q    Type
REMARK                         _______ _______ _______ _____ _____    ______ ____
ROOT
ATOM      1  O   UNL     1      38.777  46.252  76.839  0.00  0.00    +0.000 OA
ATOM      2  N   UNL     1      38.850  45.193  77.768  0.00  0.00    +0.000 NA
ATOM      3  C   UNL     1      42.738  44.348  70.623  0.00  0.00    +0.000 C 
ATOM      4  C   UNL     1      43.233  42.813  70.500  0.00  0.00    +0.000 C 
ATOM      5  C   UNL     1      41.551  44.745  71.405  0.00  0.00    +0.000 C 
ATOM      6  C   UNL     1      40.736  43.851  72.301  0.00  0.00    +0.000 C 
ATOM      7  C   UNL     1      39.421  44.284  72.991  0.00  0.00    +0.000 C 
ATOM      8  C   UNL     1      42.446  42.080  71.503  0.00  0.00    +0.000 C 
ATOM      9  C   UNL     1      44.839  42.902  70.774  0.00  0.00    +0.000 C 
ATOM     10  C   UNL     1      41.274  42.536  72.335  0.00  0.00    +0.000 C 
ATOM     11  C   UNL     1      43.860  45.214  70.485  0.00  0.00    +0.000 C 
ATOM     12  C   UNL     1      41.134  46.094  71.471  0.00  0.00    +0.000 C 
ATOM     13  C   UNL     1      45.079  44.342  70.549  0.00  0.00    +0.000 C 
ATOM     14  C   UNL     1      39.225  45.924  73.154  0.00  0.00    +0.000 C 
ATOM     15  C   UNL     1      42.849  42.355  69.046  0.00  0.00    +0.000 C 
ATOM     16  C   UNL     1      40.035  46.702  72.291  0.00  0.00    +0.000 C 
ATOM     17  C   UNL     1      39.392  43.777  74.409  0.00  0.00    +0.000 C 
ATOM     18  C   UNL     1      38.210  43.758  72.169  0.00  0.00    +0.000 C 
ATOM     19  C   UNL     1      39.004  46.373  74.370  0.00  0.00    +0.000 C 
ATOM     20  C   UNL     1      39.173  44.370  75.686  0.00  0.00    +0.000 A 
ATOM     21  C   UNL     1      38.967  45.722  75.625  0.00  0.00    +0.000 A 
ATOM     22  C   UNL     1      39.083  44.077  77.043  0.00  0.00    +0.000 A 
ENDROOT
BRANCH   9  23
ATOM     23  O   UNL     1      45.650  42.142  69.864  0.00  0.00    +0.000 OA
ATOM     24  H   UNL     1      46.117  42.773  69.289  0.00  0.00    +0.000 HD
ENDBRANCH   9  23
BRANCH   9  25
ATOM     25  C   UNL     1      45.169  42.514  72.168  0.00  0.00    +0.000 C 
ATOM     26  C   UNL     1      45.457  42.219  73.289  0.00  0.00    +0.000 C 
ENDBRANCH   9  25
TORSDOF 2
ENDMDL
MODEL 5
REMARK VINA RESULT:      -5.8     23.702     26.405
REMARK  Name = Danazol.pdbqt.pdb
REMARK  2 active torsions:
REMARK  status: ('A' for Active; 'I' for Inactive)
REMARK    1  A    between atoms: C_9  and  O_23
REMARK    2  A    between atoms: C_9  and  C_25
REMARK                            x       y       z     vdW  Elec       q    Type
REMARK                         _______ _______ _______ _____ _____    ______ ____
ROOT
ATOM      1  O   UNL     1      47.915  42.923  73.339  0.00  0.00    +0.000 OA
ATOM      2  N   UNL     1      47.287  42.709  74.584  0.00  0.00    +0.000 NA
ATOM      3  C   UNL     1      42.937  41.385  67.788  0.00  0.00    +0.000 C 
ATOM      4  C   UNL     1      41.393  41.167  68.216  0.00  0.00    +0.000 C 
ATOM      5  C   UNL     1      43.877  42.205  68.577  0.00  0.00    +0.000 C 
ATOM      6  C   UNL     1      43.609  42.815  69.926  0.00  0.00    +0.000 C 
ATOM      7  C   UNL     1      44.579  43.780  70.649  0.00  0.00    +0.000 C 
ATOM      8  C   UNL     1      41.300  41.696  69.585  0.00  0.00    +0.000 C 
ATOM      9  C   UNL     1      41.170  39.559  68.052  0.00  0.00    +0.000 C 
ATOM     10  C   UNL     1      42.308  42.478  70.390  0.00  0.00    +0.000 C 
ATOM     11  C   UNL     1      43.380  40.255  67.045  0.00  0.00    +0.000 C 
ATOM     12  C   UNL     1      45.215  42.393  68.160  0.00  0.00    +0.000 C 
ATOM     13  C   UNL     1      42.318  39.206  67.191  0.00  0.00    +0.000 C 
ATOM     14  C   UNL     1      46.158  43.690  70.143  0.00  0.00    +0.000 C 
ATOM     15  C   UNL     1      40.545  42.042  67.222  0.00  0.00    +0.000 C 
ATOM     16  C   UNL     1      46.335  43.089  68.873  0.00  0.00    +0.000 C 
ATOM     17  C   UNL     1      44.652  43.436  72.113  0.00  0.00    +0.000 C 
ATOM     18  C   UNL     1      44.111  45.246  70.427  0.00  0.00    +0.000 C 
ATOM     19  C   UNL     1      47.061  43.459  71.071  0.00  0.00    +0.000 C 
ATOM     20  C   UNL     1      45.707  43.164  73.033  0.00  0.00    +0.000 A 
ATOM     21  C   UNL     1      46.947  43.192  72.455  0.00  0.00    +0.000 A 
ATOM     22  C   UNL     1      45.964  42.868  74.368  0.00  0.00    +0.000 A 
ENDROOT
BRANCH   9  23
ATOM     23  O   UNL     1      39.952  39.182  67.390  0.00  0.00    +0.000 OA
ATOM     24  H   UNL     1      40.135  38.379  66.872  0.00  0.00    +0.000 HD
ENDBRANCH   9  23
BRANCH   9  25
ATOM     25  C   UNL     1      41.251  38.868  69.363  0.00  0.00    +0.000 C 
ATOM     26  C   UNL     1      41.327  38.291  70.407  0.00  0.00    +0.000 C 
ENDBRANCH   9  25
TORSDOF 2
ENDMDL
MODEL 6
REMARK VINA RESULT:      -5.7     27.813     31.180
REMARK  Name = Danazol.pdbqt.pdb
REMARK  2 active torsions:
REMARK  status: ('A' for Active; 'I' for Inactive)
REMARK    1  A    between atoms: C_9  and  O_23
REMARK    2  A    between atoms: C_9  and  C_25
REMARK                            x       y       z     vdW  Elec       q    Type
REMARK                         _______ _______ _______ _____ _____    ______ ____
ROOT
ATOM      1  O   UNL     1      61.307  79.489  83.419  0.00  0.00    +0.000 OA
ATOM      2  N   UNL     1      60.200  80.311  83.714  0.00  0.00    +0.000 NA
ATOM      3  C   UNL     1      60.134  76.105  76.702  0.00  0.00    +0.000 C 
ATOM      4  C   UNL     1      58.893  76.635  75.811  0.00  0.00    +0.000 C 
ATOM      5  C   UNL     1      60.830  76.954  77.689  0.00  0.00    +0.000 C 
ATOM      6  C   UNL     1      60.419  78.335  78.120  0.00  0.00    +0.000 C 
ATOM      7  C   UNL     1      61.259  79.236  79.057  0.00  0.00    +0.000 C 
ATOM      8  C   UNL     1      58.521  77.926  76.409  0.00  0.00    +0.000 C 
ATOM      9  C   UNL     1      57.788  75.441  75.937  0.00  0.00    +0.000 C 
ATOM     10  C   UNL     1      59.222  78.740  77.468  0.00  0.00    +0.000 C 
ATOM     11  C   UNL     1      60.009  74.699  76.888  0.00  0.00    +0.000 C 
ATOM     12  C   UNL     1      61.927  76.463  78.434  0.00  0.00    +0.000 C 
ATOM     13  C   UNL     1      58.638  74.327  76.408  0.00  0.00    +0.000 C 
ATOM     14  C   UNL     1      62.355  78.426  80.005  0.00  0.00    +0.000 C 
ATOM     15  C   UNL     1      59.464  76.838  74.359  0.00  0.00    +0.000 C 
ATOM     16  C   UNL     1      62.682  77.126  79.547  0.00  0.00    +0.000 C 
ATOM     17  C   UNL     1      60.362  79.922  80.053  0.00  0.00    +0.000 C 
ATOM     18  C   UNL     1      62.060  80.262  78.206  0.00  0.00    +0.000 C 
ATOM     19  C   UNL     1      62.272  78.625  81.302  0.00  0.00    +0.000 C 
ATOM     20  C   UNL     1      60.343  80.046  81.473  0.00  0.00    +0.000 A 
ATOM     21  C   UNL     1      61.357  79.363  82.088  0.00  0.00    +0.000 A 
ATOM     22  C   UNL     1      59.647  80.633  82.525  0.00  0.00    +0.000 A 
ENDROOT
BRANCH   9  23
ATOM     23  O   UNL     1      57.162  75.064  74.700  0.00  0.00    +0.000 OA
ATOM     24  H   UNL     1      56.305  75.522  74.653  0.00  0.00    +0.000 HD
ENDBRANCH   9  23
BRANCH   9  25
ATOM     25  C   UNL     1      56.743  75.778  76.934  0.00  0.00    +0.000 C 
ATOM     26  C   UNL     1      55.897  76.023  77.742  0.00  0.00    +0.000 C 
ENDBRANCH   9  25
TORSDOF 2
ENDMDL
MODEL 7
REMARK VINA RESULT:      -5.6     13.688     16.200
REMARK  Name = Danazol.pdbqt.pdb
REMARK  2 active torsions:
REMARK  status: ('A' for Active; 'I' for Inactive)
REMARK    1  A    between atoms: C_9  and  O_23
REMARK    2  A    between atoms: C_9  and  C_25
REMARK                            x       y       z     vdW  Elec       q    Type
REMARK                         _______ _______ _______ _____ _____    ______ ____
ROOT
ATOM      1  O   UNL     1      59.211  64.934  60.931  0.00  0.00    +0.000 OA
ATOM      2  N   UNL     1      59.467  66.212  60.391  0.00  0.00    +0.000 NA
ATOM      3  C   UNL     1      59.215  65.432  68.527  0.00  0.00    +0.000 C 
ATOM      4  C   UNL     1      59.224  66.914  69.173  0.00  0.00    +0.000 C 
ATOM      5  C   UNL     1      58.665  65.147  67.188  0.00  0.00    +0.000 C 
ATOM      6  C   UNL     1      58.187  66.165  66.188  0.00  0.00    +0.000 C 
ATOM      7  C   UNL     1      57.492  65.807  64.853  0.00  0.00    +0.000 C 
ATOM      8  C   UNL     1      58.857  67.812  68.068  0.00  0.00    +0.000 C 
ATOM      9  C   UNL     1      60.741  67.074  69.754  0.00  0.00    +0.000 C 
ATOM     10  C   UNL     1      58.357  67.486  66.683  0.00  0.00    +0.000 C 
ATOM     11  C   UNL     1      60.305  64.684  69.057  0.00  0.00    +0.000 C 
ATOM     12  C   UNL     1      58.653  63.834  66.664  0.00  0.00    +0.000 C 
ATOM     13  C   UNL     1      61.172  65.661  69.794  0.00  0.00    +0.000 C 
ATOM     14  C   UNL     1      57.781  64.266  64.307  0.00  0.00    +0.000 C 
ATOM     15  C   UNL     1      58.106  66.906  70.279  0.00  0.00    +0.000 C 
ATOM     16  C   UNL     1      58.244  63.367  65.299  0.00  0.00    +0.000 C 
ATOM     17  C   UNL     1      58.018  66.683  63.746  0.00  0.00    +0.000 C 
ATOM     18  C   UNL     1      55.952  65.953  65.016  0.00  0.00    +0.000 C 
ATOM     19  C   UNL     1      58.269  64.154  63.091  0.00  0.00    +0.000 C 
ATOM     20  C   UNL     1      58.571  66.450  62.454  0.00  0.00    +0.000 A 
ATOM     21  C   UNL     1      58.679  65.122  62.144  0.00  0.00    +0.000 A 
ATOM     22  C   UNL     1      59.066  67.099  61.327  0.00  0.00    +0.000 A 
ENDROOT
BRANCH   9  23
ATOM     23  O   UNL     1      60.827  67.630  71.075  0.00  0.00    +0.000 OA
ATOM     24  H   UNL     1      60.663  68.587  71.003  0.00  0.00    +0.000 HD
ENDBRANCH   9  23
BRANCH   9  25
ATOM     25  C   UNL     1      61.589  67.867  68.830  0.00  0.00    +0.000 C 
ATOM     26  C   UNL     1      62.293  68.490  68.091  0.00  0.00    +0.000 C 
ENDBRANCH   9  25
TORSDOF 2
ENDMDL
MODEL 8
REMARK VINA RESULT:      -5.5     12.098     14.540
REMARK  Name = Danazol.pdbqt.pdb
REMARK  2 active torsions:
REMARK  status: ('A' for Active; 'I' for Inactive)
REMARK    1  A    between atoms: C_9  and  O_23
REMARK    2  A    between atoms: C_9  and  C_25
REMARK                            x       y       z     vdW  Elec       q    Type
REMARK                         _______ _______ _______ _____ _____    ______ ____
ROOT
ATOM      1  O   UNL     1      66.655  63.063  63.537  0.00  0.00    +0.000 OA
ATOM      2  N   UNL     1      67.458  62.658  64.625  0.00  0.00    +0.000 NA
ATOM      3  C   UNL     1      61.271  67.800  66.089  0.00  0.00    +0.000 C 
ATOM      4  C   UNL     1      61.416  68.341  67.606  0.00  0.00    +0.000 C 
ATOM      5  C   UNL     1      62.427  67.374  65.277  0.00  0.00    +0.000 C 
ATOM      6  C   UNL     1      63.846  67.231  65.757  0.00  0.00    +0.000 C 
ATOM      7  C   UNL     1      65.045  66.913  64.833  0.00  0.00    +0.000 C 
ATOM      8  C   UNL     1      62.804  68.035  67.986  0.00  0.00    +0.000 C 
ATOM      9  C   UNL     1      60.255  67.532  68.418  0.00  0.00    +0.000 C 
ATOM     10  C   UNL     1      63.950  67.537  67.142  0.00  0.00    +0.000 C 
ATOM     11  C   UNL     1      59.989  67.203  65.927  0.00  0.00    +0.000 C 
ATOM     12  C   UNL     1      62.264  66.928  63.945  0.00  0.00    +0.000 C 
ATOM     13  C   UNL     1      59.400  67.079  67.301  0.00  0.00    +0.000 C 
ATOM     14  C   UNL     1      64.643  66.196  63.390  0.00  0.00    +0.000 C 
ATOM     15  C   UNL     1      61.189  69.895  67.530  0.00  0.00    +0.000 C 
ATOM     16  C   UNL     1      63.288  66.358  63.010  0.00  0.00    +0.000 C 
ATOM     17  C   UNL     1      65.952  65.907  65.493  0.00  0.00    +0.000 C 
ATOM     18  C   UNL     1      65.800  68.230  64.494  0.00  0.00    +0.000 C 
ATOM     19  C   UNL     1      65.233  65.053  63.117  0.00  0.00    +0.000 C 
ATOM     20  C   UNL     1      66.513  64.654  65.110  0.00  0.00    +0.000 A 
ATOM     21  C   UNL     1      66.122  64.246  63.864  0.00  0.00    +0.000 A 
ATOM     22  C   UNL     1      67.356  63.638  65.548  0.00  0.00    +0.000 A 
ENDROOT
BRANCH   9  23
ATOM     23  O   UNL     1      59.472  68.337  69.314  0.00  0.00    +0.000 OA
ATOM     24  H   UNL     1      60.085  68.901  69.815  0.00  0.00    +0.000 HD
ENDBRANCH   9  23
BRANCH   9  25
ATOM     25  C   UNL     1      60.822  66.380  69.161  0.00  0.00    +0.000 C 
ATOM     26  C   UNL     1      61.254  65.442  69.764  0.00  0.00    +0.000 C 
ENDBRANCH   9  25
TORSDOF 2
ENDMDL
MODEL 9
REMARK VINA RESULT:      -5.3     12.082     15.007
REMARK  Name = Danazol.pdbqt.pdb
REMARK  2 active torsions:
REMARK  status: ('A' for Active; 'I' for Inactive)
REMARK    1  A    between atoms: C_9  and  O_23
REMARK    2  A    between atoms: C_9  and  C_25
REMARK                            x       y       z     vdW  Elec       q    Type
REMARK                         _______ _______ _______ _____ _____    ______ ____
ROOT
ATOM      1  O   UNL     1      74.145  45.367  67.859  0.00  0.00    +0.000 OA
ATOM      2  N   UNL     1      74.969  44.541  68.652  0.00  0.00    +0.000 NA
ATOM      3  C   UNL     1      70.806  41.097  62.515  0.00  0.00    +0.000 C 
ATOM      4  C   UNL     1      70.936  39.491  62.659  0.00  0.00    +0.000 C 
ATOM      5  C   UNL     1      70.876  42.012  63.670  0.00  0.00    +0.000 C 
ATOM      6  C   UNL     1      71.219  41.633  65.085  0.00  0.00    +0.000 C 
ATOM      7  C   UNL     1      71.145  42.607  66.285  0.00  0.00    +0.000 C 
ATOM      8  C   UNL     1      71.387  39.270  64.042  0.00  0.00    +0.000 C 
ATOM      9  C   UNL     1      71.993  39.081  61.486  0.00  0.00    +0.000 C 
ATOM     10  C   UNL     1      71.509  40.245  65.186  0.00  0.00    +0.000 C 
ATOM     11  C   UNL     1      71.270  41.489  61.227  0.00  0.00    +0.000 C 
ATOM     12  C   UNL     1      70.735  43.409  63.508  0.00  0.00    +0.000 C 
ATOM     13  C   UNL     1      71.939  40.285  60.631  0.00  0.00    +0.000 C 
ATOM     14  C   UNL     1      71.204  44.216  65.882  0.00  0.00    +0.000 C 
ATOM     15  C   UNL     1      69.484  38.923  62.449  0.00  0.00    +0.000 C 
ATOM     16  C   UNL     1      70.885  44.496  64.530  0.00  0.00    +0.000 C 
ATOM     17  C   UNL     1      72.343  42.417  67.178  0.00  0.00    +0.000 C 
ATOM     18  C   UNL     1      69.814  42.377  67.056  0.00  0.00    +0.000 C 
ATOM     19  C   UNL     1      72.141  44.934  66.460  0.00  0.00    +0.000 C 
ATOM     20  C   UNL     1      73.336  43.280  67.727  0.00  0.00    +0.000 A 
ATOM     21  C   UNL     1      73.194  44.584  67.337  0.00  0.00    +0.000 A 
ATOM     22  C   UNL     1      74.453  43.297  68.557  0.00  0.00    +0.000 A 
ENDROOT
BRANCH   9  23
ATOM     23  O   UNL     1      71.617  37.934  60.707  0.00  0.00    +0.000 OA
ATOM     24  H   UNL     1      71.371  38.249  59.820  0.00  0.00    +0.000 HD
ENDBRANCH   9  23
BRANCH   9  25
ATOM     25  C   UNL     1      73.355  38.875  62.037  0.00  0.00    +0.000 C 
ATOM     26  C   UNL     1      74.460  38.735  62.472  0.00  0.00    +0.000 C 
ENDBRANCH   9  25
TORSDOF 2
ENDMDL
