MODEL 1
REMARK VINA RESULT:      -5.1      0.000      0.000
REMARK  Name = Decitabine.pdbqt.pdb
REMARK  4 active torsions:
REMARK  status: ('A' for Active; 'I' for Inactive)
REMARK    1  A    between atoms: N_2  and  C1*_8
REMARK    2  A    between atoms: C4*_10  and  C5*_13
REMARK    3  A    between atoms: C3*_11  and  O3*_16
REMARK    4  A    between atoms: C5*_13  and  O5*_14
REMARK                            x       y       z     vdW  Elec       q    Type
REMARK                         _______ _______ _______ _____ _____    ______ ____
ROOT
ATOM      1  O   UNL     1      76.289  80.399  81.790  0.00  0.00    +0.000 OA
ATOM      2  N   UNL     1      76.198  79.698  83.995  0.00  0.00    +0.000 N 
ATOM      3  N   UNL     1      77.689  78.723  82.469  0.00  0.00    +0.000 NA
ATOM      4  N   UNL     1      77.596  77.973  84.727  0.00  0.00    +0.000 NA
ATOM      5  C   UNL     1      76.687  79.669  82.692  0.00  0.00    +0.000 A 
ATOM      6  C   UNL     1      76.779  78.803  84.790  0.00  0.00    +0.000 A 
ATOM      7  C   UNL     1      78.105  77.951  83.440  0.00  0.00    +0.000 A 
ATOM      8  N   UNL     1      79.085  77.051  83.173  0.00  0.00    +0.000 N 
ATOM      9  H   UNL     1      79.084  76.240  83.778  0.00  0.00    +0.000 HD
ATOM     10  H   UNL     1      79.184  76.847  82.186  0.00  0.00    +0.000 HD
ENDROOT
BRANCH   2  11
ATOM     11  C1* UNL     1      75.228  80.520  84.473  0.00  0.00    +0.000 A 
ATOM     12  O4* UNL     1      75.125  81.858  84.076  0.00  0.00    +0.000 OA
ATOM     13  C4* UNL     1      74.024  82.399  84.750  0.00  0.00    +0.000 A 
ATOM     14  C3* UNL     1      73.435  81.383  85.585  0.00  0.00    +0.000 A 
ATOM     15  C2* UNL     1      74.196  80.218  85.384  0.00  0.00    +0.000 A 
BRANCH  14  16
ATOM     16  O3* UNL     1      72.097  81.388  85.863  0.00  0.00    +0.000 OA
ATOM     17  H3* UNL     1      71.637  82.077  85.354  0.00  0.00    +0.000 HD
ENDBRANCH  14  16
BRANCH  13  18
ATOM     18  C5* UNL     1      73.515  83.681  84.465  0.00  0.00    +0.000 C 
BRANCH  18  19
ATOM     19  O5* UNL     1      73.032  84.890  84.193  0.00  0.00    +0.000 OA
ATOM     20  H5* UNL     1      72.769  85.340  85.015  0.00  0.00    +0.000 HD
ENDBRANCH  18  19
ENDBRANCH  13  18
ENDBRANCH   2  11
TORSDOF 4
ENDMDL
MODEL 2
REMARK VINA RESULT:      -4.9     47.239     48.656
REMARK  Name = Decitabine.pdbqt.pdb
REMARK  4 active torsions:
REMARK  status: ('A' for Active; 'I' for Inactive)
REMARK    1  A    between atoms: N_2  and  C1*_8
REMARK    2  A    between atoms: C4*_10  and  C5*_13
REMARK    3  A    between atoms: C3*_11  and  O3*_16
REMARK    4  A    between atoms: C5*_13  and  O5*_14
REMARK                            x       y       z     vdW  Elec       q    Type
REMARK                         _______ _______ _______ _____ _____    ______ ____
ROOT
ATOM      1  O   UNL     1      62.477  35.920  66.724  0.00  0.00    +0.000 OA
ATOM      2  N   UNL     1      60.426  36.894  66.274  0.00  0.00    +0.000 N 
ATOM      3  N   UNL     1      60.972  34.772  65.441  0.00  0.00    +0.000 NA
ATOM      4  N   UNL     1      58.866  35.766  64.949  0.00  0.00    +0.000 NA
ATOM      5  C   UNL     1      61.372  35.877  66.193  0.00  0.00    +0.000 A 
ATOM      6  C   UNL     1      59.309  36.622  65.606  0.00  0.00    +0.000 A 
ATOM      7  C   UNL     1      59.791  34.738  64.881  0.00  0.00    +0.000 A 
ATOM      8  N   UNL     1      59.447  33.638  64.165  0.00  0.00    +0.000 N 
ATOM      9  H   UNL     1      58.759  33.807  63.443  0.00  0.00    +0.000 HD
ATOM     10  H   UNL     1      60.244  33.085  63.872  0.00  0.00    +0.000 HD
ENDROOT
BRANCH   2  11
ATOM     11  C1* UNL     1      60.563  38.071  66.941  0.00  0.00    +0.000 A 
ATOM     12  O4* UNL     1      60.166  38.219  68.275  0.00  0.00    +0.000 OA
ATOM     13  C4* UNL     1      60.455  39.540  68.640  0.00  0.00    +0.000 A 
ATOM     14  C3* UNL     1      61.036  40.226  67.514  0.00  0.00    +0.000 A 
ATOM     15  C2* UNL     1      61.104  39.284  66.472  0.00  0.00    +0.000 A 
BRANCH  14  16
ATOM     16  O3* UNL     1      61.933  41.240  67.693  0.00  0.00    +0.000 OA
ATOM     17  H3* UNL     1      62.353  41.184  68.569  0.00  0.00    +0.000 HD
ENDBRANCH  14  16
BRANCH  13  18
ATOM     18  C5* UNL     1      60.347  40.001  69.966  0.00  0.00    +0.000 C 
BRANCH  18  19
ATOM     19  O5* UNL     1      60.247  40.439  71.218  0.00  0.00    +0.000 OA
ATOM     20  H5* UNL     1      60.970  40.078  71.759  0.00  0.00    +0.000 HD
ENDBRANCH  18  19
ENDBRANCH  13  18
ENDBRANCH   2  11
TORSDOF 4
ENDMDL
MODEL 3
REMARK VINA RESULT:      -4.6     55.952     57.058
REMARK  Name = Decitabine.pdbqt.pdb
REMARK  4 active torsions:
REMARK  status: ('A' for Active; 'I' for Inactive)
REMARK    1  A    between atoms: N_2  and  C1*_8
REMARK    2  A    between atoms: C4*_10  and  C5*_13
REMARK    3  A    between atoms: C3*_11  and  O3*_16
REMARK    4  A    between atoms: C5*_13  and  O5*_14
REMARK                            x       y       z     vdW  Elec       q    Type
REMARK                         _______ _______ _______ _____ _____    ______ ____
ROOT
ATOM      1  O   UNL     1      48.492  33.199  61.444  0.00  0.00    +0.000 OA
ATOM      2  N   UNL     1      49.035  35.435  61.188  0.00  0.00    +0.000 N 
ATOM      3  N   UNL     1      46.833  34.762  61.632  0.00  0.00    +0.000 NA
ATOM      4  N   UNL     1      47.367  37.065  61.351  0.00  0.00    +0.000 NA
ATOM      5  C   UNL     1      48.159  34.380  61.422  0.00  0.00    +0.000 A 
ATOM      6  C   UNL     1      48.436  36.623  61.202  0.00  0.00    +0.000 A 
ATOM      7  C   UNL     1      46.491  36.024  61.606  0.00  0.00    +0.000 A 
ATOM      8  N   UNL     1      45.190  36.344  61.822  0.00  0.00    +0.000 N 
ATOM      9  H   UNL     1      44.899  37.217  61.402  0.00  0.00    +0.000 HD
ATOM     10  H   UNL     1      44.556  35.568  61.673  0.00  0.00    +0.000 HD
ENDROOT
BRANCH   2  11
ATOM     11  C1* UNL     1      50.371  35.337  60.957  0.00  0.00    +0.000 A 
ATOM     12  O4* UNL     1      50.906  35.375  59.665  0.00  0.00    +0.000 OA
ATOM     13  C4* UNL     1      52.295  35.257  59.797  0.00  0.00    +0.000 A 
ATOM     14  C3* UNL     1      52.629  35.139  61.193  0.00  0.00    +0.000 A 
ATOM     15  C2* UNL     1      51.413  35.206  61.896  0.00  0.00    +0.000 A 
BRANCH  14  16
ATOM     16  O3* UNL     1      53.820  35.603  61.674  0.00  0.00    +0.000 OA
ATOM     17  H3* UNL     1      53.979  35.285  62.580  0.00  0.00    +0.000 HD
ENDBRANCH  14  16
BRANCH  13  18
ATOM     18  C5* UNL     1      53.177  35.426  58.712  0.00  0.00    +0.000 C 
BRANCH  18  19
ATOM     19  O5* UNL     1      54.010  35.582  57.687  0.00  0.00    +0.000 OA
ATOM     20  H5* UNL     1      53.519  35.860  56.894  0.00  0.00    +0.000 HD
ENDBRANCH  18  19
ENDBRANCH  13  18
ENDBRANCH   2  11
TORSDOF 4
ENDMDL
MODEL 4
REMARK VINA RESULT:      -4.5      3.083      4.800
REMARK  Name = Decitabine.pdbqt.pdb
REMARK  4 active torsions:
REMARK  status: ('A' for Active; 'I' for Inactive)
REMARK    1  A    between atoms: N_2  and  C1*_8
REMARK    2  A    between atoms: C4*_10  and  C5*_13
REMARK    3  A    between atoms: C3*_11  and  O3*_16
REMARK    4  A    between atoms: C5*_13  and  O5*_14
REMARK                            x       y       z     vdW  Elec       q    Type
REMARK                         _______ _______ _______ _____ _____    ______ ____
ROOT
ATOM      1  O   UNL     1      78.171  81.685  80.548  0.00  0.00    +0.000 OA
ATOM      2  N   UNL     1      77.473  79.483  80.709  0.00  0.00    +0.000 N 
ATOM      3  N   UNL     1      77.866  80.485  78.626  0.00  0.00    +0.000 NA
ATOM      4  N   UNL     1      77.128  78.226  78.769  0.00  0.00    +0.000 NA
ATOM      5  C   UNL     1      77.860  80.625  80.014  0.00  0.00    +0.000 A 
ATOM      6  C   UNL     1      77.172  78.463  79.910  0.00  0.00    +0.000 A 
ATOM      7  C   UNL     1      77.533  79.349  78.069  0.00  0.00    +0.000 A 
ATOM      8  N   UNL     1      77.561  79.262  76.714  0.00  0.00    +0.000 N 
ATOM      9  H   UNL     1      76.934  78.568  76.327  0.00  0.00    +0.000 HD
ATOM     10  H   UNL     1      77.535  80.164  76.254  0.00  0.00    +0.000 HD
ENDROOT
BRANCH   2  11
ATOM     11  C1* UNL     1      77.383  79.353  82.059  0.00  0.00    +0.000 A 
ATOM     12  O4* UNL     1      76.318  79.892  82.788  0.00  0.00    +0.000 OA
ATOM     13  C4* UNL     1      76.540  79.568  84.132  0.00  0.00    +0.000 A 
ATOM     14  C3* UNL     1      77.767  78.820  84.242  0.00  0.00    +0.000 A 
ATOM     15  C2* UNL     1      78.265  78.688  82.934  0.00  0.00    +0.000 A 
BRANCH  14  16
ATOM     16  O3* UNL     1      77.939  77.889  85.226  0.00  0.00    +0.000 OA
ATOM     17  H3* UNL     1      77.110  77.738  85.713  0.00  0.00    +0.000 HD
ENDBRANCH  14  16
BRANCH  13  18
ATOM     18  C5* UNL     1      75.581  79.801  85.137  0.00  0.00    +0.000 C 
BRANCH  18  19
ATOM     19  O5* UNL     1      74.679  80.024  86.089  0.00  0.00    +0.000 OA
ATOM     20  H5* UNL     1      73.781  79.958  85.722  0.00  0.00    +0.000 HD
ENDBRANCH  18  19
ENDBRANCH  13  18
ENDBRANCH   2  11
TORSDOF 4
ENDMDL
MODEL 5
REMARK VINA RESULT:      -4.5     37.905     39.309
REMARK  Name = Decitabine.pdbqt.pdb
REMARK  4 active torsions:
REMARK  status: ('A' for Active; 'I' for Inactive)
REMARK    1  A    between atoms: N_2  and  C1*_8
REMARK    2  A    between atoms: C4*_10  and  C5*_13
REMARK    3  A    between atoms: C3*_11  and  O3*_16
REMARK    4  A    between atoms: C5*_13  and  O5*_14
REMARK                            x       y       z     vdW  Elec       q    Type
REMARK                         _______ _______ _______ _____ _____    ______ ____
ROOT
ATOM      1  O   UNL     1      59.161  54.570  58.154  0.00  0.00    +0.000 OA
ATOM      2  N   UNL     1      60.771  54.475  59.816  0.00  0.00    +0.000 N 
ATOM      3  N   UNL     1      59.413  56.367  59.546  0.00  0.00    +0.000 NA
ATOM      4  N   UNL     1      61.078  56.297  61.247  0.00  0.00    +0.000 NA
ATOM      5  C   UNL     1      59.744  55.086  59.103  0.00  0.00    +0.000 A 
ATOM      6  C   UNL     1      61.254  55.237  60.793  0.00  0.00    +0.000 A 
ATOM      7  C   UNL     1      60.042  56.906  60.559  0.00  0.00    +0.000 A 
ATOM      8  N   UNL     1      59.679  58.152  60.956  0.00  0.00    +0.000 N 
ATOM      9  H   UNL     1      60.411  58.673  61.421  0.00  0.00    +0.000 HD
ATOM     10  H   UNL     1      59.176  58.668  60.244  0.00  0.00    +0.000 HD
ENDROOT
BRANCH   2  11
ATOM     11  C1* UNL     1      61.281  53.235  59.590  0.00  0.00    +0.000 A 
ATOM     12  O4* UNL     1      62.658  53.004  59.499  0.00  0.00    +0.000 OA
ATOM     13  C4* UNL     1      62.825  51.632  59.272  0.00  0.00    +0.000 A 
ATOM     14  C3* UNL     1      61.531  51.000  59.217  0.00  0.00    +0.000 A 
ATOM     15  C2* UNL     1      60.586  52.019  59.431  0.00  0.00    +0.000 A 
BRANCH  14  16
ATOM     16  O3* UNL     1      61.363  49.703  59.608  0.00  0.00    +0.000 OA
ATOM     17  H3* UNL     1      60.560  49.602  60.149  0.00  0.00    +0.000 HD
ENDBRANCH  14  16
BRANCH  13  18
ATOM     18  C5* UNL     1      64.087  51.008  59.297  0.00  0.00    +0.000 C 
BRANCH  18  19
ATOM     19  O5* UNL     1      65.278  50.415  59.316  0.00  0.00    +0.000 OA
ATOM     20  H5* UNL     1      65.976  51.069  59.491  0.00  0.00    +0.000 HD
ENDBRANCH  18  19
ENDBRANCH  13  18
ENDBRANCH   2  11
TORSDOF 4
ENDMDL
MODEL 6
REMARK VINA RESULT:      -4.4      7.823      8.623
REMARK  Name = Decitabine.pdbqt.pdb
REMARK  4 active torsions:
REMARK  status: ('A' for Active; 'I' for Inactive)
REMARK    1  A    between atoms: N_2  and  C1*_8
REMARK    2  A    between atoms: C4*_10  and  C5*_13
REMARK    3  A    between atoms: C3*_11  and  O3*_16
REMARK    4  A    between atoms: C5*_13  and  O5*_14
REMARK                            x       y       z     vdW  Elec       q    Type
REMARK                         _______ _______ _______ _____ _____    ______ ____
ROOT
ATOM      1  O   UNL     1      69.530  86.851  81.723  0.00  0.00    +0.000 OA
ATOM      2  N   UNL     1      69.606  85.233  83.377  0.00  0.00    +0.000 N 
ATOM      3  N   UNL     1      69.259  84.659  81.130  0.00  0.00    +0.000 NA
ATOM      4  N   UNL     1      69.312  82.982  82.818  0.00  0.00    +0.000 NA
ATOM      5  C   UNL     1      69.473  85.674  82.064  0.00  0.00    +0.000 A 
ATOM      6  C   UNL     1      69.496  83.913  83.497  0.00  0.00    +0.000 A 
ATOM      7  C   UNL     1      69.201  83.408  81.506  0.00  0.00    +0.000 A 
ATOM      8  N   UNL     1      68.996  82.458  80.558  0.00  0.00    +0.000 N 
ATOM      9  H   UNL     1      68.559  81.613  80.901  0.00  0.00    +0.000 HD
ATOM     10  H   UNL     1      68.600  82.825  79.702  0.00  0.00    +0.000 HD
ENDROOT
BRANCH   2  11
ATOM     11  C1* UNL     1      69.821  86.010  84.470  0.00  0.00    +0.000 A 
ATOM     12  O4* UNL     1      68.769  86.572  85.201  0.00  0.00    +0.000 OA
ATOM     13  C4* UNL     1      69.345  87.297  86.252  0.00  0.00    +0.000 A 
ATOM     14  C3* UNL     1      70.780  87.190  86.169  0.00  0.00    +0.000 A 
ATOM     15  C2* UNL     1      71.050  86.371  85.059  0.00  0.00    +0.000 A 
BRANCH  14  16
ATOM     16  O3* UNL     1      71.555  87.241  87.292  0.00  0.00    +0.000 OA
ATOM     17  H3* UNL     1      71.016  87.132  88.095  0.00  0.00    +0.000 HD
ENDBRANCH  14  16
BRANCH  13  18
ATOM     18  C5* UNL     1      68.582  87.858  87.294  0.00  0.00    +0.000 C 
BRANCH  18  19
ATOM     19  O5* UNL     1      67.857  88.387  88.276  0.00  0.00    +0.000 OA
ATOM     20  H5* UNL     1      68.302  89.173  88.636  0.00  0.00    +0.000 HD
ENDBRANCH  18  19
ENDBRANCH  13  18
ENDBRANCH   2  11
TORSDOF 4
ENDMDL
MODEL 7
REMARK VINA RESULT:      -4.3     52.983     53.705
REMARK  Name = Decitabine.pdbqt.pdb
REMARK  4 active torsions:
REMARK  status: ('A' for Active; 'I' for Inactive)
REMARK    1  A    between atoms: N_2  and  C1*_8
REMARK    2  A    between atoms: C4*_10  and  C5*_13
REMARK    3  A    between atoms: C3*_11  and  O3*_16
REMARK    4  A    between atoms: C5*_13  and  O5*_14
REMARK                            x       y       z     vdW  Elec       q    Type
REMARK                         _______ _______ _______ _____ _____    ______ ____
ROOT
ATOM      1  O   UNL     1      65.002  35.748  52.512  0.00  0.00    +0.000 OA
ATOM      2  N   UNL     1      65.605  36.565  54.592  0.00  0.00    +0.000 N 
ATOM      3  N   UNL     1      67.221  35.846  53.055  0.00  0.00    +0.000 NA
ATOM      4  N   UNL     1      67.860  36.663  55.198  0.00  0.00    +0.000 NA
ATOM      5  C   UNL     1      65.867  36.037  53.332  0.00  0.00    +0.000 A 
ATOM      6  C   UNL     1      66.705  36.785  55.306  0.00  0.00    +0.000 A 
ATOM      7  C   UNL     1      68.134  36.158  53.938  0.00  0.00    +0.000 A 
ATOM      8  N   UNL     1      69.438  35.959  53.617  0.00  0.00    +0.000 N 
ATOM      9  H   UNL     1      70.047  35.813  54.412  0.00  0.00    +0.000 HD
ATOM     10  H   UNL     1      69.568  35.303  52.857  0.00  0.00    +0.000 HD
ENDROOT
BRANCH   2  11
ATOM     11  C1* UNL     1      64.379  36.847  55.108  0.00  0.00    +0.000 A 
ATOM     12  O4* UNL     1      63.524  37.785  54.520  0.00  0.00    +0.000 OA
ATOM     13  C4* UNL     1      62.360  37.817  55.298  0.00  0.00    +0.000 A 
ATOM     14  C3* UNL     1      62.496  36.889  56.392  0.00  0.00    +0.000 A 
ATOM     15  C2* UNL     1      63.758  36.288  56.242  0.00  0.00    +0.000 A 
BRANCH  14  16
ATOM     16  O3* UNL     1      61.405  36.263  56.924  0.00  0.00    +0.000 OA
ATOM     17  H3* UNL     1      60.743  36.910  57.224  0.00  0.00    +0.000 HD
ENDBRANCH  14  16
BRANCH  13  18
ATOM     18  C5* UNL     1      61.206  38.525  54.908  0.00  0.00    +0.000 C 
BRANCH  18  19
ATOM     19  O5* UNL     1      60.114  39.191  54.543  0.00  0.00    +0.000 OA
ATOM     20  H5* UNL     1      59.722  39.641  55.311  0.00  0.00    +0.000 HD
ENDBRANCH  18  19
ENDBRANCH  13  18
ENDBRANCH   2  11
TORSDOF 4
ENDMDL
MODEL 8
REMARK VINA RESULT:      -4.3     41.968     43.679
REMARK  Name = Decitabine.pdbqt.pdb
REMARK  4 active torsions:
REMARK  status: ('A' for Active; 'I' for Inactive)
REMARK    1  A    between atoms: N_2  and  C1*_8
REMARK    2  A    between atoms: C4*_10  and  C5*_13
REMARK    3  A    between atoms: C3*_11  and  O3*_16
REMARK    4  A    between atoms: C5*_13  and  O5*_14
REMARK                            x       y       z     vdW  Elec       q    Type
REMARK                         _______ _______ _______ _____ _____    ______ ____
ROOT
ATOM      1  O   UNL     1      63.527  40.080  73.462  0.00  0.00    +0.000 OA
ATOM      2  N   UNL     1      65.536  40.506  72.392  0.00  0.00    +0.000 N 
ATOM      3  N   UNL     1      65.354  40.622  74.726  0.00  0.00    +0.000 NA
ATOM      4  N   UNL     1      67.423  41.084  73.643  0.00  0.00    +0.000 NA
ATOM      5  C   UNL     1      64.717  40.378  73.509  0.00  0.00    +0.000 A 
ATOM      6  C   UNL     1      66.784  40.848  72.696  0.00  0.00    +0.000 A 
ATOM      7  C   UNL     1      66.623  40.938  74.763  0.00  0.00    +0.000 A 
ATOM      8  N   UNL     1      67.198  41.159  75.973  0.00  0.00    +0.000 N 
ATOM      9  H   UNL     1      68.001  41.774  75.947  0.00  0.00    +0.000 HD
ATOM     10  H   UNL     1      66.528  41.365  76.704  0.00  0.00    +0.000 HD
ENDROOT
BRANCH   2  11
ATOM     11  C1* UNL     1      65.166  40.323  71.097  0.00  0.00    +0.000 A 
ATOM     12  O4* UNL     1      65.534  39.183  70.374  0.00  0.00    +0.000 OA
ATOM     13  C4* UNL     1      64.983  39.319  69.093  0.00  0.00    +0.000 A 
ATOM     14  C3* UNL     1      64.266  40.567  69.017  0.00  0.00    +0.000 A 
ATOM     15  C2* UNL     1      64.384  41.166  70.283  0.00  0.00    +0.000 A 
BRANCH  14  16
ATOM     16  O3* UNL     1      63.181  40.707  68.199  0.00  0.00    +0.000 OA
ATOM     17  H3* UNL     1      63.422  41.163  67.374  0.00  0.00    +0.000 HD
ENDBRANCH  14  16
BRANCH  13  18
ATOM     18  C5* UNL     1      65.005  38.279  68.144  0.00  0.00    +0.000 C 
BRANCH  18  19
ATOM     19  O5* UNL     1      65.027  37.300  67.244  0.00  0.00    +0.000 OA
ATOM     20  H5* UNL     1      64.390  37.483  66.532  0.00  0.00    +0.000 HD
ENDBRANCH  18  19
ENDBRANCH  13  18
ENDBRANCH   2  11
TORSDOF 4
ENDMDL
MODEL 9
REMARK VINA RESULT:      -4.2     28.353     29.015
REMARK  Name = Decitabine.pdbqt.pdb
REMARK  4 active torsions:
REMARK  status: ('A' for Active; 'I' for Inactive)
REMARK    1  A    between atoms: N_2  and  C1*_8
REMARK    2  A    between atoms: C4*_10  and  C5*_13
REMARK    3  A    between atoms: C3*_11  and  O3*_16
REMARK    4  A    between atoms: C5*_13  and  O5*_14
REMARK                            x       y       z     vdW  Elec       q    Type
REMARK                         _______ _______ _______ _____ _____    ______ ____
ROOT
ATOM      1  O   UNL     1      58.296  65.548  64.865  0.00  0.00    +0.000 OA
ATOM      2  N   UNL     1      57.590  64.439  66.771  0.00  0.00    +0.000 N 
ATOM      3  N   UNL     1      56.503  64.136  64.716  0.00  0.00    +0.000 NA
ATOM      4  N   UNL     1      55.749  63.003  66.670  0.00  0.00    +0.000 NA
ATOM      5  C   UNL     1      57.529  64.767  65.420  0.00  0.00    +0.000 A 
ATOM      6  C   UNL     1      56.645  63.581  67.143  0.00  0.00    +0.000 A 
ATOM      7  C   UNL     1      55.693  63.305  65.320  0.00  0.00    +0.000 A 
ATOM      8  N   UNL     1      54.715  62.712  64.589  0.00  0.00    +0.000 N 
ATOM      9  H   UNL     1      53.903  62.434  65.125  0.00  0.00    +0.000 HD
ATOM     10  H   UNL     1      54.508  63.199  63.725  0.00  0.00    +0.000 HD
ENDROOT
BRANCH   2  11
ATOM     11  C1* UNL     1      58.489  64.911  67.675  0.00  0.00    +0.000 A 
ATOM     12  O4* UNL     1      58.190  65.972  68.536  0.00  0.00    +0.000 OA
ATOM     13  C4* UNL     1      59.326  66.187  69.326  0.00  0.00    +0.000 A 
ATOM     14  C3* UNL     1      60.351  65.248  68.946  0.00  0.00    +0.000 A 
ATOM     15  C2* UNL     1      59.799  64.455  67.925  0.00  0.00    +0.000 A 
BRANCH  14  16
ATOM     16  O3* UNL     1      61.268  64.802  69.854  0.00  0.00    +0.000 OA
ATOM     17  H3* UNL     1      61.764  64.041  69.505  0.00  0.00    +0.000 HD
ENDBRANCH  14  16
BRANCH  13  18
ATOM     18  C5* UNL     1      59.330  67.069  70.424  0.00  0.00    +0.000 C 
BRANCH  18  19
ATOM     19  O5* UNL     1      59.329  67.901  71.462  0.00  0.00    +0.000 OA
ATOM     20  H5* UNL     1      60.241  68.104  71.731  0.00  0.00    +0.000 HD
ENDBRANCH  18  19
ENDBRANCH  13  18
ENDBRANCH   2  11
TORSDOF 4
ENDMDL
