MODEL 1
REMARK VINA RESULT:      -5.3      0.000      0.000
REMARK  Name = Deferoxamine.pdbqt.pdb
REMARK  19 active torsions:
REMARK  status: ('A' for Active; 'I' for Inactive)
REMARK    1  A    between atoms: C_1  and  C_2
REMARK    2  A    between atoms: C_3  and  C_4
REMARK    3  A    between atoms: C_4  and  N_5
REMARK    4  A    between atoms: C_6  and  C_9
REMARK    5  A    between atoms: C_10  and  C_11
REMARK    6  A    between atoms: N_13  and  O_14
REMARK    7  A    between atoms: N_13  and  C_16
REMARK    8  A    between atoms: C_17  and  C_18
REMARK    9  A    between atoms: C_19  and  C_20
REMARK   10  A    between atoms: C_20  and  N_21
REMARK   11  A    between atoms: C_24  and  N_25
REMARK   12  A    between atoms: N_25  and  O_28
REMARK   13  A    between atoms: C_26  and  C_30
REMARK   14  A    between atoms: C_31  and  C_32
REMARK   15  A    between atoms: N_34  and  C_36
REMARK   16  A    between atoms: C_37  and  C_38
REMARK   17  A    between atoms: C_38  and  C_39
REMARK   18  A    between atoms: C_40  and  N_41
REMARK   19  A    between atoms: N_41  and  O_45
REMARK                            x       y       z     vdW  Elec       q    Type
REMARK                         _______ _______ _______ _____ _____    ______ ____
ROOT
ATOM      1  C   UNL     1      52.528  41.296  71.414  0.00  0.00    +0.000 C 
ATOM      2  C   UNL     1      53.659  40.891  71.453  0.00  0.00    +0.000 C 
ENDROOT
BRANCH   2   3
ATOM      3  N   UNL     1      54.928  40.436  71.497  0.00  0.00    +0.000 N 
ATOM      4  C   UNL     1      55.466  39.322  72.118  0.00  0.00    +0.000 C 
ATOM      5  O   UNL     1      54.869  38.608  72.918  0.00  0.00    +0.000 OA
BRANCH   4   6
ATOM      6  C   UNL     1      56.847  38.997  71.826  0.00  0.00    +0.000 C 
ATOM      7  C   UNL     1      57.988  38.721  71.571  0.00  0.00    +0.000 C 
BRANCH   7   8
ATOM      8  C   UNL     1      59.351  38.371  71.255  0.00  0.00    +0.000 C 
ATOM      9  O   UNL     1      59.792  37.298  71.639  0.00  0.00    +0.000 OA
ATOM     10  N   UNL     1      60.044  39.312  70.526  0.00  0.00    +0.000 N 
ATOM     11  H   UNL     1      59.534  40.150  70.280  0.00  0.00    +0.000 HD
BRANCH  10  12
ATOM     12  C   UNL     1      61.319  39.274  70.083  0.00  0.00    +0.000 C 
ATOM     13  C   UNL     1      62.451  39.237  69.686  0.00  0.00    +0.000 C 
BRANCH  13  14
ATOM     14  C   UNL     1      63.893  39.183  69.172  0.00  0.00    +0.000 C 
BRANCH  14  15
ATOM     15  C   UNL     1      65.337  39.132  68.666  0.00  0.00    +0.000 C 
ATOM     16  C   UNL     1      66.471  39.093  68.272  0.00  0.00    +0.000 C 
BRANCH  16  17
ATOM     17  N   UNL     1      67.744  39.045  67.836  0.00  0.00    +0.000 N 
ATOM     18  C   UNL     1      68.298  38.470  66.717  0.00  0.00    +0.000 C 
ATOM     19  O   UNL     1      67.770  37.847  65.813  0.00  0.00    +0.000 OA
ATOM     20  C   UNL     1      69.786  38.579  66.492  0.00  0.00    +0.000 C 
BRANCH  17  21
ATOM     21  O   UNL     1      68.581  39.728  68.757  0.00  0.00    +0.000 OA
ATOM     22  H   UNL     1      68.152  40.605  68.837  0.00  0.00    +0.000 HD
ENDBRANCH  17  21
ENDBRANCH  16  17
ENDBRANCH  14  15
ENDBRANCH  13  14
ENDBRANCH  10  12
ENDBRANCH   7   8
ENDBRANCH   4   6
BRANCH   3  23
ATOM     23  O   UNL     1      55.672  41.020  70.448  0.00  0.00    +0.000 OA
ATOM     24  H   UNL     1      56.578  40.736  70.671  0.00  0.00    +0.000 HD
ENDBRANCH   3  23
ENDBRANCH   2   3
BRANCH   1  25
ATOM     25  C   UNL     1      51.088  41.815  71.381  0.00  0.00    +0.000 C 
ATOM     26  C   UNL     1      49.963  42.227  71.342  0.00  0.00    +0.000 C 
BRANCH  26  27
ATOM     27  C   UNL     1      48.527  42.759  71.279  0.00  0.00    +0.000 C 
BRANCH  27  28
ATOM     28  N   UNL     1      47.255  43.212  71.231  0.00  0.00    +0.000 N 
ATOM     29  C   UNL     1      46.656  44.014  70.289  0.00  0.00    +0.000 C 
ATOM     30  O   UNL     1      47.197  44.472  69.293  0.00  0.00    +0.000 OA
ATOM     31  H   UNL     1      46.673  42.904  72.000  0.00  0.00    +0.000 HD
BRANCH  29  32
ATOM     32  C   UNL     1      45.267  44.316  70.531  0.00  0.00    +0.000 C 
ATOM     33  C   UNL     1      44.103  44.549  70.721  0.00  0.00    +0.000 C 
BRANCH  33  34
ATOM     34  C   UNL     1      42.697  44.806  70.949  0.00  0.00    +0.000 C 
ATOM     35  O   UNL     1      42.294  45.953  70.785  0.00  0.00    +0.000 OA
ATOM     36  N   UNL     1      41.915  43.745  71.374  0.00  0.00    +0.000 N 
BRANCH  36  37
ATOM     37  C   UNL     1      40.578  43.643  71.528  0.00  0.00    +0.000 C 
ATOM     38  C   UNL     1      39.389  43.555  71.661  0.00  0.00    +0.000 C 
BRANCH  38  39
ATOM     39  C   UNL     1      37.870  43.448  71.830  0.00  0.00    +0.000 C 
ATOM     40  C   UNL     1      36.681  43.365  71.968  0.00  0.00    +0.000 C 
BRANCH  40  41
ATOM     41  C   UNL     1      35.164  43.260  72.148  0.00  0.00    +0.000 C 
BRANCH  41  42
ATOM     42  N   UNL     1      33.724  43.160  72.319  0.00  0.00    +0.000 NA
ATOM     43  H   UNL     1      33.248  43.842  71.731  0.00  0.00    +0.000 HD
ATOM     44  H   UNL     1      33.393  42.246  72.014  0.00  0.00    +0.000 HD
ENDBRANCH  41  42
ENDBRANCH  40  41
ENDBRANCH  38  39
ENDBRANCH  36  37
BRANCH  36  45
ATOM     45  O   UNL     1      42.481  42.452  71.312  0.00  0.00    +0.000 OA
ATOM     46  H   UNL     1      41.683  41.892  71.288  0.00  0.00    +0.000 HD
ENDBRANCH  36  45
ENDBRANCH  33  34
ENDBRANCH  29  32
ENDBRANCH  27  28
ENDBRANCH  26  27
ENDBRANCH   1  25
TORSDOF 19
ENDMDL
MODEL 2
REMARK VINA RESULT:      -4.9      3.516     21.654
REMARK  Name = Deferoxamine.pdbqt.pdb
REMARK  19 active torsions:
REMARK  status: ('A' for Active; 'I' for Inactive)
REMARK    1  A    between atoms: C_1  and  C_2
REMARK    2  A    between atoms: C_3  and  C_4
REMARK    3  A    between atoms: C_4  and  N_5
REMARK    4  A    between atoms: C_6  and  C_9
REMARK    5  A    between atoms: C_10  and  C_11
REMARK    6  A    between atoms: N_13  and  O_14
REMARK    7  A    between atoms: N_13  and  C_16
REMARK    8  A    between atoms: C_17  and  C_18
REMARK    9  A    between atoms: C_19  and  C_20
REMARK   10  A    between atoms: C_20  and  N_21
REMARK   11  A    between atoms: C_24  and  N_25
REMARK   12  A    between atoms: N_25  and  O_28
REMARK   13  A    between atoms: C_26  and  C_30
REMARK   14  A    between atoms: C_31  and  C_32
REMARK   15  A    between atoms: N_34  and  C_36
REMARK   16  A    between atoms: C_37  and  C_38
REMARK   17  A    between atoms: C_38  and  C_39
REMARK   18  A    between atoms: C_40  and  N_41
REMARK   19  A    between atoms: N_41  and  O_45
REMARK                            x       y       z     vdW  Elec       q    Type
REMARK                         _______ _______ _______ _____ _____    ______ ____
ROOT
ATOM      1  C   UNL     1      53.855  40.187  70.226  0.00  0.00    +0.000 C 
ATOM      2  C   UNL     1      52.684  40.409  70.381  0.00  0.00    +0.000 C 
ENDROOT
BRANCH   2   3
ATOM      3  N   UNL     1      51.370  40.660  70.553  0.00  0.00    +0.000 N 
ATOM      4  C   UNL     1      50.727  41.692  71.214  0.00  0.00    +0.000 C 
ATOM      5  O   UNL     1      51.280  42.513  71.938  0.00  0.00    +0.000 OA
BRANCH   4   6
ATOM      6  C   UNL     1      49.290  41.786  71.065  0.00  0.00    +0.000 C 
ATOM      7  C   UNL     1      48.096  41.872  70.954  0.00  0.00    +0.000 C 
BRANCH   7   8
ATOM      8  C   UNL     1      46.662  41.974  70.843  0.00  0.00    +0.000 C 
ATOM      9  O   UNL     1      46.009  42.257  71.837  0.00  0.00    +0.000 OA
ATOM     10  N   UNL     1      46.153  41.735  69.587  0.00  0.00    +0.000 N 
ATOM     11  H   UNL     1      46.828  41.517  68.865  0.00  0.00    +0.000 HD
BRANCH  10  12
ATOM     12  C   UNL     1      44.867  41.754  69.172  0.00  0.00    +0.000 C 
ATOM     13  C   UNL     1      43.724  41.770  68.808  0.00  0.00    +0.000 C 
BRANCH  13  14
ATOM     14  C   UNL     1      42.261  41.790  68.354  0.00  0.00    +0.000 C 
BRANCH  14  15
ATOM     15  C   UNL     1      40.799  41.801  67.900  0.00  0.00    +0.000 C 
ATOM     16  C   UNL     1      39.651  41.808  67.547  0.00  0.00    +0.000 C 
BRANCH  16  17
ATOM     17  N   UNL     1      38.362  41.818  67.157  0.00  0.00    +0.000 N 
ATOM     18  C   UNL     1      37.771  41.455  65.970  0.00  0.00    +0.000 C 
ATOM     19  O   UNL     1      38.270  41.019  64.947  0.00  0.00    +0.000 OA
ATOM     20  C   UNL     1      36.275  41.582  65.822  0.00  0.00    +0.000 C 
BRANCH  17  21
ATOM     21  O   UNL     1      37.555  42.305  68.218  0.00  0.00    +0.000 OA
ATOM     22  H   UNL     1      38.071  43.066  68.557  0.00  0.00    +0.000 HD
ENDBRANCH  17  21
ENDBRANCH  16  17
ENDBRANCH  14  15
ENDBRANCH  13  14
ENDBRANCH  10  12
ENDBRANCH   7   8
ENDBRANCH   4   6
BRANCH   3  23
ATOM     23  O   UNL     1      50.626  39.935  69.595  0.00  0.00    +0.000 OA
ATOM     24  H   UNL     1      51.197  39.158  69.453  0.00  0.00    +0.000 HD
ENDBRANCH   3  23
ENDBRANCH   2   3
BRANCH   1  25
ATOM     25  C   UNL     1      55.349  39.919  70.027  0.00  0.00    +0.000 C 
ATOM     26  C   UNL     1      56.523  39.723  69.874  0.00  0.00    +0.000 C 
BRANCH  26  27
ATOM     27  C   UNL     1      58.024  39.485  69.683  0.00  0.00    +0.000 C 
BRANCH  27  28
ATOM     28  N   UNL     1      59.345  39.273  69.497  0.00  0.00    +0.000 N 
ATOM     29  C   UNL     1      60.413  39.824  70.164  0.00  0.00    +0.000 C 
ATOM     30  O   UNL     1      60.345  40.633  71.078  0.00  0.00    +0.000 OA
ATOM     31  H   UNL     1      59.562  38.609  68.764  0.00  0.00    +0.000 HD
BRANCH  29  32
ATOM     32  C   UNL     1      61.712  39.381  69.720  0.00  0.00    +0.000 C 
ATOM     33  C   UNL     1      62.784  38.992  69.342  0.00  0.00    +0.000 C 
BRANCH  33  34
ATOM     34  C   UNL     1      64.066  38.511  68.870  0.00  0.00    +0.000 C 
ATOM     35  O   UNL     1      64.138  37.340  68.511  0.00  0.00    +0.000 OA
ATOM     36  N   UNL     1      65.129  39.399  68.894  0.00  0.00    +0.000 N 
BRANCH  36  37
ATOM     37  C   UNL     1      66.378  39.289  68.396  0.00  0.00    +0.000 C 
ATOM     38  C   UNL     1      67.488  39.191  67.951  0.00  0.00    +0.000 C 
BRANCH  38  39
ATOM     39  C   UNL     1      68.903  39.059  67.378  0.00  0.00    +0.000 C 
ATOM     40  C   UNL     1      70.011  38.951  66.930  0.00  0.00    +0.000 C 
BRANCH  40  41
ATOM     41  C   UNL     1      71.423  38.808  66.356  0.00  0.00    +0.000 C 
BRANCH  41  42
ATOM     42  N   UNL     1      72.764  38.673  65.812  0.00  0.00    +0.000 NA
ATOM     43  H   UNL     1      72.834  37.830  65.244  0.00  0.00    +0.000 HD
ATOM     44  H   UNL     1      72.976  39.451  65.189  0.00  0.00    +0.000 HD
ENDBRANCH  41  42
ENDBRANCH  40  41
ENDBRANCH  38  39
ENDBRANCH  36  37
BRANCH  36  45
ATOM     45  O   UNL     1      64.836  40.760  69.134  0.00  0.00    +0.000 OA
ATOM     46  H   UNL     1      65.731  41.142  69.200  0.00  0.00    +0.000 HD
ENDBRANCH  36  45
ENDBRANCH  33  34
ENDBRANCH  29  32
ENDBRANCH  27  28
ENDBRANCH  26  27
ENDBRANCH   1  25
TORSDOF 19
ENDMDL
MODEL 3
REMARK VINA RESULT:      -4.9     13.150     22.782
REMARK  Name = Deferoxamine.pdbqt.pdb
REMARK  19 active torsions:
REMARK  status: ('A' for Active; 'I' for Inactive)
REMARK    1  A    between atoms: C_1  and  C_2
REMARK    2  A    between atoms: C_3  and  C_4
REMARK    3  A    between atoms: C_4  and  N_5
REMARK    4  A    between atoms: C_6  and  C_9
REMARK    5  A    between atoms: C_10  and  C_11
REMARK    6  A    between atoms: N_13  and  O_14
REMARK    7  A    between atoms: N_13  and  C_16
REMARK    8  A    between atoms: C_17  and  C_18
REMARK    9  A    between atoms: C_19  and  C_20
REMARK   10  A    between atoms: C_20  and  N_21
REMARK   11  A    between atoms: C_24  and  N_25
REMARK   12  A    between atoms: N_25  and  O_28
REMARK   13  A    between atoms: C_26  and  C_30
REMARK   14  A    between atoms: C_31  and  C_32
REMARK   15  A    between atoms: N_34  and  C_36
REMARK   16  A    between atoms: C_37  and  C_38
REMARK   17  A    between atoms: C_38  and  C_39
REMARK   18  A    between atoms: C_40  and  N_41
REMARK   19  A    between atoms: N_41  and  O_45
REMARK                            x       y       z     vdW  Elec       q    Type
REMARK                         _______ _______ _______ _____ _____    ______ ____
ROOT
ATOM      1  C   UNL     1      49.059  36.041  61.459  0.00  0.00    +0.000 C 
ATOM      2  C   UNL     1      48.320  36.488  62.294  0.00  0.00    +0.000 C 
ENDROOT
BRANCH   2   3
ATOM      3  N   UNL     1      47.490  36.992  63.231  0.00  0.00    +0.000 N 
ATOM      4  C   UNL     1      47.702  37.263  64.572  0.00  0.00    +0.000 C 
ATOM      5  O   UNL     1      48.689  36.914  65.210  0.00  0.00    +0.000 OA
BRANCH   4   6
ATOM      6  C   UNL     1      46.661  37.981  65.279  0.00  0.00    +0.000 C 
ATOM      7  C   UNL     1      45.795  38.583  65.854  0.00  0.00    +0.000 C 
BRANCH   7   8
ATOM      8  C   UNL     1      44.758  39.323  66.530  0.00  0.00    +0.000 C 
ATOM      9  O   UNL     1      43.590  39.011  66.346  0.00  0.00    +0.000 OA
ATOM     10  N   UNL     1      45.201  40.343  67.342  0.00  0.00    +0.000 N 
ATOM     11  H   UNL     1      46.204  40.471  67.392  0.00  0.00    +0.000 HD
BRANCH  10  12
ATOM     12  C   UNL     1      44.482  41.203  68.096  0.00  0.00    +0.000 C 
ATOM     13  C   UNL     1      43.843  41.963  68.770  0.00  0.00    +0.000 C 
BRANCH  13  14
ATOM     14  C   UNL     1      43.027  42.927  69.637  0.00  0.00    +0.000 C 
BRANCH  14  15
ATOM     15  C   UNL     1      42.211  43.884  70.510  0.00  0.00    +0.000 C 
ATOM     16  C   UNL     1      41.573  44.635  71.195  0.00  0.00    +0.000 C 
BRANCH  16  17
ATOM     17  N   UNL     1      40.862  45.483  71.964  0.00  0.00    +0.000 N 
ATOM     18  C   UNL     1      39.959  45.251  72.973  0.00  0.00    +0.000 C 
ATOM     19  O   UNL     1      39.563  44.199  73.445  0.00  0.00    +0.000 OA
ATOM     20  C   UNL     1      39.307  46.423  73.663  0.00  0.00    +0.000 C 
BRANCH  17  21
ATOM     21  O   UNL     1      41.163  46.819  71.589  0.00  0.00    +0.000 OA
ATOM     22  H   UNL     1      41.062  47.312  72.429  0.00  0.00    +0.000 HD
ENDBRANCH  17  21
ENDBRANCH  16  17
ENDBRANCH  14  15
ENDBRANCH  13  14
ENDBRANCH  10  12
ENDBRANCH   7   8
ENDBRANCH   4   6
BRANCH   3  23
ATOM     23  O   UNL     1      46.408  37.643  62.597  0.00  0.00    +0.000 OA
ATOM     24  H   UNL     1      46.459  37.272  61.697  0.00  0.00    +0.000 HD
ENDBRANCH   3  23
ENDBRANCH   2   3
BRANCH   1  25
ATOM     25  C   UNL     1      50.012  35.481  60.400  0.00  0.00    +0.000 C 
ATOM     26  C   UNL     1      50.769  35.042  59.579  0.00  0.00    +0.000 C 
BRANCH  26  27
ATOM     27  C   UNL     1      51.746  34.480  58.541  0.00  0.00    +0.000 C 
BRANCH  27  28
ATOM     28  N   UNL     1      52.593  33.975  57.618  0.00  0.00    +0.000 N 
ATOM     29  C   UNL     1      52.316  33.486  56.363  0.00  0.00    +0.000 C 
ATOM     30  O   UNL     1      51.209  33.423  55.849  0.00  0.00    +0.000 OA
ATOM     31  H   UNL     1      53.564  33.969  57.903  0.00  0.00    +0.000 HD
BRANCH  29  32
ATOM     32  C   UNL     1      53.460  33.019  55.618  0.00  0.00    +0.000 C 
ATOM     33  C   UNL     1      54.401  32.634  54.978  0.00  0.00    +0.000 C 
BRANCH  33  34
ATOM     34  C   UNL     1      55.529  32.184  54.189  0.00  0.00    +0.000 C 
ATOM     35  O   UNL     1      56.014  31.090  54.460  0.00  0.00    +0.000 OA
ATOM     36  N   UNL     1      56.003  33.040  53.209  0.00  0.00    +0.000 N 
BRANCH  36  37
ATOM     37  C   UNL     1      56.924  32.846  52.242  0.00  0.00    +0.000 C 
ATOM     38  C   UNL     1      57.742  32.675  51.380  0.00  0.00    +0.000 C 
BRANCH  38  39
ATOM     39  C   UNL     1      58.780  32.456  50.275  0.00  0.00    +0.000 C 
ATOM     40  C   UNL     1      59.595  32.280  49.413  0.00  0.00    +0.000 C 
BRANCH  40  41
ATOM     41  C   UNL     1      60.637  32.053  48.314  0.00  0.00    +0.000 C 
BRANCH  41  42
ATOM     42  N   UNL     1      61.627  31.838  47.271  0.00  0.00    +0.000 NA
ATOM     43  H   UNL     1      61.411  32.406  46.454  0.00  0.00    +0.000 HD
ATOM     44  H   UNL     1      62.548  32.137  47.587  0.00  0.00    +0.000 HD
ENDBRANCH  41  42
ENDBRANCH  40  41
ENDBRANCH  38  39
ENDBRANCH  36  37
BRANCH  36  45
ATOM     45  O   UNL     1      55.209  34.163  52.883  0.00  0.00    +0.000 OA
ATOM     46  H   UNL     1      55.642  34.476  52.068  0.00  0.00    +0.000 HD
ENDBRANCH  36  45
ENDBRANCH  33  34
ENDBRANCH  29  32
ENDBRANCH  27  28
ENDBRANCH  26  27
ENDBRANCH   1  25
TORSDOF 19
ENDMDL
MODEL 4
REMARK VINA RESULT:      -4.9     22.212     28.257
REMARK  Name = Deferoxamine.pdbqt.pdb
REMARK  19 active torsions:
REMARK  status: ('A' for Active; 'I' for Inactive)
REMARK    1  A    between atoms: C_1  and  C_2
REMARK    2  A    between atoms: C_3  and  C_4
REMARK    3  A    between atoms: C_4  and  N_5
REMARK    4  A    between atoms: C_6  and  C_9
REMARK    5  A    between atoms: C_10  and  C_11
REMARK    6  A    between atoms: N_13  and  O_14
REMARK    7  A    between atoms: N_13  and  C_16
REMARK    8  A    between atoms: C_17  and  C_18
REMARK    9  A    between atoms: C_19  and  C_20
REMARK   10  A    between atoms: C_20  and  N_21
REMARK   11  A    between atoms: C_24  and  N_25
REMARK   12  A    between atoms: N_25  and  O_28
REMARK   13  A    between atoms: C_26  and  C_30
REMARK   14  A    between atoms: C_31  and  C_32
REMARK   15  A    between atoms: N_34  and  C_36
REMARK   16  A    between atoms: C_37  and  C_38
REMARK   17  A    between atoms: C_38  and  C_39
REMARK   18  A    between atoms: C_40  and  N_41
REMARK   19  A    between atoms: N_41  and  O_45
REMARK                            x       y       z     vdW  Elec       q    Type
REMARK                         _______ _______ _______ _____ _____    ______ ____
ROOT
ATOM      1  C   UNL     1      70.150  53.740  63.692  0.00  0.00    +0.000 C 
ATOM      2  C   UNL     1      69.972  54.873  64.049  0.00  0.00    +0.000 C 
ENDROOT
BRANCH   2   3
ATOM      3  N   UNL     1      69.770  56.145  64.451  0.00  0.00    +0.000 N 
ATOM      4  C   UNL     1      69.909  56.730  65.697  0.00  0.00    +0.000 C 
ATOM      5  O   UNL     1      70.091  56.116  66.744  0.00  0.00    +0.000 OA
BRANCH   4   6
ATOM      6  C   UNL     1      69.796  58.172  65.774  0.00  0.00    +0.000 C 
ATOM      7  C   UNL     1      69.695  59.367  65.849  0.00  0.00    +0.000 C 
BRANCH   7   8
ATOM      8  C   UNL     1      69.552  60.799  65.949  0.00  0.00    +0.000 C 
ATOM      9  O   UNL     1      70.509  61.466  66.313  0.00  0.00    +0.000 OA
ATOM     10  N   UNL     1      68.310  61.289  65.613  0.00  0.00    +0.000 N 
ATOM     11  H   UNL     1      67.622  60.604  65.325  0.00  0.00    +0.000 HD
BRANCH  10  12
ATOM     12  C   UNL     1      67.873  62.567  65.607  0.00  0.00    +0.000 C 
ATOM     13  C   UNL     1      67.482  63.701  65.606  0.00  0.00    +0.000 C 
BRANCH  13  14
ATOM     14  C   UNL     1      66.982  65.149  65.615  0.00  0.00    +0.000 C 
BRANCH  14  15
ATOM     15  C   UNL     1      66.487  66.598  65.617  0.00  0.00    +0.000 C 
ATOM     16  C   UNL     1      66.098  67.734  65.618  0.00  0.00    +0.000 C 
BRANCH  16  17
ATOM     17  N   UNL     1      65.654  69.006  65.617  0.00  0.00    +0.000 N 
ATOM     18  C   UNL     1      65.105  69.775  66.616  0.00  0.00    +0.000 C 
ATOM     19  O   UNL     1      64.877  69.501  67.781  0.00  0.00    +0.000 OA
ATOM     20  C   UNL     1      64.691  71.193  66.310  0.00  0.00    +0.000 C 
BRANCH  17  21
ATOM     21  O   UNL     1      65.820  69.559  64.321  0.00  0.00    +0.000 OA
ATOM     22  H   UNL     1      66.492  68.974  63.914  0.00  0.00    +0.000 HD
ENDBRANCH  17  21
ENDBRANCH  16  17
ENDBRANCH  14  15
ENDBRANCH  13  14
ENDBRANCH  10  12
ENDBRANCH   7   8
ENDBRANCH   4   6
BRANCH   3  23
ATOM     23  O   UNL     1      69.779  56.999  63.325  0.00  0.00    +0.000 OA
ATOM     24  H   UNL     1      70.327  57.738  63.647  0.00  0.00    +0.000 HD
ENDBRANCH   3  23
ENDBRANCH   2   3
BRANCH   1  25
ATOM     25  C   UNL     1      70.363  52.296  63.230  0.00  0.00    +0.000 C 
ATOM     26  C   UNL     1      70.516  51.161  62.874  0.00  0.00    +0.000 C 
BRANCH  26  27
ATOM     27  C   UNL     1      70.700  49.708  62.422  0.00  0.00    +0.000 C 
BRANCH  27  28
ATOM     28  N   UNL     1      70.849  48.422  62.036  0.00  0.00    +0.000 N 
ATOM     29  C   UNL     1      71.442  47.922  60.902  0.00  0.00    +0.000 C 
ATOM     30  O   UNL     1      71.957  48.584  60.012  0.00  0.00    +0.000 OA
ATOM     31  H   UNL     1      70.471  47.745  62.687  0.00  0.00    +0.000 HD
BRANCH  29  32
ATOM     32  C   UNL     1      71.439  46.483  60.788  0.00  0.00    +0.000 C 
ATOM     33  C   UNL     1      71.412  45.286  60.697  0.00  0.00    +0.000 C 
BRANCH  33  34
ATOM     34  C   UNL     1      71.359  43.843  60.579  0.00  0.00    +0.000 C 
ATOM     35  O   UNL     1      72.006  43.321  59.677  0.00  0.00    +0.000 OA
ATOM     36  N   UNL     1      70.551  43.159  61.472  0.00  0.00    +0.000 N 
BRANCH  36  37
ATOM     37  C   UNL     1      70.411  41.837  61.698  0.00  0.00    +0.000 C 
ATOM     38  C   UNL     1      70.284  40.660  61.898  0.00  0.00    +0.000 C 
BRANCH  38  39
ATOM     39  C   UNL     1      70.116  39.160  62.159  0.00  0.00    +0.000 C 
ATOM     40  C   UNL     1      69.989  37.985  62.366  0.00  0.00    +0.000 C 
BRANCH  40  41
ATOM     41  C   UNL     1      69.831  36.486  62.632  0.00  0.00    +0.000 C 
BRANCH  41  42
ATOM     42  N   UNL     1      69.679  35.062  62.885  0.00  0.00    +0.000 NA
ATOM     43  H   UNL     1      69.044  34.905  63.666  0.00  0.00    +0.000 HD
ATOM     44  H   UNL     1      69.256  34.601  62.081  0.00  0.00    +0.000 HD
ENDBRANCH  41  42
ENDBRANCH  40  41
ENDBRANCH  38  39
ENDBRANCH  36  37
BRANCH  36  45
ATOM     45  O   UNL     1      70.042  43.881  62.576  0.00  0.00    +0.000 OA
ATOM     46  H   UNL     1      70.830  44.379  62.861  0.00  0.00    +0.000 HD
ENDBRANCH  36  45
ENDBRANCH  33  34
ENDBRANCH  29  32
ENDBRANCH  27  28
ENDBRANCH  26  27
ENDBRANCH   1  25
TORSDOF 19
ENDMDL
MODEL 5
REMARK VINA RESULT:      -4.9      2.795     21.796
REMARK  Name = Deferoxamine.pdbqt.pdb
REMARK  19 active torsions:
REMARK  status: ('A' for Active; 'I' for Inactive)
REMARK    1  A    between atoms: C_1  and  C_2
REMARK    2  A    between atoms: C_3  and  C_4
REMARK    3  A    between atoms: C_4  and  N_5
REMARK    4  A    between atoms: C_6  and  C_9
REMARK    5  A    between atoms: C_10  and  C_11
REMARK    6  A    between atoms: N_13  and  O_14
REMARK    7  A    between atoms: N_13  and  C_16
REMARK    8  A    between atoms: C_17  and  C_18
REMARK    9  A    between atoms: C_19  and  C_20
REMARK   10  A    between atoms: C_20  and  N_21
REMARK   11  A    between atoms: C_24  and  N_25
REMARK   12  A    between atoms: N_25  and  O_28
REMARK   13  A    between atoms: C_26  and  C_30
REMARK   14  A    between atoms: C_31  and  C_32
REMARK   15  A    between atoms: N_34  and  C_36
REMARK   16  A    between atoms: C_37  and  C_38
REMARK   17  A    between atoms: C_38  and  C_39
REMARK   18  A    between atoms: C_40  and  N_41
REMARK   19  A    between atoms: N_41  and  O_45
REMARK                            x       y       z     vdW  Elec       q    Type
REMARK                         _______ _______ _______ _____ _____    ______ ____
ROOT
ATOM      1  C   UNL     1      56.216  39.916  71.187  0.00  0.00    +0.000 C 
ATOM      2  C   UNL     1      55.076  40.075  71.532  0.00  0.00    +0.000 C 
ENDROOT
BRANCH   2   3
ATOM      3  N   UNL     1      53.796  40.254  71.917  0.00  0.00    +0.000 N 
ATOM      4  C   UNL     1      53.217  41.240  72.697  0.00  0.00    +0.000 C 
ATOM      5  O   UNL     1      53.839  42.077  73.344  0.00  0.00    +0.000 OA
BRANCH   4   6
ATOM      6  C   UNL     1      51.772  41.262  72.781  0.00  0.00    +0.000 C 
ATOM      7  C   UNL     1      50.573  41.268  72.860  0.00  0.00    +0.000 C 
BRANCH   7   8
ATOM      8  C   UNL     1      49.134  41.252  72.954  0.00  0.00    +0.000 C 
ATOM      9  O   UNL     1      48.593  40.390  73.632  0.00  0.00    +0.000 OA
ATOM     10  N   UNL     1      48.489  42.242  72.248  0.00  0.00    +0.000 N 
ATOM     11  H   UNL     1      49.081  42.885  71.738  0.00  0.00    +0.000 HD
BRANCH  10  12
ATOM     12  C   UNL     1      47.165  42.486  72.140  0.00  0.00    +0.000 C 
ATOM     13  C   UNL     1      45.988  42.698  72.043  0.00  0.00    +0.000 C 
BRANCH  13  14
ATOM     14  C   UNL     1      44.483  42.958  71.920  0.00  0.00    +0.000 C 
BRANCH  14  15
ATOM     15  C   UNL     1      42.981  43.225  71.791  0.00  0.00    +0.000 C 
ATOM     16  C   UNL     1      41.803  43.436  71.688  0.00  0.00    +0.000 C 
BRANCH  16  17
ATOM     17  N   UNL     1      40.483  43.672  71.565  0.00  0.00    +0.000 N 
ATOM     18  C   UNL     1      39.620  44.418  72.333  0.00  0.00    +0.000 C 
ATOM     19  O   UNL     1      39.831  45.072  73.339  0.00  0.00    +0.000 OA
ATOM     20  C   UNL     1      38.165  44.494  71.942  0.00  0.00    +0.000 C 
BRANCH  17  21
ATOM     21  O   UNL     1      39.989  42.990  70.423  0.00  0.00    +0.000 OA
ATOM     22  H   UNL     1      39.149  43.455  70.233  0.00  0.00    +0.000 HD
ENDBRANCH  17  21
ENDBRANCH  16  17
ENDBRANCH  14  15
ENDBRANCH  13  14
ENDBRANCH  10  12
ENDBRANCH   7   8
ENDBRANCH   4   6
BRANCH   3  23
ATOM     23  O   UNL     1      52.944  39.507  71.073  0.00  0.00    +0.000 OA
ATOM     24  H   UNL     1      52.075  39.661  71.489  0.00  0.00    +0.000 HD
ENDBRANCH   3  23
ENDBRANCH   2   3
BRANCH   1  25
ATOM     25  C   UNL     1      57.666  39.722  70.735  0.00  0.00    +0.000 C 
ATOM     26  C   UNL     1      58.802  39.558  70.388  0.00  0.00    +0.000 C 
BRANCH  26  27
ATOM     27  C   UNL     1      60.255  39.337  69.953  0.00  0.00    +0.000 C 
BRANCH  27  28
ATOM     28  N   UNL     1      61.540  39.142  69.586  0.00  0.00    +0.000 N 
ATOM     29  C   UNL     1      62.565  40.055  69.506  0.00  0.00    +0.000 C 
ATOM     30  O   UNL     1      62.483  41.247  69.762  0.00  0.00    +0.000 OA
ATOM     31  H   UNL     1      61.766  38.185  69.348  0.00  0.00    +0.000 HD
BRANCH  29  32
ATOM     32  C   UNL     1      63.835  39.518  69.079  0.00  0.00    +0.000 C 
ATOM     33  C   UNL     1      64.903  39.087  68.738  0.00  0.00    +0.000 C 
BRANCH  33  34
ATOM     34  C   UNL     1      66.200  38.573  68.348  0.00  0.00    +0.000 C 
ATOM     35  O   UNL     1      67.185  39.002  68.940  0.00  0.00    +0.000 OA
ATOM     36  N   UNL     1      66.237  37.660  67.307  0.00  0.00    +0.000 N 
BRANCH  36  37
ATOM     37  C   UNL     1      67.254  36.915  66.826  0.00  0.00    +0.000 C 
ATOM     38  C   UNL     1      68.156  36.249  66.399  0.00  0.00    +0.000 C 
BRANCH  38  39
ATOM     39  C   UNL     1      69.306  35.394  65.858  0.00  0.00    +0.000 C 
ATOM     40  C   UNL     1      70.204  34.719  65.436  0.00  0.00    +0.000 C 
BRANCH  40  41
ATOM     41  C   UNL     1      71.349  33.855  64.899  0.00  0.00    +0.000 C 
BRANCH  41  42
ATOM     42  N   UNL     1      72.435  33.036  64.388  0.00  0.00    +0.000 NA
ATOM     43  H   UNL     1      72.081  32.138  64.064  0.00  0.00    +0.000 HD
ATOM     44  H   UNL     1      72.864  33.479  63.577  0.00  0.00    +0.000 HD
ENDBRANCH  41  42
ENDBRANCH  40  41
ENDBRANCH  38  39
ENDBRANCH  36  37
BRANCH  36  45
ATOM     45  O   UNL     1      65.007  37.113  66.875  0.00  0.00    +0.000 OA
ATOM     46  H   UNL     1      65.273  36.207  66.633  0.00  0.00    +0.000 HD
ENDBRANCH  36  45
ENDBRANCH  33  34
ENDBRANCH  29  32
ENDBRANCH  27  28
ENDBRANCH  26  27
ENDBRANCH   1  25
TORSDOF 19
ENDMDL
MODEL 6
REMARK VINA RESULT:      -4.7     19.045     21.507
REMARK  Name = Deferoxamine.pdbqt.pdb
REMARK  19 active torsions:
REMARK  status: ('A' for Active; 'I' for Inactive)
REMARK    1  A    between atoms: C_1  and  C_2
REMARK    2  A    between atoms: C_3  and  C_4
REMARK    3  A    between atoms: C_4  and  N_5
REMARK    4  A    between atoms: C_6  and  C_9
REMARK    5  A    between atoms: C_10  and  C_11
REMARK    6  A    between atoms: N_13  and  O_14
REMARK    7  A    between atoms: N_13  and  C_16
REMARK    8  A    between atoms: C_17  and  C_18
REMARK    9  A    between atoms: C_19  and  C_20
REMARK   10  A    between atoms: C_20  and  N_21
REMARK   11  A    between atoms: C_24  and  N_25
REMARK   12  A    between atoms: N_25  and  O_28
REMARK   13  A    between atoms: C_26  and  C_30
REMARK   14  A    between atoms: C_31  and  C_32
REMARK   15  A    between atoms: N_34  and  C_36
REMARK   16  A    between atoms: C_37  and  C_38
REMARK   17  A    between atoms: C_38  and  C_39
REMARK   18  A    between atoms: C_40  and  N_41
REMARK   19  A    between atoms: N_41  and  O_45
REMARK                            x       y       z     vdW  Elec       q    Type
REMARK                         _______ _______ _______ _____ _____    ______ ____
ROOT
ATOM      1  C   UNL     1      48.484  56.457  63.161  0.00  0.00    +0.000 C 
ATOM      2  C   UNL     1      48.947  57.356  63.810  0.00  0.00    +0.000 C 
ENDROOT
BRANCH   2   3
ATOM      3  N   UNL     1      49.465  58.366  64.538  0.00  0.00    +0.000 N 
ATOM      4  C   UNL     1      49.260  58.725  65.859  0.00  0.00    +0.000 C 
ATOM      5  O   UNL     1      48.392  58.254  66.587  0.00  0.00    +0.000 OA
BRANCH   4   6
ATOM      6  C   UNL     1      50.111  59.759  66.410  0.00  0.00    +0.000 C 
ATOM      7  C   UNL     1      50.806  60.625  66.869  0.00  0.00    +0.000 C 
BRANCH   7   8
ATOM      8  C   UNL     1      51.626  61.681  67.411  0.00  0.00    +0.000 C 
ATOM      9  O   UNL     1      51.086  62.611  67.992  0.00  0.00    +0.000 OA
ATOM     10  N   UNL     1      52.980  61.531  67.214  0.00  0.00    +0.000 N 
ATOM     11  H   UNL     1      53.270  60.699  66.716  0.00  0.00    +0.000 HD
BRANCH  10  12
ATOM     12  C   UNL     1      53.990  62.341  67.598  0.00  0.00    +0.000 C 
ATOM     13  C   UNL     1      54.887  63.059  67.945  0.00  0.00    +0.000 C 
BRANCH  13  14
ATOM     14  C   UNL     1      56.031  63.972  68.397  0.00  0.00    +0.000 C 
BRANCH  14  15
ATOM     15  C   UNL     1      57.179  64.878  68.852  0.00  0.00    +0.000 C 
ATOM     16  C   UNL     1      58.078  65.589  69.207  0.00  0.00    +0.000 C 
BRANCH  16  17
ATOM     17  N   UNL     1      59.084  66.393  69.602  0.00  0.00    +0.000 N 
ATOM     18  C   UNL     1      59.077  67.669  70.116  0.00  0.00    +0.000 C 
ATOM     19  O   UNL     1      58.142  68.413  70.354  0.00  0.00    +0.000 OA
ATOM     20  C   UNL     1      60.387  68.328  70.469  0.00  0.00    +0.000 C 
BRANCH  17  21
ATOM     21  O   UNL     1      60.321  65.723  69.414  0.00  0.00    +0.000 OA
ATOM     22  H   UNL     1      60.061  64.779  69.398  0.00  0.00    +0.000 HD
ENDBRANCH  17  21
ENDBRANCH  16  17
ENDBRANCH  14  15
ENDBRANCH  13  14
ENDBRANCH  10  12
ENDBRANCH   7   8
ENDBRANCH   4   6
BRANCH   3  23
ATOM     23  O   UNL     1      50.635  58.846  63.907  0.00  0.00    +0.000 OA
ATOM     24  H   UNL     1      50.315  59.004  63.000  0.00  0.00    +0.000 HD
ENDBRANCH   3  23
ENDBRANCH   2   3
BRANCH   1  25
ATOM     25  C   UNL     1      47.903  55.317  62.321  0.00  0.00    +0.000 C 
ATOM     26  C   UNL     1      47.459  54.424  61.654  0.00  0.00    +0.000 C 
BRANCH  26  27
ATOM     27  C   UNL     1      46.903  53.285  60.793  0.00  0.00    +0.000 C 
BRANCH  27  28
ATOM     28  N   UNL     1      46.401  52.276  60.049  0.00  0.00    +0.000 N 
ATOM     29  C   UNL     1      47.028  51.139  59.595  0.00  0.00    +0.000 C 
ATOM     30  O   UNL     1      48.195  50.838  59.796  0.00  0.00    +0.000 OA
ATOM     31  H   UNL     1      45.425  52.383  59.805  0.00  0.00    +0.000 HD
BRANCH  29  32
ATOM     32  C   UNL     1      46.201  50.249  58.817  0.00  0.00    +0.000 C 
ATOM     33  C   UNL     1      45.531  49.503  58.155  0.00  0.00    +0.000 C 
BRANCH  33  34
ATOM     34  C   UNL     1      44.742  48.590  57.353  0.00  0.00    +0.000 C 
ATOM     35  O   UNL     1      43.574  48.892  57.132  0.00  0.00    +0.000 OA
ATOM     36  N   UNL     1      45.354  47.424  56.926  0.00  0.00    +0.000 N 
BRANCH  36  37
ATOM     37  C   UNL     1      44.933  46.473  56.066  0.00  0.00    +0.000 C 
ATOM     38  C   UNL     1      44.558  45.630  55.299  0.00  0.00    +0.000 C 
BRANCH  38  39
ATOM     39  C   UNL     1      44.076  44.558  54.317  0.00  0.00    +0.000 C 
ATOM     40  C   UNL     1      43.701  43.715  53.550  0.00  0.00    +0.000 C 
BRANCH  40  41
ATOM     41  C   UNL     1      43.225  42.636  52.574  0.00  0.00    +0.000 C 
BRANCH  41  42
ATOM     42  N   UNL     1      42.772  41.611  51.647  0.00  0.00    +0.000 NA
ATOM     43  H   UNL     1      41.936  41.922  51.154  0.00  0.00    +0.000 HD
ATOM     44  H   UNL     1      43.476  41.444  50.930  0.00  0.00    +0.000 HD
ENDBRANCH  41  42
ENDBRANCH  40  41
ENDBRANCH  38  39
ENDBRANCH  36  37
BRANCH  36  45
ATOM     45  O   UNL     1      46.755  47.326  57.085  0.00  0.00    +0.000 OA
ATOM     46  H   UNL     1      46.854  46.398  57.365  0.00  0.00    +0.000 HD
ENDBRANCH  36  45
ENDBRANCH  33  34
ENDBRANCH  29  32
ENDBRANCH  27  28
ENDBRANCH  26  27
ENDBRANCH   1  25
TORSDOF 19
ENDMDL
MODEL 7
REMARK VINA RESULT:      -4.7      2.660     22.018
REMARK  Name = Deferoxamine.pdbqt.pdb
REMARK  19 active torsions:
REMARK  status: ('A' for Active; 'I' for Inactive)
REMARK    1  A    between atoms: C_1  and  C_2
REMARK    2  A    between atoms: C_3  and  C_4
REMARK    3  A    between atoms: C_4  and  N_5
REMARK    4  A    between atoms: C_6  and  C_9
REMARK    5  A    between atoms: C_10  and  C_11
REMARK    6  A    between atoms: N_13  and  O_14
REMARK    7  A    between atoms: N_13  and  C_16
REMARK    8  A    between atoms: C_17  and  C_18
REMARK    9  A    between atoms: C_19  and  C_20
REMARK   10  A    between atoms: C_20  and  N_21
REMARK   11  A    between atoms: C_24  and  N_25
REMARK   12  A    between atoms: N_25  and  O_28
REMARK   13  A    between atoms: C_26  and  C_30
REMARK   14  A    between atoms: C_31  and  C_32
REMARK   15  A    between atoms: N_34  and  C_36
REMARK   16  A    between atoms: C_37  and  C_38
REMARK   17  A    between atoms: C_38  and  C_39
REMARK   18  A    between atoms: C_40  and  N_41
REMARK   19  A    between atoms: N_41  and  O_45
REMARK                            x       y       z     vdW  Elec       q    Type
REMARK                         _______ _______ _______ _____ _____    ______ ____
ROOT
ATOM      1  C   UNL     1      54.014  40.250  70.490  0.00  0.00    +0.000 C 
ATOM      2  C   UNL     1      52.860  40.471  70.740  0.00  0.00    +0.000 C 
ENDROOT
BRANCH   2   3
ATOM      3  N   UNL     1      51.564  40.721  71.020  0.00  0.00    +0.000 N 
ATOM      4  C   UNL     1      50.889  41.919  71.179  0.00  0.00    +0.000 C 
ATOM      5  O   UNL     1      51.425  43.019  71.259  0.00  0.00    +0.000 OA
BRANCH   4   6
ATOM      6  C   UNL     1      49.447  41.862  71.293  0.00  0.00    +0.000 C 
ATOM      7  C   UNL     1      48.251  41.805  71.398  0.00  0.00    +0.000 C 
BRANCH   7   8
ATOM      8  C   UNL     1      46.818  41.715  71.531  0.00  0.00    +0.000 C 
ATOM      9  O   UNL     1      46.310  40.624  71.743  0.00  0.00    +0.000 OA
ATOM     10  N   UNL     1      46.141  42.907  71.402  0.00  0.00    +0.000 N 
ATOM     11  H   UNL     1      46.709  43.727  71.232  0.00  0.00    +0.000 HD
BRANCH  10  12
ATOM     12  C   UNL     1      44.813  43.144  71.475  0.00  0.00    +0.000 C 
ATOM     13  C   UNL     1      43.633  43.348  71.539  0.00  0.00    +0.000 C 
BRANCH  13  14
ATOM     14  C   UNL     1      42.124  43.600  71.622  0.00  0.00    +0.000 C 
BRANCH  14  15
ATOM     15  C   UNL     1      40.615  43.848  71.697  0.00  0.00    +0.000 C 
ATOM     16  C   UNL     1      39.431  44.039  71.757  0.00  0.00    +0.000 C 
BRANCH  16  17
ATOM     17  N   UNL     1      38.102  44.249  71.829  0.00  0.00    +0.000 N 
ATOM     18  C   UNL     1      37.343  44.947  72.738  0.00  0.00    +0.000 C 
ATOM     19  O   UNL     1      37.682  45.571  73.729  0.00  0.00    +0.000 OA
ATOM     20  C   UNL     1      35.846  45.005  72.558  0.00  0.00    +0.000 C 
BRANCH  17  21
ATOM     21  O   UNL     1      37.465  43.597  70.742  0.00  0.00    +0.000 OA
ATOM     22  H   UNL     1      37.921  42.731  70.705  0.00  0.00    +0.000 HD
ENDBRANCH  17  21
ENDBRANCH  16  17
ENDBRANCH  14  15
ENDBRANCH  13  14
ENDBRANCH  10  12
ENDBRANCH   7   8
ENDBRANCH   4   6
BRANCH   3  23
ATOM     23  O   UNL     1      50.793  39.572  70.733  0.00  0.00    +0.000 OA
ATOM     24  H   UNL     1      51.440  38.859  70.894  0.00  0.00    +0.000 HD
ENDBRANCH   3  23
ENDBRANCH   2   3
BRANCH   1  25
ATOM     25  C   UNL     1      55.485  39.980  70.162  0.00  0.00    +0.000 C 
ATOM     26  C   UNL     1      56.641  39.781  69.913  0.00  0.00    +0.000 C 
BRANCH  26  27
ATOM     27  C   UNL     1      58.122  39.538  69.602  0.00  0.00    +0.000 C 
BRANCH  27  28
ATOM     28  N   UNL     1      59.423  39.324  69.310  0.00  0.00    +0.000 N 
ATOM     29  C   UNL     1      60.543  39.840  69.918  0.00  0.00    +0.000 C 
ATOM     30  O   UNL     1      60.551  40.612  70.865  0.00  0.00    +0.000 OA
ATOM     31  H   UNL     1      59.579  38.688  68.538  0.00  0.00    +0.000 HD
BRANCH  29  32
ATOM     32  C   UNL     1      61.801  39.406  69.361  0.00  0.00    +0.000 C 
ATOM     33  C   UNL     1      62.837  39.035  68.878  0.00  0.00    +0.000 C 
BRANCH  33  34
ATOM     34  C   UNL     1      64.077  38.589  68.276  0.00  0.00    +0.000 C 
ATOM     35  O   UNL     1      64.018  37.668  67.468  0.00  0.00    +0.000 OA
ATOM     36  N   UNL     1      65.245  39.210  68.686  0.00  0.00    +0.000 N 
BRANCH  36  37
ATOM     37  C   UNL     1      66.504  39.115  68.213  0.00  0.00    +0.000 C 
ATOM     38  C   UNL     1      67.624  39.030  67.789  0.00  0.00    +0.000 C 
BRANCH  38  39
ATOM     39  C   UNL     1      69.051  38.919  67.242  0.00  0.00    +0.000 C 
ATOM     40  C   UNL     1      70.167  38.827  66.811  0.00  0.00    +0.000 C 
BRANCH  40  41
ATOM     41  C   UNL     1      71.590  38.707  66.259  0.00  0.00    +0.000 C 
BRANCH  41  42
ATOM     42  N   UNL     1      72.941  38.592  65.735  0.00  0.00    +0.000 NA
ATOM     43  H   UNL     1      73.094  39.275  64.994  0.00  0.00    +0.000 HD
ATOM     44  H   UNL     1      73.623  38.806  66.460  0.00  0.00    +0.000 HD
ENDBRANCH  41  42
ENDBRANCH  40  41
ENDBRANCH  38  39
ENDBRANCH  36  37
BRANCH  36  45
ATOM     45  O   UNL     1      65.121  40.386  69.460  0.00  0.00    +0.000 OA
ATOM     46  H   UNL     1      66.050  40.561  69.696  0.00  0.00    +0.000 HD
ENDBRANCH  36  45
ENDBRANCH  33  34
ENDBRANCH  29  32
ENDBRANCH  27  28
ENDBRANCH  26  27
ENDBRANCH   1  25
TORSDOF 19
ENDMDL
MODEL 8
REMARK VINA RESULT:      -4.7      3.367      7.327
REMARK  Name = Deferoxamine.pdbqt.pdb
REMARK  19 active torsions:
REMARK  status: ('A' for Active; 'I' for Inactive)
REMARK    1  A    between atoms: C_1  and  C_2
REMARK    2  A    between atoms: C_3  and  C_4
REMARK    3  A    between atoms: C_4  and  N_5
REMARK    4  A    between atoms: C_6  and  C_9
REMARK    5  A    between atoms: C_10  and  C_11
REMARK    6  A    between atoms: N_13  and  O_14
REMARK    7  A    between atoms: N_13  and  C_16
REMARK    8  A    between atoms: C_17  and  C_18
REMARK    9  A    between atoms: C_19  and  C_20
REMARK   10  A    between atoms: C_20  and  N_21
REMARK   11  A    between atoms: C_24  and  N_25
REMARK   12  A    between atoms: N_25  and  O_28
REMARK   13  A    between atoms: C_26  and  C_30
REMARK   14  A    between atoms: C_31  and  C_32
REMARK   15  A    between atoms: N_34  and  C_36
REMARK   16  A    between atoms: C_37  and  C_38
REMARK   17  A    between atoms: C_38  and  C_39
REMARK   18  A    between atoms: C_40  and  N_41
REMARK   19  A    between atoms: N_41  and  O_45
REMARK                            x       y       z     vdW  Elec       q    Type
REMARK                         _______ _______ _______ _____ _____    ______ ____
ROOT
ATOM      1  C   UNL     1      59.038  39.371  70.144  0.00  0.00    +0.000 C 
ATOM      2  C   UNL     1      60.177  39.147  69.833  0.00  0.00    +0.000 C 
ENDROOT
BRANCH   2   3
ATOM      3  N   UNL     1      61.456  38.898  69.483  0.00  0.00    +0.000 N 
ATOM      4  C   UNL     1      62.636  39.091  70.181  0.00  0.00    +0.000 C 
ATOM      5  O   UNL     1      62.734  39.713  71.233  0.00  0.00    +0.000 OA
BRANCH   4   6
ATOM      6  C   UNL     1      63.848  38.548  69.604  0.00  0.00    +0.000 C 
ATOM      7  C   UNL     1      64.856  38.109  69.118  0.00  0.00    +0.000 C 
BRANCH   7   8
ATOM      8  C   UNL     1      66.060  37.593  68.515  0.00  0.00    +0.000 C 
ATOM      9  O   UNL     1      66.764  36.827  69.157  0.00  0.00    +0.000 OA
ATOM     10  N   UNL     1      66.307  38.029  67.233  0.00  0.00    +0.000 N 
ATOM     11  H   UNL     1      65.622  38.661  66.837  0.00  0.00    +0.000 HD
BRANCH  10  12
ATOM     12  C   UNL     1      67.339  37.728  66.416  0.00  0.00    +0.000 C 
ATOM     13  C   UNL     1      68.259  37.465  65.692  0.00  0.00    +0.000 C 
BRANCH  13  14
ATOM     14  C   UNL     1      69.440  37.134  64.774  0.00  0.00    +0.000 C 
BRANCH  14  15
ATOM     15  C   UNL     1      70.620  36.794  63.859  0.00  0.00    +0.000 C 
ATOM     16  C   UNL     1      71.547  36.531  63.143  0.00  0.00    +0.000 C 
BRANCH  16  17
ATOM     17  N   UNL     1      72.591  36.237  62.344  0.00  0.00    +0.000 N 
ATOM     18  C   UNL     1      72.743  36.330  60.981  0.00  0.00    +0.000 C 
ATOM     19  O   UNL     1      71.960  36.711  60.129  0.00  0.00    +0.000 OA
ATOM     20  C   UNL     1      74.053  35.916  60.356  0.00  0.00    +0.000 C 
BRANCH  17  21
ATOM     21  O   UNL     1      73.665  35.755  63.135  0.00  0.00    +0.000 OA
ATOM     22  H   UNL     1      74.445  35.889  62.557  0.00  0.00    +0.000 HD
ENDBRANCH  17  21
ENDBRANCH  16  17
ENDBRANCH  14  15
ENDBRANCH  13  14
ENDBRANCH  10  12
ENDBRANCH   7   8
ENDBRANCH   4   6
BRANCH   3  23
ATOM     23  O   UNL     1      61.478  37.983  68.406  0.00  0.00    +0.000 OA
ATOM     24  H   UNL     1      60.887  37.281  68.736  0.00  0.00    +0.000 HD
ENDBRANCH   3  23
ENDBRANCH   2   3
BRANCH   1  25
ATOM     25  C   UNL     1      57.586  39.666  70.528  0.00  0.00    +0.000 C 
ATOM     26  C   UNL     1      56.451  39.910  70.829  0.00  0.00    +0.000 C 
BRANCH  26  27
ATOM     27  C   UNL     1      55.004  40.237  71.213  0.00  0.00    +0.000 C 
BRANCH  27  28
ATOM     28  N   UNL     1      53.727  40.535  71.537  0.00  0.00    +0.000 N 
ATOM     29  C   UNL     1      53.256  41.383  72.512  0.00  0.00    +0.000 C 
ATOM     30  O   UNL     1      53.943  42.036  73.284  0.00  0.00    +0.000 OA
ATOM     31  H   UNL     1      53.032  40.067  70.969  0.00  0.00    +0.000 HD
BRANCH  29  32
ATOM     32  C   UNL     1      51.820  41.484  72.599  0.00  0.00    +0.000 C 
ATOM     33  C   UNL     1      50.626  41.588  72.685  0.00  0.00    +0.000 C 
BRANCH  33  34
ATOM     34  C   UNL     1      49.189  41.737  72.788  0.00  0.00    +0.000 C 
ATOM     35  O   UNL     1      48.644  41.311  73.802  0.00  0.00    +0.000 OA
ATOM     36  N   UNL     1      48.529  42.315  71.717  0.00  0.00    +0.000 N 
BRANCH  36  37
ATOM     37  C   UNL     1      47.245  42.708  71.583  0.00  0.00    +0.000 C 
ATOM     38  C   UNL     1      46.104  43.059  71.461  0.00  0.00    +0.000 C 
BRANCH  38  39
ATOM     39  C   UNL     1      44.650  43.515  71.304  0.00  0.00    +0.000 C 
ATOM     40  C   UNL     1      43.510  43.867  71.177  0.00  0.00    +0.000 C 
BRANCH  40  41
ATOM     41  C   UNL     1      42.055  44.314  71.013  0.00  0.00    +0.000 C 
BRANCH  41  42
ATOM     42  N   UNL     1      40.673  44.738  70.858  0.00  0.00    +0.000 NA
ATOM     43  H   UNL     1      40.055  43.930  70.822  0.00  0.00    +0.000 HD
ATOM     44  H   UNL     1      40.376  45.285  71.664  0.00  0.00    +0.000 HD
ENDBRANCH  41  42
ENDBRANCH  40  41
ENDBRANCH  38  39
ENDBRANCH  36  37
BRANCH  36  45
ATOM     45  O   UNL     1      49.318  42.938  70.724  0.00  0.00    +0.000 OA
ATOM     46  H   UNL     1      49.552  43.777  71.161  0.00  0.00    +0.000 HD
ENDBRANCH  36  45
ENDBRANCH  33  34
ENDBRANCH  29  32
ENDBRANCH  27  28
ENDBRANCH  26  27
ENDBRANCH   1  25
TORSDOF 19
ENDMDL
MODEL 9
REMARK VINA RESULT:      -4.7     23.531     26.675
REMARK  Name = Deferoxamine.pdbqt.pdb
REMARK  19 active torsions:
REMARK  status: ('A' for Active; 'I' for Inactive)
REMARK    1  A    between atoms: C_1  and  C_2
REMARK    2  A    between atoms: C_3  and  C_4
REMARK    3  A    between atoms: C_4  and  N_5
REMARK    4  A    between atoms: C_6  and  C_9
REMARK    5  A    between atoms: C_10  and  C_11
REMARK    6  A    between atoms: N_13  and  O_14
REMARK    7  A    between atoms: N_13  and  C_16
REMARK    8  A    between atoms: C_17  and  C_18
REMARK    9  A    between atoms: C_19  and  C_20
REMARK   10  A    between atoms: C_20  and  N_21
REMARK   11  A    between atoms: C_24  and  N_25
REMARK   12  A    between atoms: N_25  and  O_28
REMARK   13  A    between atoms: C_26  and  C_30
REMARK   14  A    between atoms: C_31  and  C_32
REMARK   15  A    between atoms: N_34  and  C_36
REMARK   16  A    between atoms: C_37  and  C_38
REMARK   17  A    between atoms: C_38  and  C_39
REMARK   18  A    between atoms: C_40  and  N_41
REMARK   19  A    between atoms: N_41  and  O_45
REMARK                            x       y       z     vdW  Elec       q    Type
REMARK                         _______ _______ _______ _____ _____    ______ ____
ROOT
ATOM      1  C   UNL     1      69.243  58.295  64.219  0.00  0.00    +0.000 C 
ATOM      2  C   UNL     1      69.521  57.188  63.846  0.00  0.00    +0.000 C 
ENDROOT
BRANCH   2   3
ATOM      3  N   UNL     1      69.834  55.945  63.425  0.00  0.00    +0.000 N 
ATOM      4  C   UNL     1      70.131  54.798  64.141  0.00  0.00    +0.000 C 
ATOM      5  O   UNL     1      70.335  54.759  65.349  0.00  0.00    +0.000 OA
BRANCH   4   6
ATOM      6  C   UNL     1      70.245  53.559  63.399  0.00  0.00    +0.000 C 
ATOM      7  C   UNL     1      70.349  52.538  62.775  0.00  0.00    +0.000 C 
BRANCH   7   8
ATOM      8  C   UNL     1      70.478  51.324  62.007  0.00  0.00    +0.000 C 
ATOM      9  O   UNL     1      70.223  51.349  60.811  0.00  0.00    +0.000 OA
ATOM     10  N   UNL     1      70.890  50.220  62.719  0.00  0.00    +0.000 N 
ATOM     11  H   UNL     1      71.067  50.366  63.705  0.00  0.00    +0.000 HD
BRANCH  10  12
ATOM     12  C   UNL     1      71.101  48.958  62.287  0.00  0.00    +0.000 C 
ATOM     13  C   UNL     1      71.290  47.836  61.907  0.00  0.00    +0.000 C 
BRANCH  13  14
ATOM     14  C   UNL     1      71.535  46.400  61.432  0.00  0.00    +0.000 C 
BRANCH  14  15
ATOM     15  C   UNL     1      71.772  44.963  60.960  0.00  0.00    +0.000 C 
ATOM     16  C   UNL     1      71.960  43.836  60.590  0.00  0.00    +0.000 C 
BRANCH  16  17
ATOM     17  N   UNL     1      72.178  42.574  60.174  0.00  0.00    +0.000 N 
ATOM     18  C   UNL     1      71.983  41.366  60.802  0.00  0.00    +0.000 C 
ATOM     19  O   UNL     1      71.552  41.122  61.915  0.00  0.00    +0.000 OA
ATOM     20  C   UNL     1      72.330  40.092  60.073  0.00  0.00    +0.000 C 
BRANCH  17  21
ATOM     21  O   UNL     1      72.700  42.598  58.855  0.00  0.00    +0.000 OA
ATOM     22  H   UNL     1      73.476  42.003  58.912  0.00  0.00    +0.000 HD
ENDBRANCH  17  21
ENDBRANCH  16  17
ENDBRANCH  14  15
ENDBRANCH  13  14
ENDBRANCH  10  12
ENDBRANCH   7   8
ENDBRANCH   4   6
BRANCH   3  23
ATOM     23  O   UNL     1      69.420  55.787  62.083  0.00  0.00    +0.000 OA
ATOM     24  H   UNL     1      68.685  56.425  62.030  0.00  0.00    +0.000 HD
ENDBRANCH   3  23
ENDBRANCH   2   3
BRANCH   1  25
ATOM     25  C   UNL     1      68.872  59.704  64.689  0.00  0.00    +0.000 C 
ATOM     26  C   UNL     1      68.594  60.813  65.052  0.00  0.00    +0.000 C 
BRANCH  26  27
ATOM     27  C   UNL     1      68.249  62.235  65.508  0.00  0.00    +0.000 C 
BRANCH  27  28
ATOM     28  N   UNL     1      67.960  63.494  65.902  0.00  0.00    +0.000 N 
ATOM     29  C   UNL     1      67.044  64.377  65.381  0.00  0.00    +0.000 C 
ATOM     30  O   UNL     1      66.303  64.162  64.432  0.00  0.00    +0.000 OA
ATOM     31  H   UNL     1      68.498  63.816  66.697  0.00  0.00    +0.000 HD
BRANCH  29  32
ATOM     32  C   UNL     1      66.978  65.658  66.041  0.00  0.00    +0.000 C 
ATOM     33  C   UNL     1      66.940  66.717  66.607  0.00  0.00    +0.000 C 
BRANCH  33  34
ATOM     34  C   UNL     1      66.916  67.992  67.294  0.00  0.00    +0.000 C 
ATOM     35  O   UNL     1      67.965  68.391  67.790  0.00  0.00    +0.000 OA
ATOM     36  N   UNL     1      65.701  68.651  67.373  0.00  0.00    +0.000 N 
BRANCH  36  37
ATOM     37  C   UNL     1      65.400  69.891  67.812  0.00  0.00    +0.000 C 
ATOM     38  C   UNL     1      65.135  70.995  68.202  0.00  0.00    +0.000 C 
BRANCH  38  39
ATOM     39  C   UNL     1      64.803  72.404  68.701  0.00  0.00    +0.000 C 
ATOM     40  C   UNL     1      64.541  73.510  69.088  0.00  0.00    +0.000 C 
BRANCH  40  41
ATOM     41  C   UNL     1      64.205  74.921  69.577  0.00  0.00    +0.000 C 
BRANCH  41  42
ATOM     42  N   UNL     1      63.887  76.261  70.043  0.00  0.00    +0.000 NA
ATOM     43  H   UNL     1      62.921  76.306  70.363  0.00  0.00    +0.000 HD
ATOM     44  H   UNL     1      64.462  76.504  70.848  0.00  0.00    +0.000 HD
ENDBRANCH  41  42
ENDBRANCH  40  41
ENDBRANCH  38  39
ENDBRANCH  36  37
BRANCH  36  45
ATOM     45  O   UNL     1      64.642  68.165  66.574  0.00  0.00    +0.000 OA
ATOM     46  H   UNL     1      65.080  67.438  66.094  0.00  0.00    +0.000 HD
ENDBRANCH  36  45
ENDBRANCH  33  34
ENDBRANCH  29  32
ENDBRANCH  27  28
ENDBRANCH  26  27
ENDBRANCH   1  25
TORSDOF 19
ENDMDL
