MODEL 1
REMARK VINA RESULT:      -6.0      0.000      0.000
REMARK  Name = 
REMARK  25 active torsions:
REMARK  status: ('A' for Active; 'I' for Inactive)
REMARK    1  A    between atoms: O_2  and  C_17
REMARK    2  A    between atoms: O_2  and  C_36
REMARK    3  A    between atoms: O_3  and  C_20
REMARK    4  A    between atoms: O_3  and  C_37
REMARK    5  A    between atoms: O_4  and  C_21
REMARK    6  A    between atoms: O_5  and  C_22
REMARK    7  A    between atoms: O_7  and  C_30
REMARK    8  A    between atoms: O_8  and  C_31
REMARK    9  A    between atoms: O_8  and  C_39
REMARK   10  A    between atoms: O_12  and  C_41
REMARK   11  A    between atoms: O_13  and  C_51
REMARK   12  A    between atoms: O_13  and  C_55
REMARK   13  A    between atoms: N_15  and  C_44
REMARK   14  A    between atoms: C_18  and  C_29
REMARK   15  A    between atoms: C_24  and  C_33
REMARK   16  A    between atoms: C_24  and  C_34
REMARK   17  A    between atoms: C_32  and  C_35
REMARK   18  A    between atoms: C_36  and  C_38
REMARK   19  A    between atoms: C_37  and  C_40
REMARK   20  A    between atoms: C_39  and  C_41
REMARK   21  A    between atoms: C_41  and  C_44
REMARK   22  A    between atoms: C_44  and  C_48
REMARK   23  A    between atoms: C_55  and  C_56
REMARK   24  A    between atoms: C_55  and  C_57
REMARK   25  A    between atoms: C_55  and  C_58
REMARK                            x       y       z     vdW  Elec       q    Type
REMARK                         _______ _______ _______ _____ _____    ______ ____
ROOT
ATOM      1  O   UNL     1      64.602  33.530  74.749  0.00  0.00    +0.000 OA
ATOM      2  O   UNL     1      65.204  34.014  68.074  0.00  0.00    +0.000 OA
ATOM      3  C   UNL     1      64.896  35.727  72.114  0.00  0.00    +0.000 C 
ATOM      4  C   UNL     1      64.166  35.066  73.321  0.00  0.00    +0.000 C 
ATOM      5  C   UNL     1      64.504  34.672  70.585  0.00  0.00    +0.000 C 
ATOM      6  C   UNL     1      65.028  33.739  73.375  0.00  0.00    +0.000 C 
ATOM      7  C   UNL     1      64.712  37.582  72.113  0.00  0.00    +0.000 C 
ATOM      8  C   UNL     1      65.174  39.115  71.100  0.00  0.00    +0.000 C 
ATOM      9  C   UNL     1      65.107  33.251  70.944  0.00  0.00    +0.000 C 
ATOM     10  C   UNL     1      64.702  32.684  72.339  0.00  0.00    +0.000 C 
ATOM     11  C   UNL     1      65.814  39.198  69.447  0.00  0.00    +0.000 C 
ATOM     12  C   UNL     1      64.560  35.008  74.851  0.00  0.00    +0.000 C 
ATOM     13  C   UNL     1      64.973  35.010  68.794  0.00  0.00    +0.000 C 
ATOM     14  C   UNL     1      63.808  39.924  70.913  0.00  0.00    +0.000 C 
ATOM     15  C   UNL     1      64.896  38.388  68.417  0.00  0.00    +0.000 C 
ATOM     16  C   UNL     1      62.952  34.381  70.435  0.00  0.00    +0.000 C 
ATOM     17  C   UNL     1      65.144  36.697  67.897  0.00  0.00    +0.000 C 
ATOM     18  C   UNL     1      62.995  39.714  69.555  0.00  0.00    +0.000 C 
ATOM     19  C   UNL     1      63.620  38.898  68.368  0.00  0.00    +0.000 C 
ATOM     20  C   UNL     1      65.764  40.745  68.999  0.00  0.00    +0.000 C 
ATOM     21  C   UNL     1      67.351  39.041  69.213  0.00  0.00    +0.000 C 
ATOM     22  C   UNL     1      62.626  38.491  67.308  0.00  0.00    +0.000 C 
ENDROOT
BRANCH  17  23
ATOM     23  O   UNL     1      66.274  36.746  67.026  0.00  0.00    +0.000 OA
ATOM     24  H   UNL     1      66.978  37.171  67.552  0.00  0.00    +0.000 HD
ENDBRANCH  17  23
BRANCH   9  25
ATOM     25  O   UNL     1      66.533  33.344  70.935  0.00  0.00    +0.000 OA
ATOM     26  H   UNL     1      66.817  33.447  71.861  0.00  0.00    +0.000 HD
ENDBRANCH   9  25
BRANCH   8  27
ATOM     27  O   UNL     1      66.000  39.898  71.983  0.00  0.00    +0.000 OA
ATOM     28  H   UNL     1      65.519  40.705  72.238  0.00  0.00    +0.000 HD
ENDBRANCH   8  27
BRANCH  18  29
ATOM     29  O   UNL     1      61.735  39.066  69.893  0.00  0.00    +0.000 OA
BRANCH  29  31
ATOM     30  O   UNL     1      60.259  40.475  70.861  0.00  0.00    +0.000 OA
ATOM     31  C   UNL     1      60.611  39.826  69.882  0.00  0.00    +0.000 C 
BRANCH  31  32
ATOM     32  C   UNL     1      59.739  39.682  68.630  0.00  0.00    +0.000 C 
BRANCH  32  33
ATOM     33  O   UNL     1      59.379  40.909  67.985  0.00  0.00    +0.000 OA
ATOM     34  H   UNL     1      59.037  40.662  67.105  0.00  0.00    +0.000 HD
ENDBRANCH  32  33
BRANCH  32  35
ATOM     35  C   UNL     1      58.486  38.843  68.998  0.00  0.00    +0.000 C 
BRANCH  35  36
ATOM     36  C   UNL     1      58.408  37.532  68.222  0.00  0.00    +0.000 A 
ATOM     37  C   UNL     1      57.155  37.029  67.836  0.00  0.00    +0.000 A 
ATOM     38  C   UNL     1      59.560  36.823  67.844  0.00  0.00    +0.000 A 
ATOM     39  C   UNL     1      57.055  35.837  67.115  0.00  0.00    +0.000 A 
ATOM     40  C   UNL     1      59.457  35.630  67.125  0.00  0.00    +0.000 A 
ATOM     41  C   UNL     1      58.206  35.137  66.763  0.00  0.00    +0.000 A 
ENDBRANCH  35  36
BRANCH  35  43
ATOM     42  O   UNL     1      56.846  40.171  70.948  0.00  0.00    +0.000 OA
ATOM     43  N   UNL     1      57.258  39.593  68.775  0.00  0.00    +0.000 N 
ATOM     44  C   UNL     1      56.499  40.095  69.782  0.00  0.00    +0.000 C 
ATOM     45  H   UNL     1      56.798  39.483  67.881  0.00  0.00    +0.000 HD
BRANCH  44  46
ATOM     46  O   UNL     1      55.322  40.514  69.268  0.00  0.00    +0.000 OA
BRANCH  46  47
ATOM     47  C   UNL     1      54.083  39.839  69.607  0.00  0.00    +0.000 C 
ATOM     48  C   UNL     1      53.386  40.515  70.792  0.00  0.00    +0.000 C 
ATOM     49  C   UNL     1      53.199  39.999  68.361  0.00  0.00    +0.000 C 
ATOM     50  C   UNL     1      54.315  38.345  69.856  0.00  0.00    +0.000 C 
ENDBRANCH  46  47
ENDBRANCH  44  46
ENDBRANCH  35  43
ENDBRANCH  32  35
ENDBRANCH  31  32
ENDBRANCH  29  31
ENDBRANCH  18  29
BRANCH   7  51
ATOM     51  O   UNL     1      63.683  37.391  71.314  0.00  0.00    +0.000 OA
BRANCH  51  53
ATOM     52  O   UNL     1      63.596  38.093  73.193  0.00  0.00    +0.000 OA
ATOM     53  C   UNL     1      62.812  37.749  72.315  0.00  0.00    +0.000 C 
BRANCH  53  54
ATOM     54  C   UNL     1      60.928  37.405  72.271  0.00  0.00    +0.000 A 
ATOM     55  C   UNL     1      60.270  36.391  71.447  0.00  0.00    +0.000 A 
ATOM     56  C   UNL     1      59.921  37.973  73.111  0.00  0.00    +0.000 A 
ATOM     57  C   UNL     1      58.899  36.029  71.460  0.00  0.00    +0.000 A 
ATOM     58  C   UNL     1      58.540  37.624  73.139  0.00  0.00    +0.000 A 
ATOM     59  C   UNL     1      58.026  36.652  72.315  0.00  0.00    +0.000 A 
ENDBRANCH  53  54
ENDBRANCH  51  53
ENDBRANCH   7  51
BRANCH   4  60
ATOM     60  O   UNL     1      62.758  34.851  73.064  0.00  0.00    +0.000 OA
BRANCH  60  62
ATOM     61  O   UNL     1      61.581  35.364  74.896  0.00  0.00    +0.000 OA
ATOM     62  C   UNL     1      61.849  34.545  74.019  0.00  0.00    +0.000 C 
ATOM     63  C   UNL     1      61.273  33.166  74.057  0.00  0.00    +0.000 C 
ENDBRANCH  60  62
ENDBRANCH   4  60
TORSDOF 17
ENDMDL
MODEL 2
REMARK VINA RESULT:      -5.9     29.405     33.009
REMARK  Name = 
REMARK  25 active torsions:
REMARK  status: ('A' for Active; 'I' for Inactive)
REMARK    1  A    between atoms: O_2  and  C_17
REMARK    2  A    between atoms: O_2  and  C_36
REMARK    3  A    between atoms: O_3  and  C_20
REMARK    4  A    between atoms: O_3  and  C_37
REMARK    5  A    between atoms: O_4  and  C_21
REMARK    6  A    between atoms: O_5  and  C_22
REMARK    7  A    between atoms: O_7  and  C_30
REMARK    8  A    between atoms: O_8  and  C_31
REMARK    9  A    between atoms: O_8  and  C_39
REMARK   10  A    between atoms: O_12  and  C_41
REMARK   11  A    between atoms: O_13  and  C_51
REMARK   12  A    between atoms: O_13  and  C_55
REMARK   13  A    between atoms: N_15  and  C_44
REMARK   14  A    between atoms: C_18  and  C_29
REMARK   15  A    between atoms: C_24  and  C_33
REMARK   16  A    between atoms: C_24  and  C_34
REMARK   17  A    between atoms: C_32  and  C_35
REMARK   18  A    between atoms: C_36  and  C_38
REMARK   19  A    between atoms: C_37  and  C_40
REMARK   20  A    between atoms: C_39  and  C_41
REMARK   21  A    between atoms: C_41  and  C_44
REMARK   22  A    between atoms: C_44  and  C_48
REMARK   23  A    between atoms: C_55  and  C_56
REMARK   24  A    between atoms: C_55  and  C_57
REMARK   25  A    between atoms: C_55  and  C_58
REMARK                            x       y       z     vdW  Elec       q    Type
REMARK                         _______ _______ _______ _____ _____    ______ ____
ROOT
ATOM      1  O   UNL     1      69.083  74.058  65.649  0.00  0.00    +0.000 OA
ATOM      2  O   UNL     1      68.720  67.828  68.141  0.00  0.00    +0.000 OA
ATOM      3  C   UNL     1      67.281  71.125  65.608  0.00  0.00    +0.000 C 
ATOM      4  C   UNL     1      67.495  72.641  65.892  0.00  0.00    +0.000 C 
ATOM      5  C   UNL     1      67.894  70.182  67.137  0.00  0.00    +0.000 C 
ATOM      6  C   UNL     1      69.078  72.624  65.887  0.00  0.00    +0.000 C 
ATOM      7  C   UNL     1      65.621  70.783  64.832  0.00  0.00    +0.000 C 
ATOM      8  C   UNL     1      64.536  69.355  64.223  0.00  0.00    +0.000 C 
ATOM      9  C   UNL     1      69.430  70.564  67.223  0.00  0.00    +0.000 C 
ATOM     10  C   UNL     1      69.747  72.089  67.135  0.00  0.00    +0.000 C 
ATOM     11  C   UNL     1      64.741  67.613  64.499  0.00  0.00    +0.000 C 
ATOM     12  C   UNL     1      67.820  73.833  64.906  0.00  0.00    +0.000 C 
ATOM     13  C   UNL     1      67.787  68.335  67.479  0.00  0.00    +0.000 C 
ATOM     14  C   UNL     1      63.113  69.582  64.913  0.00  0.00    +0.000 C 
ATOM     15  C   UNL     1      64.886  67.276  66.057  0.00  0.00    +0.000 C 
ATOM     16  C   UNL     1      67.298  70.768  68.485  0.00  0.00    +0.000 C 
ATOM     17  C   UNL     1      66.421  67.095  66.952  0.00  0.00    +0.000 C 
ATOM     18  C   UNL     1      62.794  68.777  66.255  0.00  0.00    +0.000 C 
ATOM     19  C   UNL     1      63.768  67.654  66.763  0.00  0.00    +0.000 C 
ATOM     20  C   UNL     1      63.394  66.893  63.990  0.00  0.00    +0.000 C 
ATOM     21  C   UNL     1      65.691  66.798  63.565  0.00  0.00    +0.000 C 
ATOM     22  C   UNL     1      63.531  67.232  68.192  0.00  0.00    +0.000 C 
ENDROOT
BRANCH  17  23
ATOM     23  O   UNL     1      66.951  65.844  66.516  0.00  0.00    +0.000 OA
ATOM     24  H   UNL     1      67.265  65.406  67.330  0.00  0.00    +0.000 HD
ENDBRANCH  17  23
BRANCH   9  25
ATOM     25  O   UNL     1      70.118  69.936  66.140  0.00  0.00    +0.000 OA
ATOM     26  H   UNL     1      69.571  70.062  65.344  0.00  0.00    +0.000 HD
ENDBRANCH   9  25
BRANCH   8  27
ATOM     27  O   UNL     1      64.359  69.608  62.816  0.00  0.00    +0.000 OA
ATOM     28  H   UNL     1      64.420  70.566  62.654  0.00  0.00    +0.000 HD
ENDBRANCH   8  27
BRANCH  18  29
ATOM     29  O   UNL     1      62.676  69.750  67.333  0.00  0.00    +0.000 OA
BRANCH  29  31
ATOM     30  O   UNL     1      61.385  70.327  69.094  0.00  0.00    +0.000 OA
ATOM     31  C   UNL     1      61.482  69.843  67.972  0.00  0.00    +0.000 C 
BRANCH  31  32
ATOM     32  C   UNL     1      60.309  69.155  67.264  0.00  0.00    +0.000 C 
BRANCH  32  33
ATOM     33  O   UNL     1      59.207  70.007  66.932  0.00  0.00    +0.000 OA
ATOM     34  H   UNL     1      58.403  69.525  67.203  0.00  0.00    +0.000 HD
ENDBRANCH  32  33
BRANCH  32  35
ATOM     35  C   UNL     1      59.856  67.947  68.126  0.00  0.00    +0.000 C 
BRANCH  35  36
ATOM     36  C   UNL     1      59.902  66.629  67.361  0.00  0.00    +0.000 A 
ATOM     37  C   UNL     1      59.757  65.418  68.056  0.00  0.00    +0.000 A 
ATOM     38  C   UNL     1      60.050  66.586  65.964  0.00  0.00    +0.000 A 
ATOM     39  C   UNL     1      59.784  64.197  67.378  0.00  0.00    +0.000 A 
ATOM     40  C   UNL     1      60.078  65.364  65.289  0.00  0.00    +0.000 A 
ATOM     41  C   UNL     1      59.948  64.170  65.996  0.00  0.00    +0.000 A 
ENDBRANCH  35  36
BRANCH  35  43
ATOM     42  O   UNL     1      59.013  67.997  70.873  0.00  0.00    +0.000 OA
ATOM     43  N   UNL     1      58.510  68.139  68.647  0.00  0.00    +0.000 N 
ATOM     44  C   UNL     1      58.200  68.040  69.965  0.00  0.00    +0.000 C 
ATOM     45  H   UNL     1      57.739  68.045  67.999  0.00  0.00    +0.000 HD
BRANCH  44  46
ATOM     46  O   UNL     1      56.856  68.026  70.092  0.00  0.00    +0.000 OA
BRANCH  46  47
ATOM     47  C   UNL     1      56.112  66.786  69.966  0.00  0.00    +0.000 C 
ATOM     48  C   UNL     1      56.933  65.589  70.457  0.00  0.00    +0.000 C 
ATOM     49  C   UNL     1      54.900  66.963  70.893  0.00  0.00    +0.000 C 
ATOM     50  C   UNL     1      55.608  66.585  68.533  0.00  0.00    +0.000 C 
ENDBRANCH  46  47
ENDBRANCH  44  46
ENDBRANCH  35  43
ENDBRANCH  32  35
ENDBRANCH  31  32
ENDBRANCH  29  31
ENDBRANCH  18  29
BRANCH   7  51
ATOM     51  O   UNL     1      65.194  70.557  66.057  0.00  0.00    +0.000 OA
BRANCH  51  53
ATOM     52  O   UNL     1      64.630  72.086  64.884  0.00  0.00    +0.000 OA
ATOM     53  C   UNL     1      64.478  71.729  66.048  0.00  0.00    +0.000 C 
BRANCH  53  54
ATOM     54  C   UNL     1      63.787  72.577  67.621  0.00  0.00    +0.000 A 
ATOM     55  C   UNL     1      62.645  73.492  67.658  0.00  0.00    +0.000 A 
ATOM     56  C   UNL     1      64.179  72.348  68.975  0.00  0.00    +0.000 A 
ATOM     57  C   UNL     1      62.033  74.057  68.806  0.00  0.00    +0.000 A 
ATOM     58  C   UNL     1      63.578  72.906  70.141  0.00  0.00    +0.000 A 
ATOM     59  C   UNL     1      62.505  73.760  70.059  0.00  0.00    +0.000 A 
ENDBRANCH  53  54
ENDBRANCH  51  53
ENDBRANCH   7  51
BRANCH   4  60
ATOM     60  O   UNL     1      66.908  73.055  67.148  0.00  0.00    +0.000 OA
BRANCH  60  62
ATOM     61  O   UNL     1      65.954  75.064  66.905  0.00  0.00    +0.000 OA
ATOM     62  C   UNL     1      66.740  74.346  67.519  0.00  0.00    +0.000 C 
ATOM     63  C   UNL     1      67.605  74.908  68.602  0.00  0.00    +0.000 C 
ENDBRANCH  60  62
ENDBRANCH   4  60
TORSDOF 17
ENDMDL
MODEL 3
REMARK VINA RESULT:      -5.8     17.794     21.868
REMARK  Name = 
REMARK  25 active torsions:
REMARK  status: ('A' for Active; 'I' for Inactive)
REMARK    1  A    between atoms: O_2  and  C_17
REMARK    2  A    between atoms: O_2  and  C_36
REMARK    3  A    between atoms: O_3  and  C_20
REMARK    4  A    between atoms: O_3  and  C_37
REMARK    5  A    between atoms: O_4  and  C_21
REMARK    6  A    between atoms: O_5  and  C_22
REMARK    7  A    between atoms: O_7  and  C_30
REMARK    8  A    between atoms: O_8  and  C_31
REMARK    9  A    between atoms: O_8  and  C_39
REMARK   10  A    between atoms: O_12  and  C_41
REMARK   11  A    between atoms: O_13  and  C_51
REMARK   12  A    between atoms: O_13  and  C_55
REMARK   13  A    between atoms: N_15  and  C_44
REMARK   14  A    between atoms: C_18  and  C_29
REMARK   15  A    between atoms: C_24  and  C_33
REMARK   16  A    between atoms: C_24  and  C_34
REMARK   17  A    between atoms: C_32  and  C_35
REMARK   18  A    between atoms: C_36  and  C_38
REMARK   19  A    between atoms: C_37  and  C_40
REMARK   20  A    between atoms: C_39  and  C_41
REMARK   21  A    between atoms: C_41  and  C_44
REMARK   22  A    between atoms: C_44  and  C_48
REMARK   23  A    between atoms: C_55  and  C_56
REMARK   24  A    between atoms: C_55  and  C_57
REMARK   25  A    between atoms: C_55  and  C_58
REMARK                            x       y       z     vdW  Elec       q    Type
REMARK                         _______ _______ _______ _____ _____    ______ ____
ROOT
ATOM      1  O   UNL     1      57.646  48.196  50.398  0.00  0.00    +0.000 OA
ATOM      2  O   UNL     1      55.582  46.530  56.573  0.00  0.00    +0.000 OA
ATOM      3  C   UNL     1      56.192  49.387  53.284  0.00  0.00    +0.000 C 
ATOM      4  C   UNL     1      57.313  49.297  52.207  0.00  0.00    +0.000 C 
ATOM      5  C   UNL     1      56.555  48.043  54.574  0.00  0.00    +0.000 C 
ATOM      6  C   UNL     1      56.907  47.887  51.611  0.00  0.00    +0.000 C 
ATOM      7  C   UNL     1      55.820  51.149  53.764  0.00  0.00    +0.000 C 
ATOM      8  C   UNL     1      54.734  52.167  54.936  0.00  0.00    +0.000 C 
ATOM      9  C   UNL     1      56.481  46.695  53.745  0.00  0.00    +0.000 C 
ATOM     10  C   UNL     1      57.310  46.675  52.424  0.00  0.00    +0.000 C 
ATOM     11  C   UNL     1      53.775  51.609  56.321  0.00  0.00    +0.000 C 
ATOM     12  C   UNL     1      57.274  49.608  50.657  0.00  0.00    +0.000 C 
ATOM     13  C   UNL     1      55.654  47.719  56.195  0.00  0.00    +0.000 C 
ATOM     14  C   UNL     1      55.735  53.171  55.674  0.00  0.00    +0.000 C 
ATOM     15  C   UNL     1      54.660  50.759  57.349  0.00  0.00    +0.000 C 
ATOM     16  C   UNL     1      58.060  48.079  55.076  0.00  0.00    +0.000 C 
ATOM     17  C   UNL     1      54.818  48.981  57.374  0.00  0.00    +0.000 C 
ATOM     18  C   UNL     1      56.280  52.757  57.117  0.00  0.00    +0.000 C 
ATOM     19  C   UNL     1      55.693  51.506  57.864  0.00  0.00    +0.000 C 
ATOM     20  C   UNL     1      53.278  52.923  57.110  0.00  0.00    +0.000 C 
ATOM     21  C   UNL     1      52.338  51.047  56.079  0.00  0.00    +0.000 C 
ATOM     22  C   UNL     1      56.525  51.039  59.033  0.00  0.00    +0.000 C 
ENDROOT
BRANCH  17  23
ATOM     23  O   UNL     1      53.570  48.512  57.886  0.00  0.00    +0.000 OA
ATOM     24  H   UNL     1      52.956  48.552  57.128  0.00  0.00    +0.000 HD
ENDBRANCH  17  23
BRANCH   9  25
ATOM     25  O   UNL     1      55.120  46.457  53.381  0.00  0.00    +0.000 OA
ATOM     26  H   UNL     1      55.131  45.972  52.537  0.00  0.00    +0.000 HD
ENDBRANCH   9  25
BRANCH   8  27
ATOM     27  O   UNL     1      53.913  52.969  54.065  0.00  0.00    +0.000 OA
ATOM     28  H   UNL     1      54.471  53.631  53.620  0.00  0.00    +0.000 HD
ENDBRANCH   8  27
BRANCH  18  29
ATOM     29  O   UNL     1      57.716  52.541  57.000  0.00  0.00    +0.000 OA
BRANCH  29  31
ATOM     30  O   UNL     1      58.989  54.395  56.796  0.00  0.00    +0.000 OA
ATOM     31  C   UNL     1      58.541  53.495  57.498  0.00  0.00    +0.000 C 
BRANCH  31  32
ATOM     32  C   UNL     1      58.999  53.271  58.944  0.00  0.00    +0.000 C 
BRANCH  32  33
ATOM     33  O   UNL     1      58.231  53.949  59.945  0.00  0.00    +0.000 OA
ATOM     34  H   UNL     1      57.714  53.258  60.401  0.00  0.00    +0.000 HD
ENDBRANCH  32  33
BRANCH  32  35
ATOM     35  C   UNL     1      60.506  53.629  59.043  0.00  0.00    +0.000 C 
BRANCH  35  36
ATOM     36  C   UNL     1      61.399  52.396  59.129  0.00  0.00    +0.000 A 
ATOM     37  C   UNL     1      60.816  51.129  59.292  0.00  0.00    +0.000 A 
ATOM     38  C   UNL     1      62.796  52.481  59.012  0.00  0.00    +0.000 A 
ATOM     39  C   UNL     1      61.610  49.981  59.363  0.00  0.00    +0.000 A 
ATOM     40  C   UNL     1      63.587  51.332  59.084  0.00  0.00    +0.000 A 
ATOM     41  C   UNL     1      62.994  50.084  59.263  0.00  0.00    +0.000 A 
ENDBRANCH  35  36
BRANCH  35  43
ATOM     42  O   UNL     1      61.601  56.286  59.049  0.00  0.00    +0.000 OA
ATOM     43  N   UNL     1      60.776  54.485  60.190  0.00  0.00    +0.000 N 
ATOM     44  C   UNL     1      61.396  55.688  60.092  0.00  0.00    +0.000 C 
ATOM     45  H   UNL     1      60.780  54.053  61.105  0.00  0.00    +0.000 HD
BRANCH  44  46
ATOM     46  O   UNL     1      61.714  56.112  61.334  0.00  0.00    +0.000 OA
BRANCH  46  47
ATOM     47  C   UNL     1      63.064  55.964  61.844  0.00  0.00    +0.000 C 
ATOM     48  C   UNL     1      63.824  57.295  61.809  0.00  0.00    +0.000 C 
ATOM     49  C   UNL     1      62.883  55.542  63.310  0.00  0.00    +0.000 C 
ATOM     50  C   UNL     1      63.819  54.855  61.103  0.00  0.00    +0.000 C 
ENDBRANCH  46  47
ENDBRANCH  44  46
ENDBRANCH  35  43
ENDBRANCH  32  35
ENDBRANCH  31  32
ENDBRANCH  29  31
ENDBRANCH  18  29
BRANCH   7  51
ATOM     51  O   UNL     1      56.675  50.968  54.749  0.00  0.00    +0.000 OA
BRANCH  51  53
ATOM     52  O   UNL     1      56.938  52.203  53.188  0.00  0.00    +0.000 OA
ATOM     53  C   UNL     1      57.602  51.764  54.121  0.00  0.00    +0.000 C 
BRANCH  53  54
ATOM     54  C   UNL     1      59.469  51.781  54.550  0.00  0.00    +0.000 A 
ATOM     55  C   UNL     1      60.410  52.845  54.197  0.00  0.00    +0.000 A 
ATOM     56  C   UNL     1      60.181  50.854  55.372  0.00  0.00    +0.000 A 
ATOM     57  C   UNL     1      61.770  52.953  54.583  0.00  0.00    +0.000 A 
ATOM     58  C   UNL     1      61.547  50.945  55.770  0.00  0.00    +0.000 A 
ATOM     59  C   UNL     1      62.343  51.993  55.377  0.00  0.00    +0.000 A 
ENDBRANCH  53  54
ENDBRANCH  51  53
ENDBRANCH   7  51
BRANCH   4  60
ATOM     60  O   UNL     1      58.639  49.339  52.784  0.00  0.00    +0.000 OA
BRANCH  60  62
ATOM     61  O   UNL     1      60.440  48.236  52.047  0.00  0.00    +0.000 OA
ATOM     62  C   UNL     1      59.784  49.275  52.066  0.00  0.00    +0.000 C 
ATOM     63  C   UNL     1      60.292  50.514  51.398  0.00  0.00    +0.000 C 
ENDBRANCH  60  62
ENDBRANCH   4  60
TORSDOF 17
ENDMDL
MODEL 4
REMARK VINA RESULT:      -5.7      3.364      9.019
REMARK  Name = 
REMARK  25 active torsions:
REMARK  status: ('A' for Active; 'I' for Inactive)
REMARK    1  A    between atoms: O_2  and  C_17
REMARK    2  A    between atoms: O_2  and  C_36
REMARK    3  A    between atoms: O_3  and  C_20
REMARK    4  A    between atoms: O_3  and  C_37
REMARK    5  A    between atoms: O_4  and  C_21
REMARK    6  A    between atoms: O_5  and  C_22
REMARK    7  A    between atoms: O_7  and  C_30
REMARK    8  A    between atoms: O_8  and  C_31
REMARK    9  A    between atoms: O_8  and  C_39
REMARK   10  A    between atoms: O_12  and  C_41
REMARK   11  A    between atoms: O_13  and  C_51
REMARK   12  A    between atoms: O_13  and  C_55
REMARK   13  A    between atoms: N_15  and  C_44
REMARK   14  A    between atoms: C_18  and  C_29
REMARK   15  A    between atoms: C_24  and  C_33
REMARK   16  A    between atoms: C_24  and  C_34
REMARK   17  A    between atoms: C_32  and  C_35
REMARK   18  A    between atoms: C_36  and  C_38
REMARK   19  A    between atoms: C_37  and  C_40
REMARK   20  A    between atoms: C_39  and  C_41
REMARK   21  A    between atoms: C_41  and  C_44
REMARK   22  A    between atoms: C_44  and  C_48
REMARK   23  A    between atoms: C_55  and  C_56
REMARK   24  A    between atoms: C_55  and  C_57
REMARK   25  A    between atoms: C_55  and  C_58
REMARK                            x       y       z     vdW  Elec       q    Type
REMARK                         _______ _______ _______ _____ _____    ______ ____
ROOT
ATOM      1  O   UNL     1      57.582  39.169  69.751  0.00  0.00    +0.000 OA
ATOM      2  O   UNL     1      61.778  36.796  74.433  0.00  0.00    +0.000 OA
ATOM      3  C   UNL     1      60.871  39.042  70.761  0.00  0.00    +0.000 C 
ATOM      4  C   UNL     1      59.683  38.754  69.797  0.00  0.00    +0.000 C 
ATOM      5  C   UNL     1      60.914  37.629  72.027  0.00  0.00    +0.000 C 
ATOM      6  C   UNL     1      58.516  38.966  70.846  0.00  0.00    +0.000 C 
ATOM      7  C   UNL     1      62.397  39.602  69.848  0.00  0.00    +0.000 C 
ATOM      8  C   UNL     1      64.201  40.097  70.143  0.00  0.00    +0.000 C 
ATOM      9  C   UNL     1      59.511  37.735  72.757  0.00  0.00    +0.000 C 
ATOM     10  C   UNL     1      58.271  37.829  71.815  0.00  0.00    +0.000 C 
ATOM     11  C   UNL     1      65.181  39.891  71.609  0.00  0.00    +0.000 C 
ATOM     12  C   UNL     1      58.732  39.746  69.015  0.00  0.00    +0.000 C 
ATOM     13  C   UNL     1      62.190  37.318  73.375  0.00  0.00    +0.000 C 
ATOM     14  C   UNL     1      65.053  39.222  69.111  0.00  0.00    +0.000 C 
ATOM     15  C   UNL     1      65.168  38.373  72.118  0.00  0.00    +0.000 C 
ATOM     16  C   UNL     1      60.858  36.201  71.339  0.00  0.00    +0.000 C 
ATOM     17  C   UNL     1      64.072  37.691  73.352  0.00  0.00    +0.000 C 
ATOM     18  C   UNL     1      65.712  37.869  69.644  0.00  0.00    +0.000 C 
ATOM     19  C   UNL     1      65.691  37.519  71.175  0.00  0.00    +0.000 C 
ATOM     20  C   UNL     1      66.703  40.236  71.211  0.00  0.00    +0.000 C 
ATOM     21  C   UNL     1      65.092  40.960  72.744  0.00  0.00    +0.000 C 
ATOM     22  C   UNL     1      66.029  36.082  71.485  0.00  0.00    +0.000 C 
ENDROOT
BRANCH  17  23
ATOM     23  O   UNL     1      64.543  38.222  74.591  0.00  0.00    +0.000 OA
ATOM     24  H   UNL     1      63.794  38.736  74.946  0.00  0.00    +0.000 HD
ENDBRANCH  17  23
BRANCH   9  25
ATOM     25  O   UNL     1      59.505  38.913  73.565  0.00  0.00    +0.000 OA
ATOM     26  H   UNL     1      60.298  39.426  73.326  0.00  0.00    +0.000 HD
ENDBRANCH   9  25
BRANCH   8  27
ATOM     27  O   UNL     1      64.282  41.463  69.691  0.00  0.00    +0.000 OA
ATOM     28  H   UNL     1      63.814  42.036  70.323  0.00  0.00    +0.000 HD
ENDBRANCH   8  27
BRANCH  18  29
ATOM     29  O   UNL     1      65.067  36.762  68.952  0.00  0.00    +0.000 OA
BRANCH  29  31
ATOM     30  O   UNL     1      65.570  34.974  67.667  0.00  0.00    +0.000 OA
ATOM     31  C   UNL     1      65.757  36.151  67.956  0.00  0.00    +0.000 C 
BRANCH  31  32
ATOM     32  C   UNL     1      66.887  36.984  67.341  0.00  0.00    +0.000 C 
BRANCH  32  33
ATOM     33  O   UNL     1      66.625  37.508  66.034  0.00  0.00    +0.000 OA
ATOM     34  H   UNL     1      67.269  37.081  65.438  0.00  0.00    +0.000 HD
ENDBRANCH  32  33
BRANCH  32  35
ATOM     35  C   UNL     1      68.188  36.138  67.364  0.00  0.00    +0.000 C 
BRANCH  35  36
ATOM     36  C   UNL     1      68.933  36.241  68.691  0.00  0.00    +0.000 A 
ATOM     37  C   UNL     1      69.286  37.505  69.190  0.00  0.00    +0.000 A 
ATOM     38  C   UNL     1      69.247  35.106  69.457  0.00  0.00    +0.000 A 
ATOM     39  C   UNL     1      69.959  37.630  70.408  0.00  0.00    +0.000 A 
ATOM     40  C   UNL     1      69.920  35.234  70.674  0.00  0.00    +0.000 A 
ATOM     41  C   UNL     1      70.278  36.494  71.147  0.00  0.00    +0.000 A 
ENDBRANCH  35  36
BRANCH  35  43
ATOM     42  O   UNL     1      68.340  35.048  64.709  0.00  0.00    +0.000 OA
ATOM     43  N   UNL     1      69.092  36.520  66.288  0.00  0.00    +0.000 N 
ATOM     44  C   UNL     1      69.154  35.868  65.100  0.00  0.00    +0.000 C 
ATOM     45  H   UNL     1      69.897  37.083  66.531  0.00  0.00    +0.000 HD
BRANCH  44  46
ATOM     46  O   UNL     1      70.241  36.301  64.426  0.00  0.00    +0.000 OA
BRANCH  46  47
ATOM     47  C   UNL     1      70.098  37.076  63.208  0.00  0.00    +0.000 C 
ATOM     48  C   UNL     1      68.889  38.014  63.281  0.00  0.00    +0.000 C 
ATOM     49  C   UNL     1      71.375  37.926  63.136  0.00  0.00    +0.000 C 
ATOM     50  C   UNL     1      70.044  36.167  61.975  0.00  0.00    +0.000 C 
ENDBRANCH  46  47
ENDBRANCH  44  46
ENDBRANCH  35  43
ENDBRANCH  32  35
ENDBRANCH  31  32
ENDBRANCH  29  31
ENDBRANCH  18  29
BRANCH   7  51
ATOM     51  O   UNL     1      62.763  38.338  69.865  0.00  0.00    +0.000 OA
BRANCH  51  53
ATOM     52  O   UNL     1      62.272  39.392  68.228  0.00  0.00    +0.000 OA
ATOM     53  C   UNL     1      62.522  38.226  68.517  0.00  0.00    +0.000 C 
BRANCH  53  54
ATOM     54  C   UNL     1      62.341  36.558  67.593  0.00  0.00    +0.000 A 
ATOM     55  C   UNL     1      62.136  35.256  68.229  0.00  0.00    +0.000 A 
ATOM     56  C   UNL     1      62.243  36.351  66.183  0.00  0.00    +0.000 A 
ATOM     57  C   UNL     1      61.890  34.015  67.587  0.00  0.00    +0.000 A 
ATOM     58  C   UNL     1      61.997  35.114  65.519  0.00  0.00    +0.000 A 
ATOM     59  C   UNL     1      61.820  33.945  66.219  0.00  0.00    +0.000 A 
ENDBRANCH  53  54
ENDBRANCH  51  53
ENDBRANCH   7  51
BRANCH   4  60
ATOM     60  O   UNL     1      59.742  37.423  69.232  0.00  0.00    +0.000 OA
BRANCH  60  62
ATOM     61  O   UNL     1      59.082  37.570  67.100  0.00  0.00    +0.000 OA
ATOM     62  C   UNL     1      58.989  37.006  68.188  0.00  0.00    +0.000 C 
ATOM     63  C   UNL     1      57.966  35.937  68.411  0.00  0.00    +0.000 C 
ENDBRANCH  60  62
ENDBRANCH   4  60
TORSDOF 17
ENDMDL
MODEL 5
REMARK VINA RESULT:      -5.3     19.334     23.634
REMARK  Name = 
REMARK  25 active torsions:
REMARK  status: ('A' for Active; 'I' for Inactive)
REMARK    1  A    between atoms: O_2  and  C_17
REMARK    2  A    between atoms: O_2  and  C_36
REMARK    3  A    between atoms: O_3  and  C_20
REMARK    4  A    between atoms: O_3  and  C_37
REMARK    5  A    between atoms: O_4  and  C_21
REMARK    6  A    between atoms: O_5  and  C_22
REMARK    7  A    between atoms: O_7  and  C_30
REMARK    8  A    between atoms: O_8  and  C_31
REMARK    9  A    between atoms: O_8  and  C_39
REMARK   10  A    between atoms: O_12  and  C_41
REMARK   11  A    between atoms: O_13  and  C_51
REMARK   12  A    between atoms: O_13  and  C_55
REMARK   13  A    between atoms: N_15  and  C_44
REMARK   14  A    between atoms: C_18  and  C_29
REMARK   15  A    between atoms: C_24  and  C_33
REMARK   16  A    between atoms: C_24  and  C_34
REMARK   17  A    between atoms: C_32  and  C_35
REMARK   18  A    between atoms: C_36  and  C_38
REMARK   19  A    between atoms: C_37  and  C_40
REMARK   20  A    between atoms: C_39  and  C_41
REMARK   21  A    between atoms: C_41  and  C_44
REMARK   22  A    between atoms: C_44  and  C_48
REMARK   23  A    between atoms: C_55  and  C_56
REMARK   24  A    between atoms: C_55  and  C_57
REMARK   25  A    between atoms: C_55  and  C_58
REMARK                            x       y       z     vdW  Elec       q    Type
REMARK                         _______ _______ _______ _____ _____    ______ ____
ROOT
ATOM      1  O   UNL     1      45.687  50.664  59.032  0.00  0.00    +0.000 OA
ATOM      2  O   UNL     1      45.053  49.753  52.405  0.00  0.00    +0.000 OA
ATOM      3  C   UNL     1      46.120  48.418  56.458  0.00  0.00    +0.000 C 
ATOM      4  C   UNL     1      46.602  49.343  57.615  0.00  0.00    +0.000 C 
ATOM      5  C   UNL     1      46.039  49.487  54.892  0.00  0.00    +0.000 C 
ATOM      6  C   UNL     1      45.316  50.264  57.685  0.00  0.00    +0.000 C 
ATOM      7  C   UNL     1      46.970  46.760  56.485  0.00  0.00    +0.000 C 
ATOM      8  C   UNL     1      47.065  45.129  55.526  0.00  0.00    +0.000 C 
ATOM      9  C   UNL     1      44.971  50.602  55.251  0.00  0.00    +0.000 C 
ATOM     10  C   UNL     1      45.194  51.327  56.614  0.00  0.00    +0.000 C 
ATOM     11  C   UNL     1      46.437  44.757  53.908  0.00  0.00    +0.000 C 
ATOM     12  C   UNL     1      46.272  49.308  59.161  0.00  0.00    +0.000 C 
ATOM     13  C   UNL     1      45.660  48.937  53.132  0.00  0.00    +0.000 C 
ATOM     14  C   UNL     1      48.623  44.868  55.290  0.00  0.00    +0.000 C 
ATOM     15  C   UNL     1      46.956  45.809  52.819  0.00  0.00    +0.000 C 
ATOM     16  C   UNL     1      47.370  50.320  54.661  0.00  0.00    +0.000 C 
ATOM     17  C   UNL     1      46.086  47.273  52.279  0.00  0.00    +0.000 C 
ATOM     18  C   UNL     1      49.252  45.311  53.890  0.00  0.00    +0.000 C 
ATOM     19  C   UNL     1      48.327  45.799  52.718  0.00  0.00    +0.000 C 
ATOM     20  C   UNL     1      47.034  43.321  53.489  0.00  0.00    +0.000 C 
ATOM     21  C   UNL     1      44.943  44.334  53.746  0.00  0.00    +0.000 C 
ATOM     22  C   UNL     1      49.062  46.502  51.604  0.00  0.00    +0.000 C 
ENDROOT
BRANCH  17  23
ATOM     23  O   UNL     1      45.020  46.783  51.464  0.00  0.00    +0.000 OA
ATOM     24  H   UNL     1      45.138  47.225  50.603  0.00  0.00    +0.000 HD
ENDBRANCH  17  23
BRANCH   9  25
ATOM     25  O   UNL     1      43.680  49.994  55.313  0.00  0.00    +0.000 OA
ATOM     26  H   UNL     1      43.205  50.410  56.055  0.00  0.00    +0.000 HD
ENDBRANCH   9  25
BRANCH   8  27
ATOM     27  O   UNL     1      46.616  44.130  56.464  0.00  0.00    +0.000 OA
ATOM     28  H   UNL     1      45.712  43.855  56.229  0.00  0.00    +0.000 HD
ENDBRANCH   8  27
BRANCH  18  29
ATOM     29  O   UNL     1      50.199  46.386  54.153  0.00  0.00    +0.000 OA
BRANCH  29  31
ATOM     30  O   UNL     1      51.937  44.963  54.382  0.00  0.00    +0.000 OA
ATOM     31  C   UNL     1      51.521  46.086  54.118  0.00  0.00    +0.000 C 
BRANCH  31  32
ATOM     32  C   UNL     1      52.455  47.281  53.891  0.00  0.00    +0.000 C 
BRANCH  32  33
ATOM     33  O   UNL     1      52.537  47.749  52.540  0.00  0.00    +0.000 OA
ATOM     34  H   UNL     1      51.629  47.705  52.184  0.00  0.00    +0.000 HD
ENDBRANCH  32  33
BRANCH  32  35
ATOM     35  C   UNL     1      53.855  46.923  54.455  0.00  0.00    +0.000 C 
BRANCH  35  36
ATOM     36  C   UNL     1      54.632  48.151  54.920  0.00  0.00    +0.000 A 
ATOM     37  C   UNL     1      55.226  48.155  56.192  0.00  0.00    +0.000 A 
ATOM     38  C   UNL     1      54.808  49.275  54.095  0.00  0.00    +0.000 A 
ATOM     39  C   UNL     1      55.952  49.261  56.638  0.00  0.00    +0.000 A 
ATOM     40  C   UNL     1      55.534  50.380  54.543  0.00  0.00    +0.000 A 
ATOM     41  C   UNL     1      56.103  50.374  55.815  0.00  0.00    +0.000 A 
ENDBRANCH  35  36
BRANCH  35  43
ATOM     42  O   UNL     1      55.416  44.543  54.851  0.00  0.00    +0.000 OA
ATOM     43  N   UNL     1      54.658  46.204  53.475  0.00  0.00    +0.000 N 
ATOM     44  C   UNL     1      55.445  45.144  53.791  0.00  0.00    +0.000 C 
ATOM     45  H   UNL     1      54.872  46.678  52.608  0.00  0.00    +0.000 HD
BRANCH  44  46
ATOM     46  O   UNL     1      56.233  44.862  52.732  0.00  0.00    +0.000 OA
BRANCH  46  47
ATOM     47  C   UNL     1      57.414  45.658  52.454  0.00  0.00    +0.000 C 
ATOM     48  C   UNL     1      58.030  46.213  53.742  0.00  0.00    +0.000 C 
ATOM     49  C   UNL     1      58.408  44.672  51.821  0.00  0.00    +0.000 C 
ATOM     50  C   UNL     1      57.110  46.766  51.440  0.00  0.00    +0.000 C 
ENDBRANCH  46  47
ENDBRANCH  44  46
ENDBRANCH  35  43
ENDBRANCH  32  35
ENDBRANCH  31  32
ENDBRANCH  29  31
ENDBRANCH  18  29
BRANCH   7  51
ATOM     51  O   UNL     1      47.827  47.284  55.634  0.00  0.00    +0.000 OA
BRANCH  51  53
ATOM     52  O   UNL     1      48.316  46.571  57.446  0.00  0.00    +0.000 OA
ATOM     53  C   UNL     1      48.802  47.316  56.601  0.00  0.00    +0.000 C 
BRANCH  53  54
ATOM     54  C   UNL     1      50.287  48.526  56.590  0.00  0.00    +0.000 A 
ATOM     55  C   UNL     1      50.543  49.543  55.569  0.00  0.00    +0.000 A 
ATOM     56  C   UNL     1      51.266  48.711  57.614  0.00  0.00    +0.000 A 
ATOM     57  C   UNL     1      51.563  50.528  55.574  0.00  0.00    +0.000 A 
ATOM     58  C   UNL     1      52.298  49.694  57.637  0.00  0.00    +0.000 A 
ATOM     59  C   UNL     1      52.449  50.603  56.618  0.00  0.00    +0.000 A 
ENDBRANCH  53  54
ENDBRANCH  51  53
ENDBRANCH   7  51
BRANCH   4  60
ATOM     60  O   UNL     1      47.822  50.048  57.287  0.00  0.00    +0.000 OA
BRANCH  60  62
ATOM     61  O   UNL     1      48.889  50.542  59.190  0.00  0.00    +0.000 OA
ATOM     62  C   UNL     1      48.439  50.925  58.112  0.00  0.00    +0.000 C 
ATOM     63  C   UNL     1      48.458  52.375  57.747  0.00  0.00    +0.000 C 
ENDBRANCH  60  62
ENDBRANCH   4  60
TORSDOF 17
ENDMDL
MODEL 6
REMARK VINA RESULT:      -5.2     19.616     25.413
REMARK  Name = 
REMARK  25 active torsions:
REMARK  status: ('A' for Active; 'I' for Inactive)
REMARK    1  A    between atoms: O_2  and  C_17
REMARK    2  A    between atoms: O_2  and  C_36
REMARK    3  A    between atoms: O_3  and  C_20
REMARK    4  A    between atoms: O_3  and  C_37
REMARK    5  A    between atoms: O_4  and  C_21
REMARK    6  A    between atoms: O_5  and  C_22
REMARK    7  A    between atoms: O_7  and  C_30
REMARK    8  A    between atoms: O_8  and  C_31
REMARK    9  A    between atoms: O_8  and  C_39
REMARK   10  A    between atoms: O_12  and  C_41
REMARK   11  A    between atoms: O_13  and  C_51
REMARK   12  A    between atoms: O_13  and  C_55
REMARK   13  A    between atoms: N_15  and  C_44
REMARK   14  A    between atoms: C_18  and  C_29
REMARK   15  A    between atoms: C_24  and  C_33
REMARK   16  A    between atoms: C_24  and  C_34
REMARK   17  A    between atoms: C_32  and  C_35
REMARK   18  A    between atoms: C_36  and  C_38
REMARK   19  A    between atoms: C_37  and  C_40
REMARK   20  A    between atoms: C_39  and  C_41
REMARK   21  A    between atoms: C_41  and  C_44
REMARK   22  A    between atoms: C_44  and  C_48
REMARK   23  A    between atoms: C_55  and  C_56
REMARK   24  A    between atoms: C_55  and  C_57
REMARK   25  A    between atoms: C_55  and  C_58
REMARK                            x       y       z     vdW  Elec       q    Type
REMARK                         _______ _______ _______ _____ _____    ______ ____
ROOT
ATOM      1  O   UNL     1      40.379  51.170  57.302  0.00  0.00    +0.000 OA
ATOM      2  O   UNL     1      44.355  50.167  51.978  0.00  0.00    +0.000 OA
ATOM      3  C   UNL     1      43.147  49.477  56.152  0.00  0.00    +0.000 C 
ATOM      4  C   UNL     1      42.399  50.501  57.056  0.00  0.00    +0.000 C 
ATOM      5  C   UNL     1      43.618  50.388  54.555  0.00  0.00    +0.000 C 
ATOM      6  C   UNL     1      41.108  50.660  56.153  0.00  0.00    +0.000 C 
ATOM      7  C   UNL     1      44.379  48.460  57.113  0.00  0.00    +0.000 C 
ATOM      8  C   UNL     1      45.684  47.107  56.882  0.00  0.00    +0.000 C 
ATOM      9  C   UNL     1      42.222  50.819  53.941  0.00  0.00    +0.000 C 
ATOM     10  C   UNL     1      41.251  51.538  54.928  0.00  0.00    +0.000 C 
ATOM     11  C   UNL     1      46.392  46.498  55.373  0.00  0.00    +0.000 C 
ATOM     12  C   UNL     1      41.245  50.282  58.114  0.00  0.00    +0.000 C 
ATOM     13  C   UNL     1      44.654  49.750  53.119  0.00  0.00    +0.000 C 
ATOM     14  C   UNL     1      46.997  47.659  57.606  0.00  0.00    +0.000 C 
ATOM     15  C   UNL     1      46.987  47.685  54.479  0.00  0.00    +0.000 C 
ATOM     16  C   UNL     1      44.333  51.775  54.841  0.00  0.00    +0.000 C 
ATOM     17  C   UNL     1      46.134  48.530  53.158  0.00  0.00    +0.000 C 
ATOM     18  C   UNL     1      48.102  48.377  56.703  0.00  0.00    +0.000 C 
ATOM     19  C   UNL     1      47.989  48.359  55.137  0.00  0.00    +0.000 C 
ATOM     20  C   UNL     1      47.632  45.555  55.781  0.00  0.00    +0.000 C 
ATOM     21  C   UNL     1      45.640  45.390  54.568  0.00  0.00    +0.000 C 
ATOM     22  C   UNL     1      48.888  49.352  54.442  0.00  0.00    +0.000 C 
ENDROOT
BRANCH  17  23
ATOM     23  O   UNL     1      46.100  47.588  52.085  0.00  0.00    +0.000 OA
ATOM     24  H   UNL     1      46.670  47.975  51.393  0.00  0.00    +0.000 HD
ENDBRANCH  17  23
BRANCH   9  25
ATOM     25  O   UNL     1      41.547  49.649  53.477  0.00  0.00    +0.000 OA
ATOM     26  H   UNL     1      42.128  48.891  53.668  0.00  0.00    +0.000 HD
ENDBRANCH   9  25
BRANCH   8  27
ATOM     27  O   UNL     1      45.207  46.003  57.677  0.00  0.00    +0.000 OA
ATOM     28  H   UNL     1      45.957  45.607  58.155  0.00  0.00    +0.000 HD
ENDBRANCH   8  27
BRANCH  18  29
ATOM     29  O   UNL     1      48.155  49.777  57.104  0.00  0.00    +0.000 OA
BRANCH  29  31
ATOM     30  O   UNL     1      49.194  50.213  59.062  0.00  0.00    +0.000 OA
ATOM     31  C   UNL     1      49.223  50.184  57.836  0.00  0.00    +0.000 C 
BRANCH  31  32
ATOM     32  C   UNL     1      50.391  50.754  57.024  0.00  0.00    +0.000 C 
BRANCH  32  33
ATOM     33  O   UNL     1      51.479  49.852  56.794  0.00  0.00    +0.000 OA
ATOM     34  H   UNL     1      51.375  49.133  57.446  0.00  0.00    +0.000 HD
ENDBRANCH  32  33
BRANCH  32  35
ATOM     35  C   UNL     1      50.870  52.063  57.706  0.00  0.00    +0.000 C 
BRANCH  35  36
ATOM     36  C   UNL     1      50.366  53.315  56.997  0.00  0.00    +0.000 A 
ATOM     37  C   UNL     1      49.749  53.198  55.740  0.00  0.00    +0.000 A 
ATOM     38  C   UNL     1      50.463  54.590  57.579  0.00  0.00    +0.000 A 
ATOM     39  C   UNL     1      49.268  54.327  55.073  0.00  0.00    +0.000 A 
ATOM     40  C   UNL     1      49.982  55.716  56.910  0.00  0.00    +0.000 A 
ATOM     41  C   UNL     1      49.388  55.585  55.656  0.00  0.00    +0.000 A 
ENDBRANCH  35  36
BRANCH  35  43
ATOM     42  O   UNL     1      52.554  51.360  59.927  0.00  0.00    +0.000 OA
ATOM     43  N   UNL     1      52.324  52.122  57.784  0.00  0.00    +0.000 N 
ATOM     44  C   UNL     1      53.020  51.866  58.920  0.00  0.00    +0.000 C 
ATOM     45  H   UNL     1      52.809  52.652  57.072  0.00  0.00    +0.000 HD
BRANCH  44  46
ATOM     46  O   UNL     1      54.304  52.240  58.733  0.00  0.00    +0.000 OA
BRANCH  46  47
ATOM     47  C   UNL     1      55.261  51.329  58.133  0.00  0.00    +0.000 C 
ATOM     48  C   UNL     1      55.726  51.831  56.762  0.00  0.00    +0.000 C 
ATOM     49  C   UNL     1      56.461  51.339  59.092  0.00  0.00    +0.000 C 
ATOM     50  C   UNL     1      54.701  49.904  58.062  0.00  0.00    +0.000 C 
ENDBRANCH  46  47
ENDBRANCH  44  46
ENDBRANCH  35  43
ENDBRANCH  32  35
ENDBRANCH  31  32
ENDBRANCH  29  31
ENDBRANCH  18  29
BRANCH   7  51
ATOM     51  O   UNL     1      45.272  49.354  56.745  0.00  0.00    +0.000 OA
BRANCH  51  53
ATOM     52  O   UNL     1      44.665  49.016  58.629  0.00  0.00    +0.000 OA
ATOM     53  C   UNL     1      45.351  49.837  58.028  0.00  0.00    +0.000 C 
BRANCH  53  54
ATOM     54  C   UNL     1      46.101  51.538  58.491  0.00  0.00    +0.000 A 
ATOM     55  C   UNL     1      46.365  52.630  57.554  0.00  0.00    +0.000 A 
ATOM     56  C   UNL     1      46.380  52.038  59.800  0.00  0.00    +0.000 A 
ATOM     57  C   UNL     1      46.817  53.939  57.864  0.00  0.00    +0.000 A 
ATOM     58  C   UNL     1      46.834  53.349  60.131  0.00  0.00    +0.000 A 
ATOM     59  C   UNL     1      47.052  54.300  59.165  0.00  0.00    +0.000 A 
ENDBRANCH  53  54
ENDBRANCH  51  53
ENDBRANCH   7  51
BRANCH   4  60
ATOM     60  O   UNL     1      43.149  51.724  57.242  0.00  0.00    +0.000 OA
BRANCH  60  62
ATOM     61  O   UNL     1      42.965  52.309  59.394  0.00  0.00    +0.000 OA
ATOM     62  C   UNL     1      42.891  52.633  58.211  0.00  0.00    +0.000 C 
ATOM     63  C   UNL     1      42.404  53.993  57.819  0.00  0.00    +0.000 C 
ENDBRANCH  60  62
ENDBRANCH   4  60
TORSDOF 17
ENDMDL
MODEL 7
REMARK VINA RESULT:      -5.1     19.539     24.895
REMARK  Name = 
REMARK  25 active torsions:
REMARK  status: ('A' for Active; 'I' for Inactive)
REMARK    1  A    between atoms: O_2  and  C_17
REMARK    2  A    between atoms: O_2  and  C_36
REMARK    3  A    between atoms: O_3  and  C_20
REMARK    4  A    between atoms: O_3  and  C_37
REMARK    5  A    between atoms: O_4  and  C_21
REMARK    6  A    between atoms: O_5  and  C_22
REMARK    7  A    between atoms: O_7  and  C_30
REMARK    8  A    between atoms: O_8  and  C_31
REMARK    9  A    between atoms: O_8  and  C_39
REMARK   10  A    between atoms: O_12  and  C_41
REMARK   11  A    between atoms: O_13  and  C_51
REMARK   12  A    between atoms: O_13  and  C_55
REMARK   13  A    between atoms: N_15  and  C_44
REMARK   14  A    between atoms: C_18  and  C_29
REMARK   15  A    between atoms: C_24  and  C_33
REMARK   16  A    between atoms: C_24  and  C_34
REMARK   17  A    between atoms: C_32  and  C_35
REMARK   18  A    between atoms: C_36  and  C_38
REMARK   19  A    between atoms: C_37  and  C_40
REMARK   20  A    between atoms: C_39  and  C_41
REMARK   21  A    between atoms: C_41  and  C_44
REMARK   22  A    between atoms: C_44  and  C_48
REMARK   23  A    between atoms: C_55  and  C_56
REMARK   24  A    between atoms: C_55  and  C_57
REMARK   25  A    between atoms: C_55  and  C_58
REMARK                            x       y       z     vdW  Elec       q    Type
REMARK                         _______ _______ _______ _____ _____    ______ ____
ROOT
ATOM      1  O   UNL     1      40.581  51.141  57.201  0.00  0.00    +0.000 OA
ATOM      2  O   UNL     1      44.522  49.934  51.894  0.00  0.00    +0.000 OA
ATOM      3  C   UNL     1      43.295  49.343  56.076  0.00  0.00    +0.000 C 
ATOM      4  C   UNL     1      42.580  50.403  56.965  0.00  0.00    +0.000 C 
ATOM      5  C   UNL     1      43.794  50.216  54.467  0.00  0.00    +0.000 C 
ATOM      6  C   UNL     1      41.294  50.591  56.060  0.00  0.00    +0.000 C 
ATOM      7  C   UNL     1      44.493  48.302  57.053  0.00  0.00    +0.000 C 
ATOM      8  C   UNL     1      45.754  46.904  56.841  0.00  0.00    +0.000 C 
ATOM      9  C   UNL     1      42.411  50.682  53.847  0.00  0.00    +0.000 C 
ATOM     10  C   UNL     1      41.464  51.446  54.822  0.00  0.00    +0.000 C 
ATOM     11  C   UNL     1      46.442  46.251  55.341  0.00  0.00    +0.000 C 
ATOM     12  C   UNL     1      41.419  50.237  58.026  0.00  0.00    +0.000 C 
ATOM     13  C   UNL     1      44.808  49.524  53.040  0.00  0.00    +0.000 C 
ATOM     14  C   UNL     1      47.085  47.425  57.557  0.00  0.00    +0.000 C 
ATOM     15  C   UNL     1      47.075  47.406  54.431  0.00  0.00    +0.000 C 
ATOM     16  C   UNL     1      44.552  51.584  54.732  0.00  0.00    +0.000 C 
ATOM     17  C   UNL     1      46.249  48.259  53.097  0.00  0.00    +0.000 C 
ATOM     18  C   UNL     1      48.211  48.094  56.645  0.00  0.00    +0.000 C 
ATOM     19  C   UNL     1      48.098  48.057  55.079  0.00  0.00    +0.000 C 
ATOM     20  C   UNL     1      47.652  45.275  55.762  0.00  0.00    +0.000 C 
ATOM     21  C   UNL     1      45.655  45.157  54.552  0.00  0.00    +0.000 C 
ATOM     22  C   UNL     1      49.028  49.010  54.369  0.00  0.00    +0.000 C 
ENDROOT
BRANCH  17  23
ATOM     23  O   UNL     1      46.184  47.303  52.038  0.00  0.00    +0.000 OA
ATOM     24  H   UNL     1      45.343  47.490  51.581  0.00  0.00    +0.000 HD
ENDBRANCH  17  23
BRANCH   9  25
ATOM     25  O   UNL     1      41.699  49.528  53.399  0.00  0.00    +0.000 OA
ATOM     26  H   UNL     1      42.127  48.753  53.808  0.00  0.00    +0.000 HD
ENDBRANCH   9  25
BRANCH   8  27
ATOM     27  O   UNL     1      45.243  45.828  57.652  0.00  0.00    +0.000 OA
ATOM     28  H   UNL     1      44.849  46.198  58.462  0.00  0.00    +0.000 HD
ENDBRANCH   8  27
BRANCH  18  29
ATOM     29  O   UNL     1      48.310  49.497  57.025  0.00  0.00    +0.000 OA
BRANCH  29  31
ATOM     30  O   UNL     1      49.450  50.964  58.309  0.00  0.00    +0.000 OA
ATOM     31  C   UNL     1      49.405  49.886  57.725  0.00  0.00    +0.000 C 
BRANCH  31  32
ATOM     32  C   UNL     1      50.623  48.966  57.595  0.00  0.00    +0.000 C 
BRANCH  32  33
ATOM     33  O   UNL     1      51.054  48.339  58.808  0.00  0.00    +0.000 OA
ATOM     34  H   UNL     1      50.433  47.603  58.967  0.00  0.00    +0.000 HD
ENDBRANCH  32  33
BRANCH  32  35
ATOM     35  C   UNL     1      51.774  49.766  56.928  0.00  0.00    +0.000 C 
BRANCH  35  36
ATOM     36  C   UNL     1      52.715  48.879  56.120  0.00  0.00    +0.000 A 
ATOM     37  C   UNL     1      54.075  48.818  56.463  0.00  0.00    +0.000 A 
ATOM     38  C   UNL     1      52.256  48.084  55.056  0.00  0.00    +0.000 A 
ATOM     39  C   UNL     1      54.957  48.005  55.746  0.00  0.00    +0.000 A 
ATOM     40  C   UNL     1      53.140  47.273  54.341  0.00  0.00    +0.000 A 
ATOM     41  C   UNL     1      54.489  47.236  54.684  0.00  0.00    +0.000 A 
ENDBRANCH  35  36
BRANCH  35  43
ATOM     42  O   UNL     1      52.173  52.606  57.110  0.00  0.00    +0.000 OA
ATOM     43  N   UNL     1      52.554  50.501  57.914  0.00  0.00    +0.000 N 
ATOM     44  C   UNL     1      52.766  51.839  57.850  0.00  0.00    +0.000 C 
ATOM     45  H   UNL     1      53.199  49.973  58.487  0.00  0.00    +0.000 HD
BRANCH  44  46
ATOM     46  O   UNL     1      53.713  52.170  58.753  0.00  0.00    +0.000 OA
BRANCH  46  47
ATOM     47  C   UNL     1      55.113  52.220  58.374  0.00  0.00    +0.000 C 
ATOM     48  C   UNL     1      55.277  52.404  56.862  0.00  0.00    +0.000 C 
ATOM     49  C   UNL     1      55.664  53.466  59.083  0.00  0.00    +0.000 C 
ATOM     50  C   UNL     1      55.870  50.990  58.887  0.00  0.00    +0.000 C 
ENDBRANCH  46  47
ENDBRANCH  44  46
ENDBRANCH  35  43
ENDBRANCH  32  35
ENDBRANCH  31  32
ENDBRANCH  29  31
ENDBRANCH  18  29
BRANCH   7  51
ATOM     51  O   UNL     1      45.414  49.161  56.671  0.00  0.00    +0.000 OA
BRANCH  51  53
ATOM     52  O   UNL     1      44.809  48.876  58.564  0.00  0.00    +0.000 OA
ATOM     53  C   UNL     1      45.472  49.694  57.936  0.00  0.00    +0.000 C 
BRANCH  53  54
ATOM     54  C   UNL     1      46.166  51.435  58.337  0.00  0.00    +0.000 A 
ATOM     55  C   UNL     1      46.470  51.937  59.677  0.00  0.00    +0.000 A 
ATOM     56  C   UNL     1      46.610  52.428  57.411  0.00  0.00    +0.000 A 
ATOM     57  C   UNL     1      47.082  53.172  60.014  0.00  0.00    +0.000 A 
ATOM     58  C   UNL     1      47.226  53.673  57.729  0.00  0.00    +0.000 A 
ATOM     59  C   UNL     1      47.464  54.047  59.030  0.00  0.00    +0.000 A 
ENDBRANCH  53  54
ENDBRANCH  51  53
ENDBRANCH   7  51
BRANCH   4  60
ATOM     60  O   UNL     1      43.368  51.604  57.134  0.00  0.00    +0.000 OA
BRANCH  60  62
ATOM     61  O   UNL     1      42.591  53.702  57.136  0.00  0.00    +0.000 OA
ATOM     62  C   UNL     1      42.936  52.713  57.779  0.00  0.00    +0.000 C 
ATOM     63  C   UNL     1      42.997  52.754  59.273  0.00  0.00    +0.000 C 
ENDBRANCH  60  62
ENDBRANCH   4  60
TORSDOF 17
ENDMDL
MODEL 8
REMARK VINA RESULT:      -5.1     19.914     25.339
REMARK  Name = 
REMARK  25 active torsions:
REMARK  status: ('A' for Active; 'I' for Inactive)
REMARK    1  A    between atoms: O_2  and  C_17
REMARK    2  A    between atoms: O_2  and  C_36
REMARK    3  A    between atoms: O_3  and  C_20
REMARK    4  A    between atoms: O_3  and  C_37
REMARK    5  A    between atoms: O_4  and  C_21
REMARK    6  A    between atoms: O_5  and  C_22
REMARK    7  A    between atoms: O_7  and  C_30
REMARK    8  A    between atoms: O_8  and  C_31
REMARK    9  A    between atoms: O_8  and  C_39
REMARK   10  A    between atoms: O_12  and  C_41
REMARK   11  A    between atoms: O_13  and  C_51
REMARK   12  A    between atoms: O_13  and  C_55
REMARK   13  A    between atoms: N_15  and  C_44
REMARK   14  A    between atoms: C_18  and  C_29
REMARK   15  A    between atoms: C_24  and  C_33
REMARK   16  A    between atoms: C_24  and  C_34
REMARK   17  A    between atoms: C_32  and  C_35
REMARK   18  A    between atoms: C_36  and  C_38
REMARK   19  A    between atoms: C_37  and  C_40
REMARK   20  A    between atoms: C_39  and  C_41
REMARK   21  A    between atoms: C_41  and  C_44
REMARK   22  A    between atoms: C_44  and  C_48
REMARK   23  A    between atoms: C_55  and  C_56
REMARK   24  A    between atoms: C_55  and  C_57
REMARK   25  A    between atoms: C_55  and  C_58
REMARK                            x       y       z     vdW  Elec       q    Type
REMARK                         _______ _______ _______ _____ _____    ______ ____
ROOT
ATOM      1  O   UNL     1      40.600  51.515  57.204  0.00  0.00    +0.000 OA
ATOM      2  O   UNL     1      44.471  49.973  51.931  0.00  0.00    +0.000 OA
ATOM      3  C   UNL     1      43.201  49.536  56.121  0.00  0.00    +0.000 C 
ATOM      4  C   UNL     1      42.550  50.654  56.987  0.00  0.00    +0.000 C 
ATOM      5  C   UNL     1      43.755  50.347  54.497  0.00  0.00    +0.000 C 
ATOM      6  C   UNL     1      41.280  50.902  56.075  0.00  0.00    +0.000 C 
ATOM      7  C   UNL     1      44.333  48.443  57.120  0.00  0.00    +0.000 C 
ATOM      8  C   UNL     1      45.507  46.968  56.939  0.00  0.00    +0.000 C 
ATOM      9  C   UNL     1      42.405  50.884  53.864  0.00  0.00    +0.000 C 
ATOM     10  C   UNL     1      41.503  51.722  54.822  0.00  0.00    +0.000 C 
ATOM     11  C   UNL     1      46.158  46.246  55.453  0.00  0.00    +0.000 C 
ATOM     12  C   UNL     1      41.380  50.579  58.048  0.00  0.00    +0.000 C 
ATOM     13  C   UNL     1      44.729  49.568  53.086  0.00  0.00    +0.000 C 
ATOM     14  C   UNL     1      46.866  47.421  57.649  0.00  0.00    +0.000 C 
ATOM     15  C   UNL     1      46.860  47.343  54.523  0.00  0.00    +0.000 C 
ATOM     16  C   UNL     1      44.595  51.671  54.739  0.00  0.00    +0.000 C 
ATOM     17  C   UNL     1      46.090  48.219  53.171  0.00  0.00    +0.000 C 
ATOM     18  C   UNL     1      48.033  48.004  56.727  0.00  0.00    +0.000 C 
ATOM     19  C   UNL     1      47.920  47.944  55.162  0.00  0.00    +0.000 C 
ATOM     20  C   UNL     1      47.305  45.207  55.897  0.00  0.00    +0.000 C 
ATOM     21  C   UNL     1      45.307  45.187  54.683  0.00  0.00    +0.000 C 
ATOM     22  C   UNL     1      48.907  48.826  54.438  0.00  0.00    +0.000 C 
ENDROOT
BRANCH  17  23
ATOM     23  O   UNL     1      45.970  47.249  52.130  0.00  0.00    +0.000 OA
ATOM     24  H   UNL     1      46.450  47.633  51.372  0.00  0.00    +0.000 HD
ENDBRANCH  17  23
BRANCH   9  25
ATOM     25  O   UNL     1      41.625  49.766  53.436  0.00  0.00    +0.000 OA
ATOM     26  H   UNL     1      42.135  48.964  53.652  0.00  0.00    +0.000 HD
ENDBRANCH   9  25
BRANCH   8  27
ATOM     27  O   UNL     1      44.931  45.940  57.768  0.00  0.00    +0.000 OA
ATOM     28  H   UNL     1      44.032  46.208  58.029  0.00  0.00    +0.000 HD
ENDBRANCH   8  27
BRANCH  18  29
ATOM     29  O   UNL     1      48.215  49.405  57.082  0.00  0.00    +0.000 OA
BRANCH  29  31
ATOM     30  O   UNL     1      49.175  50.567  58.764  0.00  0.00    +0.000 OA
ATOM     31  C   UNL     1      49.266  49.724  57.878  0.00  0.00    +0.000 C 
BRANCH  31  32
ATOM     32  C   UNL     1      50.601  49.082  57.483  0.00  0.00    +0.000 C 
BRANCH  32  33
ATOM     33  O   UNL     1      51.362  48.531  58.564  0.00  0.00    +0.000 OA
ATOM     34  H   UNL     1      51.073  49.005  59.366  0.00  0.00    +0.000 HD
ENDBRANCH  32  33
BRANCH  32  35
ATOM     35  C   UNL     1      51.425  50.121  56.677  0.00  0.00    +0.000 C 
BRANCH  35  36
ATOM     36  C   UNL     1      52.714  50.524  57.385  0.00  0.00    +0.000 A 
ATOM     37  C   UNL     1      52.683  51.535  58.360  0.00  0.00    +0.000 A 
ATOM     38  C   UNL     1      53.939  49.888  57.120  0.00  0.00    +0.000 A 
ATOM     39  C   UNL     1      53.846  51.917  59.031  0.00  0.00    +0.000 A 
ATOM     40  C   UNL     1      55.100  50.272  57.792  0.00  0.00    +0.000 A 
ATOM     41  C   UNL     1      55.055  51.288  58.745  0.00  0.00    +0.000 A 
ENDBRANCH  35  36
BRANCH  35  43
ATOM     42  O   UNL     1      51.278  51.606  54.222  0.00  0.00    +0.000 OA
ATOM     43  N   UNL     1      50.647  51.320  56.400  0.00  0.00    +0.000 N 
ATOM     44  C   UNL     1      50.730  52.008  55.234  0.00  0.00    +0.000 C 
ATOM     45  H   UNL     1      50.267  51.824  57.191  0.00  0.00    +0.000 HD
BRANCH  44  46
ATOM     46  O   UNL     1      50.084  53.185  55.380  0.00  0.00    +0.000 OA
BRANCH  46  47
ATOM     47  C   UNL     1      50.794  54.443  55.239  0.00  0.00    +0.000 C 
ATOM     48  C   UNL     1      51.023  54.793  53.765  0.00  0.00    +0.000 C 
ATOM     49  C   UNL     1      49.853  55.491  55.852  0.00  0.00    +0.000 C 
ATOM     50  C   UNL     1      52.103  54.433  56.036  0.00  0.00    +0.000 C 
ENDBRANCH  46  47
ENDBRANCH  44  46
ENDBRANCH  35  43
ENDBRANCH  32  35
ENDBRANCH  31  32
ENDBRANCH  29  31
ENDBRANCH  18  29
BRANCH   7  51
ATOM     51  O   UNL     1      45.305  49.238  56.726  0.00  0.00    +0.000 OA
BRANCH  51  53
ATOM     52  O   UNL     1      44.663  49.035  58.617  0.00  0.00    +0.000 OA
ATOM     53  C   UNL     1      45.400  49.783  57.983  0.00  0.00    +0.000 C 
BRANCH  53  54
ATOM     54  C   UNL     1      46.241  51.461  58.365  0.00  0.00    +0.000 A 
ATOM     55  C   UNL     1      46.693  52.429  57.366  0.00  0.00    +0.000 A 
ATOM     56  C   UNL     1      46.428  52.068  59.645  0.00  0.00    +0.000 A 
ATOM     57  C   UNL     1      47.220  53.725  57.601  0.00  0.00    +0.000 A 
ATOM     58  C   UNL     1      46.955  53.368  59.901  0.00  0.00    +0.000 A 
ATOM     59  C   UNL     1      47.352  54.198  58.881  0.00  0.00    +0.000 A 
ENDBRANCH  53  54
ENDBRANCH  51  53
ENDBRANCH   7  51
BRANCH   4  60
ATOM     60  O   UNL     1      43.409  51.809  57.137  0.00  0.00    +0.000 OA
BRANCH  60  62
ATOM     61  O   UNL     1      42.812  53.964  57.160  0.00  0.00    +0.000 OA
ATOM     62  C   UNL     1      43.057  52.939  57.792  0.00  0.00    +0.000 C 
ATOM     63  C   UNL     1      43.087  52.950  59.288  0.00  0.00    +0.000 C 
ENDBRANCH  60  62
ENDBRANCH   4  60
TORSDOF 17
ENDMDL
MODEL 9
REMARK VINA RESULT:      -5.0     19.237     25.368
REMARK  Name = 
REMARK  25 active torsions:
REMARK  status: ('A' for Active; 'I' for Inactive)
REMARK    1  A    between atoms: O_2  and  C_17
REMARK    2  A    between atoms: O_2  and  C_36
REMARK    3  A    between atoms: O_3  and  C_20
REMARK    4  A    between atoms: O_3  and  C_37
REMARK    5  A    between atoms: O_4  and  C_21
REMARK    6  A    between atoms: O_5  and  C_22
REMARK    7  A    between atoms: O_7  and  C_30
REMARK    8  A    between atoms: O_8  and  C_31
REMARK    9  A    between atoms: O_8  and  C_39
REMARK   10  A    between atoms: O_12  and  C_41
REMARK   11  A    between atoms: O_13  and  C_51
REMARK   12  A    between atoms: O_13  and  C_55
REMARK   13  A    between atoms: N_15  and  C_44
REMARK   14  A    between atoms: C_18  and  C_29
REMARK   15  A    between atoms: C_24  and  C_33
REMARK   16  A    between atoms: C_24  and  C_34
REMARK   17  A    between atoms: C_32  and  C_35
REMARK   18  A    between atoms: C_36  and  C_38
REMARK   19  A    between atoms: C_37  and  C_40
REMARK   20  A    between atoms: C_39  and  C_41
REMARK   21  A    between atoms: C_41  and  C_44
REMARK   22  A    between atoms: C_44  and  C_48
REMARK   23  A    between atoms: C_55  and  C_56
REMARK   24  A    between atoms: C_55  and  C_57
REMARK   25  A    between atoms: C_55  and  C_58
REMARK                            x       y       z     vdW  Elec       q    Type
REMARK                         _______ _______ _______ _____ _____    ______ ____
ROOT
ATOM      1  O   UNL     1      40.519  51.625  57.650  0.00  0.00    +0.000 OA
ATOM      2  O   UNL     1      42.958  49.357  51.813  0.00  0.00    +0.000 OA
ATOM      3  C   UNL     1      42.751  49.437  56.207  0.00  0.00    +0.000 C 
ATOM      4  C   UNL     1      42.346  50.669  57.069  0.00  0.00    +0.000 C 
ATOM      5  C   UNL     1      42.899  50.040  54.414  0.00  0.00    +0.000 C 
ATOM      6  C   UNL     1      40.893  50.864  56.469  0.00  0.00    +0.000 C 
ATOM      7  C   UNL     1      44.081  48.416  57.023  0.00  0.00    +0.000 C 
ATOM      8  C   UNL     1      45.158  46.885  56.735  0.00  0.00    +0.000 C 
ATOM      9  C   UNL     1      41.441  50.558  54.069  0.00  0.00    +0.000 C 
ATOM     10  C   UNL     1      40.812  51.531  55.113  0.00  0.00    +0.000 C 
ATOM     11  C   UNL     1      45.415  45.978  55.231  0.00  0.00    +0.000 C 
ATOM     12  C   UNL     1      41.471  50.758  58.383  0.00  0.00    +0.000 C 
ATOM     13  C   UNL     1      43.487  49.073  52.910  0.00  0.00    +0.000 C 
ATOM     14  C   UNL     1      46.654  47.359  57.036  0.00  0.00    +0.000 C 
ATOM     15  C   UNL     1      45.881  46.937  54.037  0.00  0.00    +0.000 C 
ATOM     16  C   UNL     1      43.788  51.348  54.288  0.00  0.00    +0.000 C 
ATOM     17  C   UNL     1      44.812  47.688  52.819  0.00  0.00    +0.000 C 
ATOM     18  C   UNL     1      47.566  47.789  55.798  0.00  0.00    +0.000 C 
ATOM     19  C   UNL     1      47.071  47.562  54.325  0.00  0.00    +0.000 C 
ATOM     20  C   UNL     1      46.625  44.949  55.501  0.00  0.00    +0.000 C 
ATOM     21  C   UNL     1      44.390  44.875  54.819  0.00  0.00    +0.000 C 
ATOM     22  C   UNL     1      47.861  48.318  53.285  0.00  0.00    +0.000 C 
ENDROOT
BRANCH  17  23
ATOM     23  O   UNL     1      44.429  46.615  51.959  0.00  0.00    +0.000 OA
ATOM     24  H   UNL     1      43.474  46.494  52.118  0.00  0.00    +0.000 HD
ENDBRANCH  17  23
BRANCH   9  25
ATOM     25  O   UNL     1      40.567  49.431  53.977  0.00  0.00    +0.000 OA
ATOM     26  H   UNL     1      40.944  48.833  53.307  0.00  0.00    +0.000 HD
ENDBRANCH   9  25
BRANCH   8  27
ATOM     27  O   UNL     1      44.791  45.979  57.794  0.00  0.00    +0.000 OA
ATOM     28  H   UNL     1      45.595  45.562  58.151  0.00  0.00    +0.000 HD
ENDBRANCH   8  27
BRANCH  18  29
ATOM     29  O   UNL     1      47.846  49.213  55.932  0.00  0.00    +0.000 OA
BRANCH  29  31
ATOM     30  O   UNL     1      49.514  50.735  55.892  0.00  0.00    +0.000 OA
ATOM     31  C   UNL     1      49.137  49.589  56.111  0.00  0.00    +0.000 C 
BRANCH  31  32
ATOM     32  C   UNL     1      50.108  48.450  56.442  0.00  0.00    +0.000 C 
BRANCH  32  33
ATOM     33  O   UNL     1      50.545  48.390  57.804  0.00  0.00    +0.000 OA
ATOM     34  H   UNL     1      50.997  47.531  57.905  0.00  0.00    +0.000 HD
ENDBRANCH  32  33
BRANCH  32  35
ATOM     35  C   UNL     1      51.308  48.527  55.461  0.00  0.00    +0.000 C 
BRANCH  35  36
ATOM     36  C   UNL     1      51.306  47.395  54.440  0.00  0.00    +0.000 A 
ATOM     37  C   UNL     1      50.594  46.216  54.713  0.00  0.00    +0.000 A 
ATOM     38  C   UNL     1      51.969  47.506  53.206  0.00  0.00    +0.000 A 
ATOM     39  C   UNL     1      50.566  45.168  53.790  0.00  0.00    +0.000 A 
ATOM     40  C   UNL     1      51.941  46.456  52.286  0.00  0.00    +0.000 A 
ATOM     41  C   UNL     1      51.243  45.287  52.579  0.00  0.00    +0.000 A 
ENDBRANCH  35  36
BRANCH  35  43
ATOM     42  O   UNL     1      53.153  50.701  55.825  0.00  0.00    +0.000 OA
ATOM     43  N   UNL     1      52.579  48.515  56.172  0.00  0.00    +0.000 N 
ATOM     44  C   UNL     1      53.429  49.573  56.196  0.00  0.00    +0.000 C 
ATOM     45  H   UNL     1      52.980  47.615  56.399  0.00  0.00    +0.000 HD
BRANCH  44  46
ATOM     46  O   UNL     1      54.606  49.169  56.720  0.00  0.00    +0.000 OA
BRANCH  46  47
ATOM     47  C   UNL     1      55.672  48.686  55.863  0.00  0.00    +0.000 C 
ATOM     48  C   UNL     1      55.387  48.992  54.389  0.00  0.00    +0.000 C 
ATOM     49  C   UNL     1      56.912  49.482  56.298  0.00  0.00    +0.000 C 
ATOM     50  C   UNL     1      55.940  47.195  56.096  0.00  0.00    +0.000 C 
ENDBRANCH  46  47
ENDBRANCH  44  46
ENDBRANCH  35  43
ENDBRANCH  32  35
ENDBRANCH  31  32
ENDBRANCH  29  31
ENDBRANCH  18  29
BRANCH   7  51
ATOM     51  O   UNL     1      44.936  49.124  56.314  0.00  0.00    +0.000 OA
BRANCH  51  53
ATOM     52  O   UNL     1      44.726  49.189  58.310  0.00  0.00    +0.000 OA
ATOM     53  C   UNL     1      45.374  49.769  57.445  0.00  0.00    +0.000 C 
BRANCH  53  54
ATOM     54  C   UNL     1      46.457  51.349  57.428  0.00  0.00    +0.000 A 
ATOM     55  C   UNL     1      46.526  52.317  56.331  0.00  0.00    +0.000 A 
ATOM     56  C   UNL     1      47.232  51.884  58.502  0.00  0.00    +0.000 A 
ATOM     57  C   UNL     1      47.226  53.550  56.317  0.00  0.00    +0.000 A 
ATOM     58  C   UNL     1      47.942  53.120  58.506  0.00  0.00    +0.000 A 
ATOM     59  C   UNL     1      47.940  53.954  57.415  0.00  0.00    +0.000 A 
ENDBRANCH  53  54
ENDBRANCH  51  53
ENDBRANCH   7  51
BRANCH   4  60
ATOM     60  O   UNL     1      43.229  51.797  56.869  0.00  0.00    +0.000 OA
BRANCH  60  62
ATOM     61  O   UNL     1      43.718  52.664  58.873  0.00  0.00    +0.000 OA
ATOM     62  C   UNL     1      43.330  52.844  57.721  0.00  0.00    +0.000 C 
ATOM     63  C   UNL     1      42.852  54.190  57.276  0.00  0.00    +0.000 C 
ENDBRANCH  60  62
ENDBRANCH   4  60
TORSDOF 17
ENDMDL
