MODEL 1
REMARK VINA RESULT:      -6.5      0.000      0.000
REMARK  Name = 
REMARK  13 active torsions:
REMARK  status: ('A' for Active; 'I' for Inactive)
REMARK    1  A    between atoms: O_1  and  C_13
REMARK    2  A    between atoms: O_1  and  C_19
REMARK    3  A    between atoms: O_3  and  C_14
REMARK    4  A    between atoms: O_4  and  C_22
REMARK    5  A    between atoms: O_5  and  C_24
REMARK    6  A    between atoms: O_6  and  C_26
REMARK    7  A    between atoms: O_8  and  C_30
REMARK    8  A    between atoms: O_11  and  C_35
REMARK    9  A    between atoms: O_11  and  C_39
REMARK   10  A    between atoms: N_12  and  C_21
REMARK   11  A    between atoms: C_14  and  C_25
REMARK   12  A    between atoms: C_23  and  C_29
REMARK   13  A    between atoms: C_25  and  C_30
REMARK                            x       y       z     vdW  Elec       q    Type
REMARK                         _______ _______ _______ _____ _____    ______ ____
ROOT
ATOM      1  O   UNL     1      59.904  40.350  70.311  0.00  0.00    +0.000 OA
ATOM      2  O   UNL     1      60.632  36.134  67.155  0.00  0.00    +0.000 OA
ATOM      3  C   UNL     1      64.967  40.391  69.493  0.00  0.00    +0.000 C 
ATOM      4  C   UNL     1      66.551  38.785  68.338  0.00  0.00    +0.000 C 
ATOM      5  C   UNL     1      66.176  40.256  68.565  0.00  0.00    +0.000 C 
ATOM      6  C   UNL     1      65.378  38.016  67.714  0.00  0.00    +0.000 C 
ATOM      7  C   UNL     1      63.799  39.546  69.025  0.00  0.00    +0.000 A 
ATOM      8  C   UNL     1      64.001  38.409  68.219  0.00  0.00    +0.000 A 
ATOM      9  C   UNL     1      62.492  39.861  69.442  0.00  0.00    +0.000 A 
ATOM     10  C   UNL     1      62.890  37.637  67.833  0.00  0.00    +0.000 A 
ATOM     11  C   UNL     1      61.386  39.076  69.059  0.00  0.00    +0.000 A 
ATOM     12  C   UNL     1      61.590  37.964  68.251  0.00  0.00    +0.000 A 
ATOM     13  C   UNL     1      60.022  39.419  69.521  0.00  0.00    +0.000 C 
ATOM     14  C   UNL     1      60.441  37.135  67.841  0.00  0.00    +0.000 C 
ATOM     15  C   UNL     1      58.857  38.631  69.052  0.00  0.00    +0.000 A 
ATOM     16  C   UNL     1      59.075  37.513  68.244  0.00  0.00    +0.000 A 
ATOM     17  C   UNL     1      57.538  38.961  69.400  0.00  0.00    +0.000 A 
ATOM     18  C   UNL     1      57.998  36.736  67.792  0.00  0.00    +0.000 A 
ATOM     19  C   UNL     1      56.463  38.200  68.927  0.00  0.00    +0.000 A 
ATOM     20  C   UNL     1      56.693  37.081  68.132  0.00  0.00    +0.000 A 
ENDROOT
BRANCH   4  21
ATOM     21  O   UNL     1      66.942  38.169  69.572  0.00  0.00    +0.000 OA
ATOM     22  H   UNL     1      67.905  37.993  69.513  0.00  0.00    +0.000 HD
ENDBRANCH   4  21
BRANCH   9  23
ATOM     23  O   UNL     1      62.343  40.971  70.239  0.00  0.00    +0.000 OA
ATOM     24  H   UNL     1      62.229  40.677  71.173  0.00  0.00    +0.000 HD
ENDBRANCH   9  23
BRANCH  10  25
ATOM     25  O   UNL     1      63.143  36.556  67.024  0.00  0.00    +0.000 OA
ATOM     26  H   UNL     1      63.173  36.858  66.088  0.00  0.00    +0.000 HD
ENDBRANCH  10  25
BRANCH   4  28
ATOM     27  O   UNL     1      67.759  37.990  66.373  0.00  0.00    +0.000 OA
ATOM     28  C   UNL     1      67.757  38.696  67.388  0.00  0.00    +0.000 C 
BRANCH  28  29
ATOM     29  C   UNL     1      68.996  39.511  67.752  0.00  0.00    +0.000 C 
BRANCH  29  30
ATOM     30  O   UNL     1      69.661  38.963  68.885  0.00  0.00    +0.000 OA
ATOM     31  H   UNL     1      70.123  39.710  69.316  0.00  0.00    +0.000 HD
ENDBRANCH  29  30
ENDBRANCH  28  29
ENDBRANCH   4  28
BRANCH  17  32
ATOM     32  O   UNL     1      57.237  40.088  70.118  0.00  0.00    +0.000 OA
ATOM     33  C   UNL     1      56.327  39.782  71.177  0.00  0.00    +0.000 C 
ENDBRANCH  17  32
BRANCH   3  34
ATOM     34  O   UNL     1      65.326  39.897  70.794  0.00  0.00    +0.000 OA
BRANCH  34  36
ATOM     35  O   UNL     1      67.333  40.256  71.973  0.00  0.00    +0.000 OA
ATOM     36  C   UNL     1      66.107  40.838  71.536  0.00  0.00    +0.000 C 
ATOM     37  C   UNL     1      65.273  41.372  72.703  0.00  0.00    +0.000 C 
ATOM     38  C   UNL     1      65.059  40.291  73.765  0.00  0.00    +0.000 C 
ATOM     39  C   UNL     1      66.423  39.713  74.196  0.00  0.00    +0.000 C 
ATOM     40  C   UNL     1      67.172  39.215  72.945  0.00  0.00    +0.000 C 
ATOM     41  C   UNL     1      68.566  38.689  73.269  0.00  0.00    +0.000 C 
BRANCH  38  42
ATOM     42  N   UNL     1      64.339  40.838  74.929  0.00  0.00    +0.000 NA
ATOM     43  H   UNL     1      64.123  40.093  75.588  0.00  0.00    +0.000 HD
ATOM     44  H   UNL     1      63.436  41.182  74.585  0.00  0.00    +0.000 HD
ENDBRANCH  38  42
BRANCH  39  45
ATOM     45  O   UNL     1      67.156  40.747  74.878  0.00  0.00    +0.000 OA
ATOM     46  H   UNL     1      66.524  41.447  75.114  0.00  0.00    +0.000 HD
ENDBRANCH  39  45
ENDBRANCH  34  36
ENDBRANCH   3  34
TORSDOF 11
ENDMDL
MODEL 2
REMARK VINA RESULT:      -6.3     11.184     16.055
REMARK  Name = 
REMARK  13 active torsions:
REMARK  status: ('A' for Active; 'I' for Inactive)
REMARK    1  A    between atoms: O_1  and  C_13
REMARK    2  A    between atoms: O_1  and  C_19
REMARK    3  A    between atoms: O_3  and  C_14
REMARK    4  A    between atoms: O_4  and  C_22
REMARK    5  A    between atoms: O_5  and  C_24
REMARK    6  A    between atoms: O_6  and  C_26
REMARK    7  A    between atoms: O_8  and  C_30
REMARK    8  A    between atoms: O_11  and  C_35
REMARK    9  A    between atoms: O_11  and  C_39
REMARK   10  A    between atoms: N_12  and  C_21
REMARK   11  A    between atoms: C_14  and  C_25
REMARK   12  A    between atoms: C_23  and  C_29
REMARK   13  A    between atoms: C_25  and  C_30
REMARK                            x       y       z     vdW  Elec       q    Type
REMARK                         _______ _______ _______ _____ _____    ______ ____
ROOT
ATOM      1  O   UNL     1      46.898  36.034  62.686  0.00  0.00    +0.000 OA
ATOM      2  O   UNL     1      49.726  38.365  66.538  0.00  0.00    +0.000 OA
ATOM      3  C   UNL     1      51.667  34.382  61.769  0.00  0.00    +0.000 C 
ATOM      4  C   UNL     1      53.923  34.953  62.770  0.00  0.00    +0.000 C 
ATOM      5  C   UNL     1      53.011  33.834  62.251  0.00  0.00    +0.000 C 
ATOM      6  C   UNL     1      53.260  35.695  63.939  0.00  0.00    +0.000 C 
ATOM      7  C   UNL     1      51.002  35.250  62.818  0.00  0.00    +0.000 A 
ATOM      8  C   UNL     1      51.760  35.895  63.815  0.00  0.00    +0.000 A 
ATOM      9  C   UNL     1      49.612  35.468  62.774  0.00  0.00    +0.000 A 
ATOM     10  C   UNL     1      51.105  36.715  64.751  0.00  0.00    +0.000 A 
ATOM     11  C   UNL     1      48.965  36.300  63.709  0.00  0.00    +0.000 A 
ATOM     12  C   UNL     1      49.716  36.921  64.700  0.00  0.00    +0.000 A 
ATOM     13  C   UNL     1      47.504  36.525  63.634  0.00  0.00    +0.000 C 
ATOM     14  C   UNL     1      49.052  37.793  65.687  0.00  0.00    +0.000 C 
ATOM     15  C   UNL     1      46.822  37.341  64.667  0.00  0.00    +0.000 A 
ATOM     16  C   UNL     1      47.588  37.963  65.654  0.00  0.00    +0.000 A 
ATOM     17  C   UNL     1      45.430  37.521  64.683  0.00  0.00    +0.000 A 
ATOM     18  C   UNL     1      46.979  38.755  66.641  0.00  0.00    +0.000 A 
ATOM     19  C   UNL     1      44.821  38.289  65.683  0.00  0.00    +0.000 A 
ATOM     20  C   UNL     1      45.597  38.915  66.655  0.00  0.00    +0.000 A 
ENDROOT
BRANCH   4  21
ATOM     21  O   UNL     1      54.238  35.874  61.719  0.00  0.00    +0.000 OA
ATOM     22  H   UNL     1      53.533  35.791  61.042  0.00  0.00    +0.000 HD
ENDBRANCH   4  21
BRANCH   9  23
ATOM     23  O   UNL     1      48.914  34.830  61.777  0.00  0.00    +0.000 OA
ATOM     24  H   UNL     1      49.468  34.818  60.961  0.00  0.00    +0.000 HD
ENDBRANCH   9  23
BRANCH  10  25
ATOM     25  O   UNL     1      51.890  37.297  65.717  0.00  0.00    +0.000 OA
ATOM     26  H   UNL     1      52.826  37.028  65.571  0.00  0.00    +0.000 HD
ENDBRANCH  10  25
BRANCH   4  28
ATOM     27  O   UNL     1      55.572  33.177  63.059  0.00  0.00    +0.000 OA
ATOM     28  C   UNL     1      55.254  34.355  63.259  0.00  0.00    +0.000 C 
BRANCH  28  29
ATOM     29  C   UNL     1      56.188  35.276  64.039  0.00  0.00    +0.000 C 
BRANCH  29  30
ATOM     30  O   UNL     1      56.815  36.223  63.182  0.00  0.00    +0.000 OA
ATOM     31  H   UNL     1      56.207  36.989  63.133  0.00  0.00    +0.000 HD
ENDBRANCH  29  30
ENDBRANCH  28  29
ENDBRANCH   4  28
BRANCH  17  32
ATOM     32  O   UNL     1      44.603  36.877  63.802  0.00  0.00    +0.000 OA
ATOM     33  C   UNL     1      43.765  35.944  64.486  0.00  0.00    +0.000 C 
ENDBRANCH  17  32
BRANCH   3  34
ATOM     34  O   UNL     1      51.895  35.230  60.631  0.00  0.00    +0.000 OA
BRANCH  34  36
ATOM     35  O   UNL     1      51.800  33.898  58.691  0.00  0.00    +0.000 OA
ATOM     36  C   UNL     1      51.107  34.845  59.500  0.00  0.00    +0.000 C 
ATOM     37  C   UNL     1      50.713  36.098  58.714  0.00  0.00    +0.000 C 
ATOM     38  C   UNL     1      51.927  36.709  58.011  0.00  0.00    +0.000 C 
ATOM     39  C   UNL     1      52.621  35.635  57.149  0.00  0.00    +0.000 C 
ATOM     40  C   UNL     1      52.964  34.426  58.040  0.00  0.00    +0.000 C 
ATOM     41  C   UNL     1      53.592  33.280  57.255  0.00  0.00    +0.000 C 
BRANCH  38  42
ATOM     42  N   UNL     1      51.524  37.857  57.179  0.00  0.00    +0.000 NA
ATOM     43  H   UNL     1      51.545  37.599  56.194  0.00  0.00    +0.000 HD
ATOM     44  H   UNL     1      52.244  38.578  57.298  0.00  0.00    +0.000 HD
ENDBRANCH  38  42
BRANCH  39  45
ATOM     45  O   UNL     1      51.730  35.270  56.078  0.00  0.00    +0.000 OA
ATOM     46  H   UNL     1      51.272  36.077  55.792  0.00  0.00    +0.000 HD
ENDBRANCH  39  45
ENDBRANCH  34  36
ENDBRANCH   3  34
TORSDOF 11
ENDMDL
MODEL 3
REMARK VINA RESULT:      -6.2     11.756     15.824
REMARK  Name = 
REMARK  13 active torsions:
REMARK  status: ('A' for Active; 'I' for Inactive)
REMARK    1  A    between atoms: O_1  and  C_13
REMARK    2  A    between atoms: O_1  and  C_19
REMARK    3  A    between atoms: O_3  and  C_14
REMARK    4  A    between atoms: O_4  and  C_22
REMARK    5  A    between atoms: O_5  and  C_24
REMARK    6  A    between atoms: O_6  and  C_26
REMARK    7  A    between atoms: O_8  and  C_30
REMARK    8  A    between atoms: O_11  and  C_35
REMARK    9  A    between atoms: O_11  and  C_39
REMARK   10  A    between atoms: N_12  and  C_21
REMARK   11  A    between atoms: C_14  and  C_25
REMARK   12  A    between atoms: C_23  and  C_29
REMARK   13  A    between atoms: C_25  and  C_30
REMARK                            x       y       z     vdW  Elec       q    Type
REMARK                         _______ _______ _______ _____ _____    ______ ____
ROOT
ATOM      1  O   UNL     1      48.621  38.656  68.765  0.00  0.00    +0.000 OA
ATOM      2  O   UNL     1      53.749  39.635  67.760  0.00  0.00    +0.000 OA
ATOM      3  C   UNL     1      49.570  35.712  64.674  0.00  0.00    +0.000 C 
ATOM      4  C   UNL     1      51.573  35.465  63.141  0.00  0.00    +0.000 C 
ATOM      5  C   UNL     1      50.460  34.735  63.903  0.00  0.00    +0.000 C 
ATOM      6  C   UNL     1      52.460  36.263  64.108  0.00  0.00    +0.000 C 
ATOM      7  C   UNL     1      50.382  36.640  65.555  0.00  0.00    +0.000 A 
ATOM      8  C   UNL     1      51.730  36.925  65.263  0.00  0.00    +0.000 A 
ATOM      9  C   UNL     1      49.775  37.278  66.653  0.00  0.00    +0.000 A 
ATOM     10  C   UNL     1      52.437  37.815  66.091  0.00  0.00    +0.000 A 
ATOM     11  C   UNL     1      50.487  38.177  67.471  0.00  0.00    +0.000 A 
ATOM     12  C   UNL     1      51.822  38.442  67.187  0.00  0.00    +0.000 A 
ATOM     13  C   UNL     1      49.823  38.846  68.612  0.00  0.00    +0.000 C 
ATOM     14  C   UNL     1      52.581  39.379  68.037  0.00  0.00    +0.000 C 
ATOM     15  C   UNL     1      50.601  39.732  69.511  0.00  0.00    +0.000 A 
ATOM     16  C   UNL     1      51.940  39.994  69.213  0.00  0.00    +0.000 A 
ATOM     17  C   UNL     1      50.037  40.329  70.650  0.00  0.00    +0.000 A 
ATOM     18  C   UNL     1      52.704  40.838  70.034  0.00  0.00    +0.000 A 
ATOM     19  C   UNL     1      50.808  41.150  71.481  0.00  0.00    +0.000 A 
ATOM     20  C   UNL     1      52.138  41.413  71.167  0.00  0.00    +0.000 A 
ENDROOT
BRANCH   4  21
ATOM     21  O   UNL     1      51.015  36.340  62.152  0.00  0.00    +0.000 OA
ATOM     22  H   UNL     1      51.026  35.855  61.299  0.00  0.00    +0.000 HD
ENDBRANCH   4  21
BRANCH   9  23
ATOM     23  O   UNL     1      48.454  36.981  66.893  0.00  0.00    +0.000 OA
ATOM     24  H   UNL     1      47.965  37.008  66.037  0.00  0.00    +0.000 HD
ENDBRANCH   9  23
BRANCH  10  25
ATOM     25  O   UNL     1      53.756  38.035  65.776  0.00  0.00    +0.000 OA
ATOM     26  H   UNL     1      53.908  39.004  65.698  0.00  0.00    +0.000 HD
ENDBRANCH  10  25
BRANCH   4  28
ATOM     27  O   UNL     1      52.258  33.225  62.459  0.00  0.00    +0.000 OA
ATOM     28  C   UNL     1      52.451  34.445  62.397  0.00  0.00    +0.000 C 
BRANCH  28  29
ATOM     29  C   UNL     1      53.614  34.993  61.573  0.00  0.00    +0.000 C 
BRANCH  29  30
ATOM     30  O   UNL     1      53.155  35.592  60.367  0.00  0.00    +0.000 OA
ATOM     31  H   UNL     1      52.701  36.419  60.630  0.00  0.00    +0.000 HD
ENDBRANCH  29  30
ENDBRANCH  28  29
ENDBRANCH   4  28
BRANCH  17  32
ATOM     32  O   UNL     1      48.758  40.055  71.055  0.00  0.00    +0.000 OA
ATOM     33  C   UNL     1      47.979  41.253  71.106  0.00  0.00    +0.000 C 
ENDBRANCH  17  32
BRANCH   3  34
ATOM     34  O   UNL     1      48.882  36.551  63.731  0.00  0.00    +0.000 OA
BRANCH  34  36
ATOM     35  O   UNL     1      46.918  35.254  63.641  0.00  0.00    +0.000 OA
ATOM     36  C   UNL     1      47.465  36.539  63.927  0.00  0.00    +0.000 C 
ATOM     37  C   UNL     1      46.832  37.640  63.073  0.00  0.00    +0.000 C 
ATOM     38  C   UNL     1      46.908  37.292  61.585  0.00  0.00    +0.000 C 
ATOM     39  C   UNL     1      46.293  35.898  61.348  0.00  0.00    +0.000 C 
ATOM     40  C   UNL     1      47.001  34.879  62.261  0.00  0.00    +0.000 C 
ATOM     41  C   UNL     1      46.407  33.479  62.145  0.00  0.00    +0.000 C 
BRANCH  38  42
ATOM     42  N   UNL     1      46.211  38.308  60.775  0.00  0.00    +0.000 NA
ATOM     43  H   UNL     1      45.224  38.334  61.022  0.00  0.00    +0.000 HD
ATOM     44  H   UNL     1      46.252  37.991  59.801  0.00  0.00    +0.000 HD
ENDBRANCH  38  42
BRANCH  39  45
ATOM     45  O   UNL     1      44.883  35.973  61.628  0.00  0.00    +0.000 OA
ATOM     46  H   UNL     1      44.488  36.579  60.980  0.00  0.00    +0.000 HD
ENDBRANCH  39  45
ENDBRANCH  34  36
ENDBRANCH   3  34
TORSDOF 11
ENDMDL
MODEL 4
REMARK VINA RESULT:      -6.0      3.132      8.999
REMARK  Name = 
REMARK  13 active torsions:
REMARK  status: ('A' for Active; 'I' for Inactive)
REMARK    1  A    between atoms: O_1  and  C_13
REMARK    2  A    between atoms: O_1  and  C_19
REMARK    3  A    between atoms: O_3  and  C_14
REMARK    4  A    between atoms: O_4  and  C_22
REMARK    5  A    between atoms: O_5  and  C_24
REMARK    6  A    between atoms: O_6  and  C_26
REMARK    7  A    between atoms: O_8  and  C_30
REMARK    8  A    between atoms: O_11  and  C_35
REMARK    9  A    between atoms: O_11  and  C_39
REMARK   10  A    between atoms: N_12  and  C_21
REMARK   11  A    between atoms: C_14  and  C_25
REMARK   12  A    between atoms: C_23  and  C_29
REMARK   13  A    between atoms: C_25  and  C_30
REMARK                            x       y       z     vdW  Elec       q    Type
REMARK                         _______ _______ _______ _____ _____    ______ ____
ROOT
ATOM      1  O   UNL     1      69.537  41.591  67.841  0.00  0.00    +0.000 OA
ATOM      2  O   UNL     1      70.376  38.082  63.936  0.00  0.00    +0.000 OA
ATOM      3  C   UNL     1      66.412  37.719  69.086  0.00  0.00    +0.000 C 
ATOM      4  C   UNL     1      65.751  35.575  67.908  0.00  0.00    +0.000 C 
ATOM      5  C   UNL     1      66.128  36.224  69.246  0.00  0.00    +0.000 C 
ATOM      6  C   UNL     1      66.885  35.742  66.886  0.00  0.00    +0.000 C 
ATOM      7  C   UNL     1      67.425  37.987  67.991  0.00  0.00    +0.000 A 
ATOM      8  C   UNL     1      67.617  37.071  66.938  0.00  0.00    +0.000 A 
ATOM      9  C   UNL     1      68.151  39.193  67.984  0.00  0.00    +0.000 A 
ATOM     10  C   UNL     1      68.547  37.374  65.928  0.00  0.00    +0.000 A 
ATOM     11  C   UNL     1      69.072  39.493  66.962  0.00  0.00    +0.000 A 
ATOM     12  C   UNL     1      69.269  38.579  65.934  0.00  0.00    +0.000 A 
ATOM     13  C   UNL     1      69.814  40.774  66.968  0.00  0.00    +0.000 C 
ATOM     14  C   UNL     1      70.233  38.879  64.858  0.00  0.00    +0.000 C 
ATOM     15  C   UNL     1      70.836  41.048  65.929  0.00  0.00    +0.000 A 
ATOM     16  C   UNL     1      71.022  40.123  64.900  0.00  0.00    +0.000 A 
ATOM     17  C   UNL     1      71.620  42.213  65.936  0.00  0.00    +0.000 A 
ATOM     18  C   UNL     1      71.970  40.355  63.891  0.00  0.00    +0.000 A 
ATOM     19  C   UNL     1      72.583  42.430  64.944  0.00  0.00    +0.000 A 
ATOM     20  C   UNL     1      72.751  41.507  63.916  0.00  0.00    +0.000 A 
ENDROOT
BRANCH   4  21
ATOM     21  O   UNL     1      64.540  36.143  67.395  0.00  0.00    +0.000 OA
ATOM     22  H   UNL     1      64.268  36.851  68.017  0.00  0.00    +0.000 HD
ENDBRANCH   4  21
BRANCH   9  23
ATOM     23  O   UNL     1      67.922  40.063  69.023  0.00  0.00    +0.000 OA
ATOM     24  H   UNL     1      68.070  39.586  69.873  0.00  0.00    +0.000 HD
ENDBRANCH   9  23
BRANCH  10  25
ATOM     25  O   UNL     1      68.713  36.432  64.941  0.00  0.00    +0.000 OA
ATOM     26  H   UNL     1      67.832  36.204  64.567  0.00  0.00    +0.000 HD
ENDBRANCH  10  25
BRANCH   4  28
ATOM     27  O   UNL     1      65.363  33.562  69.232  0.00  0.00    +0.000 OA
ATOM     28  C   UNL     1      65.492  34.072  68.113  0.00  0.00    +0.000 C 
BRANCH  28  29
ATOM     29  C   UNL     1      65.419  33.199  66.863  0.00  0.00    +0.000 C 
BRANCH  29  30
ATOM     30  O   UNL     1      64.309  33.556  66.047  0.00  0.00    +0.000 OA
ATOM     31  H   UNL     1      64.280  34.535  66.043  0.00  0.00    +0.000 HD
ENDBRANCH  29  30
ENDBRANCH  28  29
ENDBRANCH   4  28
BRANCH  17  32
ATOM     32  O   UNL     1      71.556  43.126  66.954  0.00  0.00    +0.000 OA
ATOM     33  C   UNL     1      71.468  44.455  66.435  0.00  0.00    +0.000 C 
ENDBRANCH  17  32
BRANCH   3  34
ATOM     34  O   UNL     1      65.200  38.379  68.684  0.00  0.00    +0.000 OA
BRANCH  34  36
ATOM     35  O   UNL     1      62.954  37.995  69.280  0.00  0.00    +0.000 OA
ATOM     36  C   UNL     1      64.233  38.428  69.737  0.00  0.00    +0.000 C 
ATOM     37  C   UNL     1      64.191  39.846  70.312  0.00  0.00    +0.000 C 
ATOM     38  C   UNL     1      63.565  40.824  69.315  0.00  0.00    +0.000 C 
ATOM     39  C   UNL     1      62.185  40.298  68.872  0.00  0.00    +0.000 C 
ATOM     40  C   UNL     1      62.349  38.870  68.319  0.00  0.00    +0.000 C 
ATOM     41  C   UNL     1      61.019  38.240  67.919  0.00  0.00    +0.000 C 
BRANCH  38  42
ATOM     42  N   UNL     1      63.439  42.166  69.912  0.00  0.00    +0.000 NA
ATOM     43  H   UNL     1      63.849  42.863  69.293  0.00  0.00    +0.000 HD
ATOM     44  H   UNL     1      64.013  42.169  70.761  0.00  0.00    +0.000 HD
ENDBRANCH  38  42
BRANCH  39  45
ATOM     45  O   UNL     1      61.302  40.330  70.009  0.00  0.00    +0.000 OA
ATOM     46  H   UNL     1      61.747  39.864  70.737  0.00  0.00    +0.000 HD
ENDBRANCH  39  45
ENDBRANCH  34  36
ENDBRANCH   3  34
TORSDOF 11
ENDMDL
MODEL 5
REMARK VINA RESULT:      -6.0      3.883      9.682
REMARK  Name = 
REMARK  13 active torsions:
REMARK  status: ('A' for Active; 'I' for Inactive)
REMARK    1  A    between atoms: O_1  and  C_13
REMARK    2  A    between atoms: O_1  and  C_19
REMARK    3  A    between atoms: O_3  and  C_14
REMARK    4  A    between atoms: O_4  and  C_22
REMARK    5  A    between atoms: O_5  and  C_24
REMARK    6  A    between atoms: O_6  and  C_26
REMARK    7  A    between atoms: O_8  and  C_30
REMARK    8  A    between atoms: O_11  and  C_35
REMARK    9  A    between atoms: O_11  and  C_39
REMARK   10  A    between atoms: N_12  and  C_21
REMARK   11  A    between atoms: C_14  and  C_25
REMARK   12  A    between atoms: C_23  and  C_29
REMARK   13  A    between atoms: C_25  and  C_30
REMARK                            x       y       z     vdW  Elec       q    Type
REMARK                         _______ _______ _______ _____ _____    ______ ____
ROOT
ATOM      1  O   UNL     1      64.438  37.046  67.158  0.00  0.00    +0.000 OA
ATOM      2  O   UNL     1      60.860  40.336  69.312  0.00  0.00    +0.000 OA
ATOM      3  C   UNL     1      59.996  35.303  65.275  0.00  0.00    +0.000 C 
ATOM      4  C   UNL     1      57.572  35.890  65.724  0.00  0.00    +0.000 C 
ATOM      5  C   UNL     1      58.618  35.541  64.656  0.00  0.00    +0.000 C 
ATOM      6  C   UNL     1      57.980  37.157  66.489  0.00  0.00    +0.000 C 
ATOM      7  C   UNL     1      60.420  36.453  66.168  0.00  0.00    +0.000 A 
ATOM      8  C   UNL     1      59.466  37.299  66.766  0.00  0.00    +0.000 A 
ATOM      9  C   UNL     1      61.783  36.654  66.456  0.00  0.00    +0.000 A 
ATOM     10  C   UNL     1      59.904  38.336  67.609  0.00  0.00    +0.000 A 
ATOM     11  C   UNL     1      62.212  37.688  67.311  0.00  0.00    +0.000 A 
ATOM     12  C   UNL     1      61.267  38.530  67.886  0.00  0.00    +0.000 A 
ATOM     13  C   UNL     1      63.650  37.872  67.610  0.00  0.00    +0.000 C 
ATOM     14  C   UNL     1      61.702  39.618  68.781  0.00  0.00    +0.000 C 
ATOM     15  C   UNL     1      64.097  39.008  68.451  0.00  0.00    +0.000 A 
ATOM     16  C   UNL     1      63.138  39.844  69.026  0.00  0.00    +0.000 A 
ATOM     17  C   UNL     1      65.453  39.270  68.701  0.00  0.00    +0.000 A 
ATOM     18  C   UNL     1      63.523  40.922  69.839  0.00  0.00    +0.000 A 
ATOM     19  C   UNL     1      65.836  40.360  69.490  0.00  0.00    +0.000 A 
ATOM     20  C   UNL     1      64.871  41.180  70.068  0.00  0.00    +0.000 A 
ENDROOT
BRANCH   4  21
ATOM     21  O   UNL     1      57.401  34.799  66.637  0.00  0.00    +0.000 OA
ATOM     22  H   UNL     1      56.911  34.097  66.158  0.00  0.00    +0.000 HD
ENDBRANCH   4  21
BRANCH   9  23
ATOM     23  O   UNL     1      62.678  35.796  65.861  0.00  0.00    +0.000 OA
ATOM     24  H   UNL     1      63.528  35.830  66.361  0.00  0.00    +0.000 HD
ENDBRANCH   9  23
BRANCH  10  25
ATOM     25  O   UNL     1      58.932  39.147  68.143  0.00  0.00    +0.000 OA
ATOM     26  H   UNL     1      58.195  39.229  67.496  0.00  0.00    +0.000 HD
ENDBRANCH  10  25
BRANCH   4  28
ATOM     27  O   UNL     1      55.508  37.124  65.311  0.00  0.00    +0.000 OA
ATOM     28  C   UNL     1      56.209  36.138  65.056  0.00  0.00    +0.000 C 
BRANCH  28  29
ATOM     29  C   UNL     1      55.720  35.092  64.057  0.00  0.00    +0.000 C 
BRANCH  29  30
ATOM     30  O   UNL     1      55.444  33.852  64.698  0.00  0.00    +0.000 OA
ATOM     31  H   UNL     1      54.528  33.615  64.448  0.00  0.00    +0.000 HD
ENDBRANCH  29  30
ENDBRANCH  28  29
ENDBRANCH   4  28
BRANCH  17  32
ATOM     32  O   UNL     1      66.454  38.548  68.106  0.00  0.00    +0.000 OA
ATOM     33  C   UNL     1      67.653  39.321  68.026  0.00  0.00    +0.000 C 
ENDBRANCH  17  32
BRANCH   3  34
ATOM     34  O   UNL     1      59.929  34.142  66.120  0.00  0.00    +0.000 OA
BRANCH  34  36
ATOM     35  O   UNL     1      59.304  32.093  65.141  0.00  0.00    +0.000 OA
ATOM     36  C   UNL     1      60.390  32.961  65.457  0.00  0.00    +0.000 C 
ATOM     37  C   UNL     1      61.442  32.274  66.331  0.00  0.00    +0.000 C 
ATOM     38  C   UNL     1      60.804  31.660  67.579  0.00  0.00    +0.000 C 
ATOM     39  C   UNL     1      59.646  30.730  67.163  0.00  0.00    +0.000 C 
ATOM     40  C   UNL     1      58.659  31.523  66.287  0.00  0.00    +0.000 C 
ATOM     41  C   UNL     1      57.513  30.661  65.769  0.00  0.00    +0.000 C 
BRANCH  38  42
ATOM     42  N   UNL     1      61.806  30.918  68.366  0.00  0.00    +0.000 NA
ATOM     43  H   UNL     1      62.633  30.741  67.799  0.00  0.00    +0.000 HD
ATOM     44  H   UNL     1      61.400  29.999  68.571  0.00  0.00    +0.000 HD
ENDBRANCH  38  42
BRANCH  39  45
ATOM     45  O   UNL     1      60.202  29.607  66.453  0.00  0.00    +0.000 OA
ATOM     46  H   UNL     1      60.845  29.178  67.043  0.00  0.00    +0.000 HD
ENDBRANCH  39  45
ENDBRANCH  34  36
ENDBRANCH   3  34
TORSDOF 11
ENDMDL
MODEL 6
REMARK VINA RESULT:      -5.9     35.180     37.988
REMARK  Name = 
REMARK  13 active torsions:
REMARK  status: ('A' for Active; 'I' for Inactive)
REMARK    1  A    between atoms: O_1  and  C_13
REMARK    2  A    between atoms: O_1  and  C_19
REMARK    3  A    between atoms: O_3  and  C_14
REMARK    4  A    between atoms: O_4  and  C_22
REMARK    5  A    between atoms: O_5  and  C_24
REMARK    6  A    between atoms: O_6  and  C_26
REMARK    7  A    between atoms: O_8  and  C_30
REMARK    8  A    between atoms: O_11  and  C_35
REMARK    9  A    between atoms: O_11  and  C_39
REMARK   10  A    between atoms: N_12  and  C_21
REMARK   11  A    between atoms: C_14  and  C_25
REMARK   12  A    between atoms: C_23  and  C_29
REMARK   13  A    between atoms: C_25  and  C_30
REMARK                            x       y       z     vdW  Elec       q    Type
REMARK                         _______ _______ _______ _____ _____    ______ ____
ROOT
ATOM      1  O   UNL     1      58.640  74.409  85.514  0.00  0.00    +0.000 OA
ATOM      2  O   UNL     1      57.920  69.686  83.181  0.00  0.00    +0.000 OA
ATOM      3  C   UNL     1      57.906  75.659  80.594  0.00  0.00    +0.000 C 
ATOM      4  C   UNL     1      57.674  74.293  78.472  0.00  0.00    +0.000 C 
ATOM      5  C   UNL     1      57.160  75.501  79.267  0.00  0.00    +0.000 C 
ATOM      6  C   UNL     1      57.500  72.998  79.279  0.00  0.00    +0.000 C 
ATOM      7  C   UNL     1      57.905  74.375  81.399  0.00  0.00    +0.000 A 
ATOM      8  C   UNL     1      57.751  73.123  80.771  0.00  0.00    +0.000 A 
ATOM      9  C   UNL     1      58.117  74.416  82.790  0.00  0.00    +0.000 A 
ATOM     10  C   UNL     1      57.786  71.956  81.554  0.00  0.00    +0.000 A 
ATOM     11  C   UNL     1      58.162  73.241  83.565  0.00  0.00    +0.000 A 
ATOM     12  C   UNL     1      57.994  72.010  82.943  0.00  0.00    +0.000 A 
ATOM     13  C   UNL     1      58.400  73.309  85.024  0.00  0.00    +0.000 C 
ATOM     14  C   UNL     1      58.035  70.771  83.742  0.00  0.00    +0.000 C 
ATOM     15  C   UNL     1      58.371  72.073  85.842  0.00  0.00    +0.000 A 
ATOM     16  C   UNL     1      58.205  70.842  85.205  0.00  0.00    +0.000 A 
ATOM     17  C   UNL     1      58.515  72.092  87.238  0.00  0.00    +0.000 A 
ATOM     18  C   UNL     1      58.185  69.649  85.945  0.00  0.00    +0.000 A 
ATOM     19  C   UNL     1      58.469  70.905  87.978  0.00  0.00    +0.000 A 
ATOM     20  C   UNL     1      58.315  69.682  87.330  0.00  0.00    +0.000 A 
ENDROOT
BRANCH   4  21
ATOM     21  O   UNL     1      59.051  74.470  78.120  0.00  0.00    +0.000 OA
ATOM     22  H   UNL     1      59.194  74.001  77.270  0.00  0.00    +0.000 HD
ENDBRANCH   4  21
BRANCH   9  23
ATOM     23  O   UNL     1      58.277  75.658  83.358  0.00  0.00    +0.000 OA
ATOM     24  H   UNL     1      57.578  76.259  83.006  0.00  0.00    +0.000 HD
ENDBRANCH   9  23
BRANCH  10  25
ATOM     25  O   UNL     1      57.602  70.765  80.894  0.00  0.00    +0.000 OA
ATOM     26  H   UNL     1      56.855  70.280  81.313  0.00  0.00    +0.000 HD
ENDBRANCH  10  25
BRANCH   4  28
ATOM     27  O   UNL     1      55.712  73.773  77.117  0.00  0.00    +0.000 OA
ATOM     28  C   UNL     1      56.885  74.162  77.158  0.00  0.00    +0.000 C 
BRANCH  28  29
ATOM     29  C   UNL     1      57.618  74.514  75.866  0.00  0.00    +0.000 C 
BRANCH  29  30
ATOM     30  O   UNL     1      57.950  75.897  75.820  0.00  0.00    +0.000 OA
ATOM     31  H   UNL     1      58.229  76.078  74.899  0.00  0.00    +0.000 HD
ENDBRANCH  29  30
ENDBRANCH  28  29
ENDBRANCH   4  28
BRANCH  17  32
ATOM     32  O   UNL     1      58.598  73.263  87.944  0.00  0.00    +0.000 OA
ATOM     33  C   UNL     1      59.878  73.386  88.567  0.00  0.00    +0.000 C 
ENDBRANCH  17  32
BRANCH   3  34
ATOM     34  O   UNL     1      59.284  75.959  80.315  0.00  0.00    +0.000 OA
BRANCH  34  36
ATOM     35  O   UNL     1      60.704  77.535  79.292  0.00  0.00    +0.000 OA
ATOM     36  C   UNL     1      59.488  77.342  80.010  0.00  0.00    +0.000 C 
ATOM     37  C   UNL     1      59.448  78.153  81.307  0.00  0.00    +0.000 C 
ATOM     38  C   UNL     1      60.684  77.874  82.167  0.00  0.00    +0.000 C 
ATOM     39  C   UNL     1      61.959  78.110  81.332  0.00  0.00    +0.000 C 
ATOM     40  C   UNL     1      61.884  77.251  80.054  0.00  0.00    +0.000 C 
ATOM     41  C   UNL     1      63.075  77.474  79.129  0.00  0.00    +0.000 C 
BRANCH  38  42
ATOM     42  N   UNL     1      60.688  78.729  83.368  0.00  0.00    +0.000 NA
ATOM     43  H   UNL     1      59.832  79.279  83.406  0.00  0.00    +0.000 HD
ATOM     44  H   UNL     1      61.452  79.402  83.250  0.00  0.00    +0.000 HD
ENDBRANCH  38  42
BRANCH  39  45
ATOM     45  O   UNL     1      62.044  79.513  81.024  0.00  0.00    +0.000 OA
ATOM     46  H   UNL     1      61.299  79.955  81.466  0.00  0.00    +0.000 HD
ENDBRANCH  39  45
ENDBRANCH  34  36
ENDBRANCH   3  34
TORSDOF 11
ENDMDL
MODEL 7
REMARK VINA RESULT:      -5.9     16.366     18.465
REMARK  Name = 
REMARK  13 active torsions:
REMARK  status: ('A' for Active; 'I' for Inactive)
REMARK    1  A    between atoms: O_1  and  C_13
REMARK    2  A    between atoms: O_1  and  C_19
REMARK    3  A    between atoms: O_3  and  C_14
REMARK    4  A    between atoms: O_4  and  C_22
REMARK    5  A    between atoms: O_5  and  C_24
REMARK    6  A    between atoms: O_6  and  C_26
REMARK    7  A    between atoms: O_8  and  C_30
REMARK    8  A    between atoms: O_11  and  C_35
REMARK    9  A    between atoms: O_11  and  C_39
REMARK   10  A    between atoms: N_12  and  C_21
REMARK   11  A    between atoms: C_14  and  C_25
REMARK   12  A    between atoms: C_23  and  C_29
REMARK   13  A    between atoms: C_25  and  C_30
REMARK                            x       y       z     vdW  Elec       q    Type
REMARK                         _______ _______ _______ _____ _____    ______ ____
ROOT
ATOM      1  O   UNL     1      66.875  49.594  58.169  0.00  0.00    +0.000 OA
ATOM      2  O   UNL     1      63.144  47.649  54.920  0.00  0.00    +0.000 OA
ATOM      3  C   UNL     1      62.729  52.350  59.403  0.00  0.00    +0.000 C 
ATOM      4  C   UNL     1      60.399  52.513  58.421  0.00  0.00    +0.000 C 
ATOM      5  C   UNL     1      61.234  52.459  59.707  0.00  0.00    +0.000 C 
ATOM      6  C   UNL     1      60.626  51.254  57.572  0.00  0.00    +0.000 C 
ATOM      7  C   UNL     1      63.030  51.209  58.451  0.00  0.00    +0.000 A 
ATOM      8  C   UNL     1      62.049  50.722  57.566  0.00  0.00    +0.000 A 
ATOM      9  C   UNL     1      64.324  50.657  58.402  0.00  0.00    +0.000 A 
ATOM     10  C   UNL     1      62.381  49.682  56.680  0.00  0.00    +0.000 A 
ATOM     11  C   UNL     1      64.652  49.623  57.504  0.00  0.00    +0.000 A 
ATOM     12  C   UNL     1      63.675  49.135  56.644  0.00  0.00    +0.000 A 
ATOM     13  C   UNL     1      66.023  49.067  57.461  0.00  0.00    +0.000 C 
ATOM     14  C   UNL     1      64.003  48.051  55.700  0.00  0.00    +0.000 C 
ATOM     15  C   UNL     1      66.337  47.929  56.565  0.00  0.00    +0.000 A 
ATOM     16  C   UNL     1      65.348  47.451  55.703  0.00  0.00    +0.000 A 
ATOM     17  C   UNL     1      67.601  47.317  56.543  0.00  0.00    +0.000 A 
ATOM     18  C   UNL     1      65.614  46.383  54.831  0.00  0.00    +0.000 A 
ATOM     19  C   UNL     1      67.856  46.235  55.692  0.00  0.00    +0.000 A 
ATOM     20  C   UNL     1      66.866  45.776  54.828  0.00  0.00    +0.000 A 
ENDROOT
BRANCH   4  21
ATOM     21  O   UNL     1      60.722  53.683  57.659  0.00  0.00    +0.000 OA
ATOM     22  H   UNL     1      61.447  53.436  57.046  0.00  0.00    +0.000 HD
ENDBRANCH   4  21
BRANCH   9  23
ATOM     23  O   UNL     1      65.254  51.172  59.274  0.00  0.00    +0.000 OA
ATOM     24  H   UNL     1      65.464  50.488  59.952  0.00  0.00    +0.000 HD
ENDBRANCH   9  23
BRANCH  10  25
ATOM     25  O   UNL     1      61.377  49.228  55.860  0.00  0.00    +0.000 OA
ATOM     26  H   UNL     1      61.508  48.265  55.699  0.00  0.00    +0.000 HD
ENDBRANCH  10  25
BRANCH   4  28
ATOM     27  O   UNL     1      58.188  51.605  58.913  0.00  0.00    +0.000 OA
ATOM     28  C   UNL     1      58.904  52.604  58.774  0.00  0.00    +0.000 C 
BRANCH  28  29
ATOM     29  C   UNL     1      58.307  54.000  58.932  0.00  0.00    +0.000 C 
BRANCH  29  30
ATOM     30  O   UNL     1      58.430  54.466  60.271  0.00  0.00    +0.000 OA
ATOM     31  H   UNL     1      59.099  53.893  60.697  0.00  0.00    +0.000 HD
ENDBRANCH  29  30
ENDBRANCH  28  29
ENDBRANCH   4  28
BRANCH  17  32
ATOM     32  O   UNL     1      68.595  47.672  57.415  0.00  0.00    +0.000 OA
ATOM     33  C   UNL     1      69.712  46.788  57.293  0.00  0.00    +0.000 C 
ENDBRANCH  17  32
BRANCH   3  34
ATOM     34  O   UNL     1      63.154  53.552  58.738  0.00  0.00    +0.000 OA
BRANCH  34  36
ATOM     35  O   UNL     1      63.954  54.443  60.766  0.00  0.00    +0.000 OA
ATOM     36  C   UNL     1      64.258  54.177  59.399  0.00  0.00    +0.000 C 
ATOM     37  C   UNL     1      64.645  55.446  58.636  0.00  0.00    +0.000 C 
ATOM     38  C   UNL     1      63.577  56.530  58.796  0.00  0.00    +0.000 C 
ATOM     39  C   UNL     1      63.305  56.771  60.295  0.00  0.00    +0.000 C 
ATOM     40  C   UNL     1      62.933  55.431  60.956  0.00  0.00    +0.000 C 
ATOM     41  C   UNL     1      62.715  55.561  62.460  0.00  0.00    +0.000 C 
BRANCH  38  42
ATOM     42  N   UNL     1      64.001  57.781  58.140  0.00  0.00    +0.000 NA
ATOM     43  H   UNL     1      63.284  58.495  58.255  0.00  0.00    +0.000 HD
ATOM     44  H   UNL     1      64.048  57.587  57.134  0.00  0.00    +0.000 HD
ENDBRANCH  38  42
BRANCH  39  45
ATOM     45  O   UNL     1      64.489  57.343  60.882  0.00  0.00    +0.000 OA
ATOM     46  H   UNL     1      65.239  57.114  60.308  0.00  0.00    +0.000 HD
ENDBRANCH  39  45
ENDBRANCH  34  36
ENDBRANCH   3  34
TORSDOF 11
ENDMDL
MODEL 8
REMARK VINA RESULT:      -5.9      4.794     10.447
REMARK  Name = 
REMARK  13 active torsions:
REMARK  status: ('A' for Active; 'I' for Inactive)
REMARK    1  A    between atoms: O_1  and  C_13
REMARK    2  A    between atoms: O_1  and  C_19
REMARK    3  A    between atoms: O_3  and  C_14
REMARK    4  A    between atoms: O_4  and  C_22
REMARK    5  A    between atoms: O_5  and  C_24
REMARK    6  A    between atoms: O_6  and  C_26
REMARK    7  A    between atoms: O_8  and  C_30
REMARK    8  A    between atoms: O_11  and  C_35
REMARK    9  A    between atoms: O_11  and  C_39
REMARK   10  A    between atoms: N_12  and  C_21
REMARK   11  A    between atoms: C_14  and  C_25
REMARK   12  A    between atoms: C_23  and  C_29
REMARK   13  A    between atoms: C_25  and  C_30
REMARK                            x       y       z     vdW  Elec       q    Type
REMARK                         _______ _______ _______ _____ _____    ______ ____
ROOT
ATOM      1  O   UNL     1      71.404  43.406  67.562  0.00  0.00    +0.000 OA
ATOM      2  O   UNL     1      71.377  42.951  62.265  0.00  0.00    +0.000 OA
ATOM      3  C   UNL     1      69.644  38.645  66.829  0.00  0.00    +0.000 C 
ATOM      4  C   UNL     1      68.982  37.339  64.761  0.00  0.00    +0.000 C 
ATOM      5  C   UNL     1      69.695  37.291  66.118  0.00  0.00    +0.000 C 
ATOM      6  C   UNL     1      69.628  38.388  63.845  0.00  0.00    +0.000 C 
ATOM      7  C   UNL     1      70.135  39.769  65.939  0.00  0.00    +0.000 A 
ATOM      8  C   UNL     1      70.091  39.658  64.536  0.00  0.00    +0.000 A 
ATOM      9  C   UNL     1      70.594  40.970  66.512  0.00  0.00    +0.000 A 
ATOM     10  C   UNL     1      70.531  40.737  63.749  0.00  0.00    +0.000 A 
ATOM     11  C   UNL     1      71.022  42.051  65.717  0.00  0.00    +0.000 A 
ATOM     12  C   UNL     1      70.991  41.930  64.332  0.00  0.00    +0.000 A 
ATOM     13  C   UNL     1      71.487  43.310  66.342  0.00  0.00    +0.000 C 
ATOM     14  C   UNL     1      71.439  43.053  63.487  0.00  0.00    +0.000 C 
ATOM     15  C   UNL     1      72.005  44.413  65.498  0.00  0.00    +0.000 A 
ATOM     16  C   UNL     1      71.965  44.281  64.109  0.00  0.00    +0.000 A 
ATOM     17  C   UNL     1      72.528  45.595  66.046  0.00  0.00    +0.000 A 
ATOM     18  C   UNL     1      72.435  45.310  63.278  0.00  0.00    +0.000 A 
ATOM     19  C   UNL     1      73.020  46.610  65.216  0.00  0.00    +0.000 A 
ATOM     20  C   UNL     1      72.963  46.472  63.832  0.00  0.00    +0.000 A 
ENDROOT
BRANCH   4  21
ATOM     21  O   UNL     1      67.589  37.629  64.934  0.00  0.00    +0.000 OA
ATOM     22  H   UNL     1      67.530  38.500  65.381  0.00  0.00    +0.000 HD
ENDBRANCH   4  21
BRANCH   9  23
ATOM     23  O   UNL     1      70.606  41.040  67.885  0.00  0.00    +0.000 OA
ATOM     24  H   UNL     1      71.506  41.317  68.179  0.00  0.00    +0.000 HD
ENDBRANCH   9  23
BRANCH  10  25
ATOM     25  O   UNL     1      70.492  40.563  62.387  0.00  0.00    +0.000 OA
ATOM     26  H   UNL     1      69.949  41.281  61.990  0.00  0.00    +0.000 HD
ENDBRANCH  10  25
BRANCH   4  28
ATOM     27  O   UNL     1      69.230  35.835  62.855  0.00  0.00    +0.000 OA
ATOM     28  C   UNL     1      69.074  35.965  64.075  0.00  0.00    +0.000 C 
BRANCH  28  29
ATOM     29  C   UNL     1      68.945  34.730  64.964  0.00  0.00    +0.000 C 
BRANCH  29  30
ATOM     30  O   UNL     1      67.638  34.625  65.517  0.00  0.00    +0.000 OA
ATOM     31  H   UNL     1      67.371  33.690  65.407  0.00  0.00    +0.000 HD
ENDBRANCH  29  30
ENDBRANCH  28  29
ENDBRANCH   4  28
BRANCH  17  32
ATOM     32  O   UNL     1      72.678  45.766  67.396  0.00  0.00    +0.000 OA
ATOM     33  C   UNL     1      73.900  46.451  67.684  0.00  0.00    +0.000 C 
ENDBRANCH  17  32
BRANCH   3  34
ATOM     34  O   UNL     1      68.274  38.949  67.143  0.00  0.00    +0.000 OA
BRANCH  34  36
ATOM     35  O   UNL     1      67.110  37.382  68.460  0.00  0.00    +0.000 OA
ATOM     36  C   UNL     1      67.920  38.555  68.471  0.00  0.00    +0.000 C 
ATOM     37  C   UNL     1      67.232  39.726  69.176  0.00  0.00    +0.000 C 
ATOM     38  C   UNL     1      65.843  39.983  68.584  0.00  0.00    +0.000 C 
ATOM     39  C   UNL     1      65.021  38.678  68.611  0.00  0.00    +0.000 C 
ATOM     40  C   UNL     1      65.812  37.575  67.883  0.00  0.00    +0.000 C 
ATOM     41  C   UNL     1      65.104  36.225  67.922  0.00  0.00    +0.000 C 
BRANCH  38  42
ATOM     42  N   UNL     1      65.148  41.048  69.329  0.00  0.00    +0.000 NA
ATOM     43  H   UNL     1      65.670  41.919  69.261  0.00  0.00    +0.000 HD
ATOM     44  H   UNL     1      65.171  40.781  70.320  0.00  0.00    +0.000 HD
ENDBRANCH  38  42
BRANCH  39  45
ATOM     45  O   UNL     1      64.768  38.332  69.986  0.00  0.00    +0.000 OA
ATOM     46  H   UNL     1      65.628  38.269  70.434  0.00  0.00    +0.000 HD
ENDBRANCH  39  45
ENDBRANCH  34  36
ENDBRANCH   3  34
TORSDOF 11
ENDMDL
MODEL 9
REMARK VINA RESULT:      -5.8      3.340      9.651
REMARK  Name = 
REMARK  13 active torsions:
REMARK  status: ('A' for Active; 'I' for Inactive)
REMARK    1  A    between atoms: O_1  and  C_13
REMARK    2  A    between atoms: O_1  and  C_19
REMARK    3  A    between atoms: O_3  and  C_14
REMARK    4  A    between atoms: O_4  and  C_22
REMARK    5  A    between atoms: O_5  and  C_24
REMARK    6  A    between atoms: O_6  and  C_26
REMARK    7  A    between atoms: O_8  and  C_30
REMARK    8  A    between atoms: O_11  and  C_35
REMARK    9  A    between atoms: O_11  and  C_39
REMARK   10  A    between atoms: N_12  and  C_21
REMARK   11  A    between atoms: C_14  and  C_25
REMARK   12  A    between atoms: C_23  and  C_29
REMARK   13  A    between atoms: C_25  and  C_30
REMARK                            x       y       z     vdW  Elec       q    Type
REMARK                         _______ _______ _______ _____ _____    ______ ____
ROOT
ATOM      1  O   UNL     1      60.350  38.707  71.262  0.00  0.00    +0.000 OA
ATOM      2  O   UNL     1      62.349  38.548  66.338  0.00  0.00    +0.000 OA
ATOM      3  C   UNL     1      56.546  36.592  68.547  0.00  0.00    +0.000 C 
ATOM      4  C   UNL     1      56.199  36.189  66.070  0.00  0.00    +0.000 C 
ATOM      5  C   UNL     1      56.040  35.615  67.484  0.00  0.00    +0.000 C 
ATOM      6  C   UNL     1      57.672  36.502  65.773  0.00  0.00    +0.000 C 
ATOM      7  C   UNL     1      57.955  37.067  68.254  0.00  0.00    +0.000 A 
ATOM      8  C   UNL     1      58.467  37.057  66.941  0.00  0.00    +0.000 A 
ATOM      9  C   UNL     1      58.756  37.580  69.292  0.00  0.00    +0.000 A 
ATOM     10  C   UNL     1      59.770  37.534  66.711  0.00  0.00    +0.000 A 
ATOM     11  C   UNL     1      60.055  38.066  69.050  0.00  0.00    +0.000 A 
ATOM     12  C   UNL     1      60.561  38.040  67.756  0.00  0.00    +0.000 A 
ATOM     13  C   UNL     1      60.873  38.614  70.156  0.00  0.00    +0.000 C 
ATOM     14  C   UNL     1      61.922  38.543  67.489  0.00  0.00    +0.000 C 
ATOM     15  C   UNL     1      62.266  39.053  69.905  0.00  0.00    +0.000 A 
ATOM     16  C   UNL     1      62.761  39.025  68.599  0.00  0.00    +0.000 A 
ATOM     17  C   UNL     1      63.107  39.508  70.932  0.00  0.00    +0.000 A 
ATOM     18  C   UNL     1      64.071  39.446  68.321  0.00  0.00    +0.000 A 
ATOM     19  C   UNL     1      64.422  39.903  70.657  0.00  0.00    +0.000 A 
ATOM     20  C   UNL     1      64.900  39.883  69.350  0.00  0.00    +0.000 A 
ENDROOT
BRANCH   4  21
ATOM     21  O   UNL     1      55.404  37.371  65.914  0.00  0.00    +0.000 OA
ATOM     22  H   UNL     1      55.954  38.026  65.433  0.00  0.00    +0.000 HD
ENDBRANCH   4  21
BRANCH   9  23
ATOM     23  O   UNL     1      58.210  37.583  70.554  0.00  0.00    +0.000 OA
ATOM     24  H   UNL     1      57.682  38.408  70.667  0.00  0.00    +0.000 HD
ENDBRANCH   9  23
BRANCH  10  25
ATOM     25  O   UNL     1      60.227  37.475  65.417  0.00  0.00    +0.000 OA
ATOM     26  H   UNL     1      60.413  36.536  65.187  0.00  0.00    +0.000 HD
ENDBRANCH  10  25
BRANCH   4  28
ATOM     27  O   UNL     1      55.166  34.097  65.354  0.00  0.00    +0.000 OA
ATOM     28  C   UNL     1      55.696  35.168  65.035  0.00  0.00    +0.000 C 
BRANCH  28  29
ATOM     29  C   UNL     1      55.892  35.513  63.561  0.00  0.00    +0.000 C 
BRANCH  29  30
ATOM     30  O   UNL     1      54.976  36.516  63.137  0.00  0.00    +0.000 OA
ATOM     31  H   UNL     1      54.081  36.143  63.277  0.00  0.00    +0.000 HD
ENDBRANCH  29  30
ENDBRANCH  28  29
ENDBRANCH   4  28
BRANCH  17  32
ATOM     32  O   UNL     1      62.725  39.487  72.247  0.00  0.00    +0.000 OA
ATOM     33  C   UNL     1      63.867  39.403  73.103  0.00  0.00    +0.000 C 
ENDBRANCH  17  32
BRANCH   3  34
ATOM     34  O   UNL     1      55.714  37.765  68.529  0.00  0.00    +0.000 OA
BRANCH  34  36
ATOM     35  O   UNL     1      53.371  37.910  68.710  0.00  0.00    +0.000 OA
ATOM     36  C   UNL     1      54.588  37.645  69.403  0.00  0.00    +0.000 C 
ATOM     37  C   UNL     1      54.783  38.575  70.603  0.00  0.00    +0.000 C 
ATOM     38  C   UNL     1      54.656  40.042  70.187  0.00  0.00    +0.000 C 
ATOM     39  C   UNL     1      53.317  40.257  69.452  0.00  0.00    +0.000 C 
ATOM     40  C   UNL     1      53.230  39.268  68.275  0.00  0.00    +0.000 C 
ATOM     41  C   UNL     1      51.902  39.361  67.530  0.00  0.00    +0.000 C 
BRANCH  38  42
ATOM     42  N   UNL     1      54.749  40.927  71.362  0.00  0.00    +0.000 NA
ATOM     43  H   UNL     1      54.020  40.693  72.033  0.00  0.00    +0.000 HD
ATOM     44  H   UNL     1      54.539  41.877  71.036  0.00  0.00    +0.000 HD
ENDBRANCH  38  42
BRANCH  39  45
ATOM     45  O   UNL     1      52.248  40.057  70.395  0.00  0.00    +0.000 OA
ATOM     46  H   UNL     1      52.433  39.233  70.876  0.00  0.00    +0.000 HD
ENDBRANCH  39  45
ENDBRANCH  34  36
ENDBRANCH   3  34
TORSDOF 11
ENDMDL
