MODEL 1
REMARK VINA RESULT:      -6.6      0.000      0.000
REMARK  Name = Dronabinol.pdbqt.pdb
REMARK  3 active torsions:
REMARK  status: ('A' for Active; 'I' for Inactive)
REMARK    1  A    between atoms: C_13  and  O_18
REMARK    2  A    between atoms: C_16  and  C_20
REMARK    3  A    between atoms: C_21  and  C_22
REMARK                            x       y       z     vdW  Elec       q    Type
REMARK                         _______ _______ _______ _____ _____    ______ ____
ROOT
ATOM      1  O   UNL     1      62.800  54.216  59.128  0.00  0.00    +0.000 OA
ATOM      2  C   UNL     1      60.362  53.887  59.278  0.00  0.00    +0.000 A 
ATOM      3  C   UNL     1      60.607  52.428  59.175  0.00  0.00    +0.000 A 
ATOM      4  C   UNL     1      61.543  54.770  59.580  0.00  0.00    +0.000 C 
ATOM      5  C   UNL     1      58.960  54.214  59.293  0.00  0.00    +0.000 A 
ATOM      6  C   UNL     1      61.971  51.907  59.238  0.00  0.00    +0.000 A 
ATOM      7  C   UNL     1      57.821  53.183  59.172  0.00  0.00    +0.000 A 
ATOM      8  C   UNL     1      59.386  51.660  59.063  0.00  0.00    +0.000 A 
ATOM      9  C   UNL     1      58.081  51.779  59.035  0.00  0.00    +0.000 A 
ATOM     10  C   UNL     1      63.001  52.860  59.212  0.00  0.00    +0.000 A 
ATOM     11  C   UNL     1      61.377  56.121  58.833  0.00  0.00    +0.000 C 
ATOM     12  C   UNL     1      61.632  55.010  61.116  0.00  0.00    +0.000 C 
ATOM     13  C   UNL     1      62.318  50.552  59.301  0.00  0.00    +0.000 A 
ATOM     14  C   UNL     1      64.339  52.459  59.213  0.00  0.00    +0.000 A 
ATOM     15  C   UNL     1      57.260  50.949  58.098  0.00  0.00    +0.000 C 
ATOM     16  C   UNL     1      64.664  51.109  59.276  0.00  0.00    +0.000 A 
ATOM     17  C   UNL     1      63.657  50.153  59.322  0.00  0.00    +0.000 A 
ENDROOT
BRANCH  13  18
ATOM     18  O   UNL     1      61.350  49.589  59.352  0.00  0.00    +0.000 OA
ATOM     19  H   UNL     1      61.614  48.839  58.789  0.00  0.00    +0.000 HD
ENDBRANCH  13  18
BRANCH  16  20
ATOM     20  C   UNL     1      66.030  50.707  59.303  0.00  0.00    +0.000 C 
ATOM     21  C   UNL     1      67.502  50.281  59.344  0.00  0.00    +0.000 C 
BRANCH  21  22
ATOM     22  C   UNL     1      68.973  49.860  59.396  0.00  0.00    +0.000 C 
ATOM     23  C   UNL     1      70.444  49.434  59.446  0.00  0.00    +0.000 C 
ATOM     24  C   UNL     1      71.915  49.006  59.494  0.00  0.00    +0.000 C 
ENDBRANCH  21  22
ENDBRANCH  16  20
TORSDOF 3
ENDMDL
MODEL 2
REMARK VINA RESULT:      -6.0      3.335      4.966
REMARK  Name = Dronabinol.pdbqt.pdb
REMARK  3 active torsions:
REMARK  status: ('A' for Active; 'I' for Inactive)
REMARK    1  A    between atoms: C_13  and  O_18
REMARK    2  A    between atoms: C_16  and  C_20
REMARK    3  A    between atoms: C_21  and  C_22
REMARK                            x       y       z     vdW  Elec       q    Type
REMARK                         _______ _______ _______ _____ _____    ______ ____
ROOT
ATOM      1  O   UNL     1      65.135  53.684  58.526  0.00  0.00    +0.000 OA
ATOM      2  C   UNL     1      64.020  55.038  60.257  0.00  0.00    +0.000 A 
ATOM      3  C   UNL     1      62.857  54.123  60.147  0.00  0.00    +0.000 A 
ATOM      4  C   UNL     1      65.317  54.591  59.638  0.00  0.00    +0.000 C 
ATOM      5  C   UNL     1      63.776  56.138  61.154  0.00  0.00    +0.000 A 
ATOM      6  C   UNL     1      62.959  52.902  59.351  0.00  0.00    +0.000 A 
ATOM      7  C   UNL     1      62.448  56.384  61.895  0.00  0.00    +0.000 A 
ATOM      8  C   UNL     1      61.720  54.563  60.926  0.00  0.00    +0.000 A 
ATOM      9  C   UNL     1      61.322  55.507  61.745  0.00  0.00    +0.000 A 
ATOM     10  C   UNL     1      64.120  52.760  58.577  0.00  0.00    +0.000 A 
ATOM     11  C   UNL     1      66.063  55.827  59.065  0.00  0.00    +0.000 C 
ATOM     12  C   UNL     1      66.190  53.884  60.717  0.00  0.00    +0.000 C 
ATOM     13  C   UNL     1      61.990  51.892  59.291  0.00  0.00    +0.000 A 
ATOM     14  C   UNL     1      64.285  51.654  57.741  0.00  0.00    +0.000 A 
ATOM     15  C   UNL     1      59.938  56.067  61.647  0.00  0.00    +0.000 C 
ATOM     16  C   UNL     1      63.312  50.662  57.694  0.00  0.00    +0.000 A 
ATOM     17  C   UNL     1      62.165  50.777  58.469  0.00  0.00    +0.000 A 
ENDROOT
BRANCH  13  18
ATOM     18  O   UNL     1      60.853  51.976  60.044  0.00  0.00    +0.000 OA
ATOM     19  H   UNL     1      60.075  51.892  59.462  0.00  0.00    +0.000 HD
ENDBRANCH  13  18
BRANCH  16  20
ATOM     20  C   UNL     1      63.498  49.523  56.860  0.00  0.00    +0.000 C 
ATOM     21  C   UNL     1      63.704  48.290  55.972  0.00  0.00    +0.000 C 
BRANCH  21  22
ATOM     22  C   UNL     1      63.914  47.054  55.093  0.00  0.00    +0.000 C 
ATOM     23  C   UNL     1      64.124  45.813  54.219  0.00  0.00    +0.000 C 
ATOM     24  C   UNL     1      64.332  44.572  53.345  0.00  0.00    +0.000 C 
ENDBRANCH  21  22
ENDBRANCH  16  20
TORSDOF 3
ENDMDL
MODEL 3
REMARK VINA RESULT:      -5.9     25.579     26.786
REMARK  Name = Dronabinol.pdbqt.pdb
REMARK  3 active torsions:
REMARK  status: ('A' for Active; 'I' for Inactive)
REMARK    1  A    between atoms: C_13  and  O_18
REMARK    2  A    between atoms: C_16  and  C_20
REMARK    3  A    between atoms: C_21  and  C_22
REMARK                            x       y       z     vdW  Elec       q    Type
REMARK                         _______ _______ _______ _____ _____    ______ ____
ROOT
ATOM      1  O   UNL     1      49.608  55.063  80.848  0.00  0.00    +0.000 OA
ATOM      2  C   UNL     1      48.999  52.812  81.646  0.00  0.00    +0.000 A 
ATOM      3  C   UNL     1      50.165  52.880  82.560  0.00  0.00    +0.000 A 
ATOM      4  C   UNL     1      48.544  54.095  81.004  0.00  0.00    +0.000 C 
ATOM      5  C   UNL     1      48.332  51.537  81.693  0.00  0.00    +0.000 A 
ATOM      6  C   UNL     1      50.907  54.130  82.711  0.00  0.00    +0.000 A 
ATOM      7  C   UNL     1      48.787  50.344  82.555  0.00  0.00    +0.000 A 
ATOM      8  C   UNL     1      50.405  51.636  83.259  0.00  0.00    +0.000 A 
ATOM      9  C   UNL     1      49.941  50.418  83.404  0.00  0.00    +0.000 A 
ATOM     10  C   UNL     1      50.568  55.164  81.825  0.00  0.00    +0.000 A 
ATOM     11  C   UNL     1      48.024  53.795  79.572  0.00  0.00    +0.000 C 
ATOM     12  C   UNL     1      47.415  54.735  81.865  0.00  0.00    +0.000 C 
ATOM     13  C   UNL     1      51.925  54.360  83.645  0.00  0.00    +0.000 A 
ATOM     14  C   UNL     1      51.256  56.378  81.854  0.00  0.00    +0.000 A 
ATOM     15  C   UNL     1      50.876  49.254  83.507  0.00  0.00    +0.000 C 
ATOM     16  C   UNL     1      52.265  56.588  82.788  0.00  0.00    +0.000 A 
ATOM     17  C   UNL     1      52.599  55.582  83.687  0.00  0.00    +0.000 A 
ENDROOT
BRANCH  13  18
ATOM     18  O   UNL     1      52.274  53.392  84.544  0.00  0.00    +0.000 OA
ATOM     19  H   UNL     1      52.629  52.622  84.064  0.00  0.00    +0.000 HD
ENDBRANCH  13  18
BRANCH  16  20
ATOM     20  C   UNL     1      52.946  57.838  82.831  0.00  0.00    +0.000 C 
ATOM     21  C   UNL     1      53.668  59.189  82.875  0.00  0.00    +0.000 C 
BRANCH  21  22
ATOM     22  C   UNL     1      54.379  60.545  82.920  0.00  0.00    +0.000 C 
ATOM     23  C   UNL     1      55.090  61.901  82.970  0.00  0.00    +0.000 C 
ATOM     24  C   UNL     1      55.802  63.257  83.022  0.00  0.00    +0.000 C 
ENDBRANCH  21  22
ENDBRANCH  16  20
TORSDOF 3
ENDMDL
MODEL 4
REMARK VINA RESULT:      -5.8      2.254      7.866
REMARK  Name = Dronabinol.pdbqt.pdb
REMARK  3 active torsions:
REMARK  status: ('A' for Active; 'I' for Inactive)
REMARK    1  A    between atoms: C_13  and  O_18
REMARK    2  A    between atoms: C_16  and  C_20
REMARK    3  A    between atoms: C_21  and  C_22
REMARK                            x       y       z     vdW  Elec       q    Type
REMARK                         _______ _______ _______ _____ _____    ______ ____
ROOT
ATOM      1  O   UNL     1      62.679  55.290  60.406  0.00  0.00    +0.000 OA
ATOM      2  C   UNL     1      65.126  55.009  60.304  0.00  0.00    +0.000 A 
ATOM      3  C   UNL     1      64.893  53.583  59.968  0.00  0.00    +0.000 A 
ATOM      4  C   UNL     1      63.953  55.946  60.204  0.00  0.00    +0.000 C 
ATOM      5  C   UNL     1      66.522  55.320  60.463  0.00  0.00    +0.000 A 
ATOM      6  C   UNL     1      63.541  53.108  59.681  0.00  0.00    +0.000 A 
ATOM      7  C   UNL     1      67.665  54.294  60.345  0.00  0.00    +0.000 A 
ATOM      8  C   UNL     1      66.116  52.810  59.922  0.00  0.00    +0.000 A 
ATOM      9  C   UNL     1      67.416  52.911  60.057  0.00  0.00    +0.000 A 
ATOM     10  C   UNL     1      62.500  54.017  59.923  0.00  0.00    +0.000 A 
ATOM     11  C   UNL     1      64.060  57.023  61.317  0.00  0.00    +0.000 C 
ATOM     12  C   UNL     1      63.945  56.620  58.800  0.00  0.00    +0.000 C 
ATOM     13  C   UNL     1      63.215  51.830  59.211  0.00  0.00    +0.000 A 
ATOM     14  C   UNL     1      61.169  53.639  59.731  0.00  0.00    +0.000 A 
ATOM     15  C   UNL     1      68.194  51.843  60.758  0.00  0.00    +0.000 C 
ATOM     16  C   UNL     1      60.864  52.365  59.264  0.00  0.00    +0.000 A 
ATOM     17  C   UNL     1      61.885  51.460  59.000  0.00  0.00    +0.000 A 
ENDROOT
BRANCH  13  18
ATOM     18  O   UNL     1      64.196  50.919  58.939  0.00  0.00    +0.000 OA
ATOM     19  H   UNL     1      63.789  50.098  58.607  0.00  0.00    +0.000 HD
ENDBRANCH  13  18
BRANCH  16  20
ATOM     20  C   UNL     1      59.508  51.994  59.045  0.00  0.00    +0.000 C 
ATOM     21  C   UNL     1      58.048  51.583  58.818  0.00  0.00    +0.000 C 
BRANCH  21  22
ATOM     22  C   UNL     1      56.590  51.168  58.601  0.00  0.00    +0.000 C 
ATOM     23  C   UNL     1      55.130  50.757  58.386  0.00  0.00    +0.000 C 
ATOM     24  C   UNL     1      53.669  50.348  58.170  0.00  0.00    +0.000 C 
ENDBRANCH  21  22
ENDBRANCH  16  20
TORSDOF 3
ENDMDL
MODEL 5
REMARK VINA RESULT:      -5.7     21.539     25.115
REMARK  Name = Dronabinol.pdbqt.pdb
REMARK  3 active torsions:
REMARK  status: ('A' for Active; 'I' for Inactive)
REMARK    1  A    between atoms: C_13  and  O_18
REMARK    2  A    between atoms: C_16  and  C_20
REMARK    3  A    between atoms: C_21  and  C_22
REMARK                            x       y       z     vdW  Elec       q    Type
REMARK                         _______ _______ _______ _____ _____    ______ ____
ROOT
ATOM      1  O   UNL     1      66.326  72.931  68.927  0.00  0.00    +0.000 OA
ATOM      2  C   UNL     1      64.749  71.185  68.191  0.00  0.00    +0.000 A 
ATOM      3  C   UNL     1      63.664  71.975  68.824  0.00  0.00    +0.000 A 
ATOM      4  C   UNL     1      66.072  71.869  67.977  0.00  0.00    +0.000 C 
ATOM      5  C   UNL     1      64.285  69.927  67.668  0.00  0.00    +0.000 A 
ATOM      6  C   UNL     1      63.936  73.319  69.329  0.00  0.00    +0.000 A 
ATOM      7  C   UNL     1      62.836  69.416  67.778  0.00  0.00    +0.000 A 
ATOM      8  C   UNL     1      62.392  71.287  68.819  0.00  0.00    +0.000 A 
ATOM      9  C   UNL     1      61.809  70.178  68.428  0.00  0.00    +0.000 A 
ATOM     10  C   UNL     1      65.281  73.718  69.345  0.00  0.00    +0.000 A 
ATOM     11  C   UNL     1      67.219  70.839  68.169  0.00  0.00    +0.000 C 
ATOM     12  C   UNL     1      66.119  72.469  66.540  0.00  0.00    +0.000 C 
ATOM     13  C   UNL     1      62.970  74.214  69.808  0.00  0.00    +0.000 A 
ATOM     14  C   UNL     1      65.647  74.962  69.859  0.00  0.00    +0.000 A 
ATOM     15  C   UNL     1      60.803  69.498  69.302  0.00  0.00    +0.000 C 
ATOM     16  C   UNL     1      64.675  75.837  70.331  0.00  0.00    +0.000 A 
ATOM     17  C   UNL     1      63.335  75.467  70.305  0.00  0.00    +0.000 A 
ENDROOT
BRANCH  13  18
ATOM     18  O   UNL     1      61.646  73.880  69.792  0.00  0.00    +0.000 OA
ATOM     19  H   UNL     1      61.206  74.345  69.058  0.00  0.00    +0.000 HD
ENDBRANCH  13  18
BRANCH  16  20
ATOM     20  C   UNL     1      65.051  77.117  70.830  0.00  0.00    +0.000 C 
ATOM     21  C   UNL     1      65.464  78.488  71.377  0.00  0.00    +0.000 C 
BRANCH  21  22
ATOM     22  C   UNL     1      65.886  79.853  71.927  0.00  0.00    +0.000 C 
ATOM     23  C   UNL     1      66.309  81.217  72.482  0.00  0.00    +0.000 C 
ATOM     24  C   UNL     1      66.734  82.580  73.038  0.00  0.00    +0.000 C 
ENDBRANCH  21  22
ENDBRANCH  16  20
TORSDOF 3
ENDMDL
MODEL 6
REMARK VINA RESULT:      -5.7     30.870     34.465
REMARK  Name = Dronabinol.pdbqt.pdb
REMARK  3 active torsions:
REMARK  status: ('A' for Active; 'I' for Inactive)
REMARK    1  A    between atoms: C_13  and  O_18
REMARK    2  A    between atoms: C_16  and  C_20
REMARK    3  A    between atoms: C_21  and  C_22
REMARK                            x       y       z     vdW  Elec       q    Type
REMARK                         _______ _______ _______ _____ _____    ______ ____
ROOT
ATOM      1  O   UNL     1      62.028  77.713  81.297  0.00  0.00    +0.000 OA
ATOM      2  C   UNL     1      61.218  76.838  79.139  0.00  0.00    +0.000 A 
ATOM      3  C   UNL     1      60.072  76.246  79.872  0.00  0.00    +0.000 A 
ATOM      4  C   UNL     1      62.043  77.871  79.858  0.00  0.00    +0.000 C 
ATOM      5  C   UNL     1      61.227  76.484  77.744  0.00  0.00    +0.000 A 
ATOM      6  C   UNL     1      59.853  76.573  81.279  0.00  0.00    +0.000 A 
ATOM      7  C   UNL     1      60.195  75.558  77.071  0.00  0.00    +0.000 A 
ATOM      8  C   UNL     1      59.244  75.405  79.034  0.00  0.00    +0.000 A 
ATOM      9  C   UNL     1      59.115  74.964  77.806  0.00  0.00    +0.000 A 
ATOM     10  C   UNL     1      60.869  77.305  81.912  0.00  0.00    +0.000 A 
ATOM     11  C   UNL     1      63.529  77.732  79.428  0.00  0.00    +0.000 C 
ATOM     12  C   UNL     1      61.511  79.293  79.511  0.00  0.00    +0.000 C 
ATOM     13  C   UNL     1      58.733  76.200  82.032  0.00  0.00    +0.000 A 
ATOM     14  C   UNL     1      60.778  77.620  83.268  0.00  0.00    +0.000 A 
ATOM     15  C   UNL     1      58.714  73.547  77.543  0.00  0.00    +0.000 C 
ATOM     16  C   UNL     1      59.659  77.240  84.001  0.00  0.00    +0.000 A 
ATOM     17  C   UNL     1      58.634  76.532  83.385  0.00  0.00    +0.000 A 
ENDROOT
BRANCH  13  18
ATOM     18  O   UNL     1      57.708  75.506  81.454  0.00  0.00    +0.000 OA
ATOM     19  H   UNL     1      57.101  75.192  82.148  0.00  0.00    +0.000 HD
ENDBRANCH  13  18
BRANCH  16  20
ATOM     20  C   UNL     1      59.558  77.586  85.378  0.00  0.00    +0.000 C 
ATOM     21  C   UNL     1      59.464  77.960  86.862  0.00  0.00    +0.000 C 
BRANCH  21  22
ATOM     22  C   UNL     1      59.380  78.338  88.343  0.00  0.00    +0.000 C 
ATOM     23  C   UNL     1      59.299  78.712  89.827  0.00  0.00    +0.000 C 
ATOM     24  C   UNL     1      59.221  79.088  91.310  0.00  0.00    +0.000 C 
ENDBRANCH  21  22
ENDBRANCH  16  20
TORSDOF 3
ENDMDL
MODEL 7
REMARK VINA RESULT:      -5.6     38.575     41.211
REMARK  Name = Dronabinol.pdbqt.pdb
REMARK  3 active torsions:
REMARK  status: ('A' for Active; 'I' for Inactive)
REMARK    1  A    between atoms: C_13  and  O_18
REMARK    2  A    between atoms: C_16  and  C_20
REMARK    3  A    between atoms: C_21  and  C_22
REMARK                            x       y       z     vdW  Elec       q    Type
REMARK                         _______ _______ _______ _____ _____    ______ ____
ROOT
ATOM      1  O   UNL     1      76.412  82.525  82.149  0.00  0.00    +0.000 OA
ATOM      2  C   UNL     1      77.631  80.393  82.360  0.00  0.00    +0.000 A 
ATOM      3  C   UNL     1      76.818  80.110  83.568  0.00  0.00    +0.000 A 
ATOM      4  C   UNL     1      77.170  81.505  81.457  0.00  0.00    +0.000 C 
ATOM      5  C   UNL     1      78.634  79.389  82.120  0.00  0.00    +0.000 A 
ATOM      6  C   UNL     1      75.693  80.977  83.914  0.00  0.00    +0.000 A 
ATOM      7  C   UNL     1      78.884  78.169  83.026  0.00  0.00    +0.000 A 
ATOM      8  C   UNL     1      77.243  78.915  84.264  0.00  0.00    +0.000 A 
ATOM      9  C   UNL     1      78.111  77.934  84.212  0.00  0.00    +0.000 A 
ATOM     10  C   UNL     1      75.561  82.154  83.161  0.00  0.00    +0.000 A 
ATOM     11  C   UNL     1      78.409  82.226  80.857  0.00  0.00    +0.000 C 
ATOM     12  C   UNL     1      76.284  80.917  80.320  0.00  0.00    +0.000 C 
ATOM     13  C   UNL     1      74.767  80.732  84.935  0.00  0.00    +0.000 A 
ATOM     14  C   UNL     1      74.551  83.072  83.451  0.00  0.00    +0.000 A 
ATOM     15  C   UNL     1      78.773  77.435  85.458  0.00  0.00    +0.000 C 
ATOM     16  C   UNL     1      73.640  82.812  84.469  0.00  0.00    +0.000 A 
ATOM     17  C   UNL     1      73.744  81.642  85.212  0.00  0.00    +0.000 A 
ENDROOT
BRANCH  13  18
ATOM     18  O   UNL     1      74.841  79.589  85.680  0.00  0.00    +0.000 OA
ATOM     19  H   UNL     1      74.799  79.819  86.626  0.00  0.00    +0.000 HD
ENDBRANCH  13  18
BRANCH  16  20
ATOM     20  C   UNL     1      72.596  83.740  84.744  0.00  0.00    +0.000 C 
ATOM     21  C   UNL     1      71.470  84.741  85.026  0.00  0.00    +0.000 C 
BRANCH  21  22
ATOM     22  C   UNL     1      70.343  85.742  85.297  0.00  0.00    +0.000 C 
ATOM     23  C   UNL     1      69.212  86.739  85.570  0.00  0.00    +0.000 C 
ATOM     24  C   UNL     1      68.081  87.735  85.845  0.00  0.00    +0.000 C 
ENDBRANCH  21  22
ENDBRANCH  16  20
TORSDOF 3
ENDMDL
MODEL 8
REMARK VINA RESULT:      -5.4     16.301     19.896
REMARK  Name = Dronabinol.pdbqt.pdb
REMARK  3 active torsions:
REMARK  status: ('A' for Active; 'I' for Inactive)
REMARK    1  A    between atoms: C_13  and  O_18
REMARK    2  A    between atoms: C_16  and  C_20
REMARK    3  A    between atoms: C_21  and  C_22
REMARK                            x       y       z     vdW  Elec       q    Type
REMARK                         _______ _______ _______ _____ _____    ______ ____
ROOT
ATOM      1  O   UNL     1      57.712  68.787  69.356  0.00  0.00    +0.000 OA
ATOM      2  C   UNL     1      57.374  66.464  68.603  0.00  0.00    +0.000 A 
ATOM      3  C   UNL     1      58.761  66.490  68.078  0.00  0.00    +0.000 A 
ATOM      4  C   UNL     1      56.970  67.560  69.552  0.00  0.00    +0.000 C 
ATOM      5  C   UNL     1      56.685  65.240  68.287  0.00  0.00    +0.000 A 
ATOM      6  C   UNL     1      59.639  67.618  68.382  0.00  0.00    +0.000 A 
ATOM      7  C   UNL     1      57.285  64.088  67.459  0.00  0.00    +0.000 A 
ATOM      8  C   UNL     1      59.099  65.302  67.323  0.00  0.00    +0.000 A 
ATOM      9  C   UNL     1      58.616  64.149  66.927  0.00  0.00    +0.000 A 
ATOM     10  C   UNL     1      59.041  68.716  69.019  0.00  0.00    +0.000 A 
ATOM     11  C   UNL     1      55.478  67.920  69.314  0.00  0.00    +0.000 C 
ATOM     12  C   UNL     1      57.183  67.081  71.018  0.00  0.00    +0.000 C 
ATOM     13  C   UNL     1      61.003  67.689  68.072  0.00  0.00    +0.000 A 
ATOM     14  C   UNL     1      59.784  69.864  69.302  0.00  0.00    +0.000 A 
ATOM     15  C   UNL     1      58.903  63.636  65.551  0.00  0.00    +0.000 C 
ATOM     16  C   UNL     1      61.138  69.916  68.987  0.00  0.00    +0.000 A 
ATOM     17  C   UNL     1      61.750  68.829  68.374  0.00  0.00    +0.000 A 
ENDROOT
BRANCH  13  18
ATOM     18  O   UNL     1      61.634  66.636  67.473  0.00  0.00    +0.000 OA
ATOM     19  H   UNL     1      62.366  66.334  68.041  0.00  0.00    +0.000 HD
ENDBRANCH  13  18
BRANCH  16  20
ATOM     20  C   UNL     1      61.897  71.078  69.302  0.00  0.00    +0.000 C 
ATOM     21  C   UNL     1      62.704  72.337  69.640  0.00  0.00    +0.000 C 
BRANCH  21  22
ATOM     22  C   UNL     1      63.500  73.599  69.981  0.00  0.00    +0.000 C 
ATOM     23  C   UNL     1      64.294  74.864  70.326  0.00  0.00    +0.000 C 
ATOM     24  C   UNL     1      65.089  76.127  70.673  0.00  0.00    +0.000 C 
ENDBRANCH  21  22
ENDBRANCH  16  20
TORSDOF 3
ENDMDL
MODEL 9
REMARK VINA RESULT:      -5.4     30.002     33.372
REMARK  Name = Dronabinol.pdbqt.pdb
REMARK  3 active torsions:
REMARK  status: ('A' for Active; 'I' for Inactive)
REMARK    1  A    between atoms: C_13  and  O_18
REMARK    2  A    between atoms: C_16  and  C_20
REMARK    3  A    between atoms: C_21  and  C_22
REMARK                            x       y       z     vdW  Elec       q    Type
REMARK                         _______ _______ _______ _____ _____    ______ ____
ROOT
ATOM      1  O   UNL     1      57.805  72.898  86.872  0.00  0.00    +0.000 OA
ATOM      2  C   UNL     1      57.984  71.200  88.649  0.00  0.00    +0.000 A 
ATOM      3  C   UNL     1      58.001  70.167  87.585  0.00  0.00    +0.000 A 
ATOM      4  C   UNL     1      58.212  72.629  88.234  0.00  0.00    +0.000 C 
ATOM      5  C   UNL     1      57.973  70.633  89.972  0.00  0.00    +0.000 A 
ATOM      6  C   UNL     1      58.105  70.561  86.182  0.00  0.00    +0.000 A 
ATOM      7  C   UNL     1      57.938  69.123  90.276  0.00  0.00    +0.000 A 
ATOM      8  C   UNL     1      57.953  68.819  88.110  0.00  0.00    +0.000 A 
ATOM      9  C   UNL     1      57.916  68.139  89.231  0.00  0.00    +0.000 A 
ATOM     10  C   UNL     1      58.001  71.934  85.913  0.00  0.00    +0.000 A 
ATOM     11  C   UNL     1      57.356  73.566  89.129  0.00  0.00    +0.000 C 
ATOM     12  C   UNL     1      59.723  72.976  88.377  0.00  0.00    +0.000 C 
ATOM     13  C   UNL     1      58.279  69.682  85.105  0.00  0.00    +0.000 A 
ATOM     14  C   UNL     1      58.033  72.404  84.599  0.00  0.00    +0.000 A 
ATOM     15  C   UNL     1      57.051  66.925  89.358  0.00  0.00    +0.000 C 
ATOM     16  C   UNL     1      58.206  71.517  83.543  0.00  0.00    +0.000 A 
ATOM     17  C   UNL     1      58.332  70.156  83.793  0.00  0.00    +0.000 A 
ENDROOT
BRANCH  13  18
ATOM     18  O   UNL     1      58.409  68.339  85.320  0.00  0.00    +0.000 OA
ATOM     19  H   UNL     1      58.233  68.145  86.258  0.00  0.00    +0.000 HD
ENDBRANCH  13  18
BRANCH  16  20
ATOM     20  C   UNL     1      58.266  72.005  82.206  0.00  0.00    +0.000 C 
ATOM     21  C   UNL     1      58.326  72.542  80.772  0.00  0.00    +0.000 C 
BRANCH  21  22
ATOM     22  C   UNL     1      58.387  73.089  79.343  0.00  0.00    +0.000 C 
ATOM     23  C   UNL     1      58.451  73.640  77.915  0.00  0.00    +0.000 C 
ATOM     24  C   UNL     1      58.518  74.191  76.487  0.00  0.00    +0.000 C 
ENDBRANCH  21  22
ENDBRANCH  16  20
TORSDOF 3
ENDMDL
