MODEL 1
REMARK VINA RESULT:      -6.6      0.000      0.000
REMARK  Name = Ellipticine.pdbqt.pdb
REMARK  0 active torsions:
REMARK  status: ('A' for Active; 'I' for Inactive)
REMARK                            x       y       z     vdW  Elec       q    Type
REMARK                         _______ _______ _______ _____ _____    ______ ____
ROOT
ATOM      1  N   UNL     1      65.339  53.850  59.903  0.00  0.00    +0.000 N 
ATOM      2  N   UNL     1      59.469  56.389  60.481  0.00  0.00    +0.000 NA
ATOM      3  C   UNL     1      63.175  53.287  59.764  0.00  0.00    +0.000 A 
ATOM      4  C   UNL     1      64.056  54.343  60.015  0.00  0.00    +0.000 A 
ATOM      5  C   UNL     1      61.781  53.544  59.819  0.00  0.00    +0.000 A 
ATOM      6  C   UNL     1      63.988  52.130  59.494  0.00  0.00    +0.000 A 
ATOM      7  C   UNL     1      63.622  55.643  60.320  0.00  0.00    +0.000 A 
ATOM      8  C   UNL     1      62.238  55.896  60.375  0.00  0.00    +0.000 A 
ATOM      9  C   UNL     1      61.326  54.848  60.125  0.00  0.00    +0.000 A 
ATOM     10  C   UNL     1      65.323  52.515  59.589  0.00  0.00    +0.000 A 
ATOM     11  C   UNL     1      60.800  52.423  59.552  0.00  0.00    +0.000 C 
ATOM     12  C   UNL     1      63.703  50.786  59.177  0.00  0.00    +0.000 A 
ATOM     13  C   UNL     1      64.661  56.709  60.574  0.00  0.00    +0.000 C 
ATOM     14  C   UNL     1      66.390  51.634  59.385  0.00  0.00    +0.000 A 
ATOM     15  C   UNL     1      61.731  57.170  60.673  0.00  0.00    +0.000 A 
ATOM     16  C   UNL     1      59.970  55.167  60.196  0.00  0.00    +0.000 A 
ATOM     17  C   UNL     1      64.754  49.889  58.969  0.00  0.00    +0.000 A 
ATOM     18  C   UNL     1      66.074  50.310  59.072  0.00  0.00    +0.000 A 
ATOM     19  C   UNL     1      60.363  57.366  60.715  0.00  0.00    +0.000 A 
ATOM     20  H   UNL     1      66.175  54.408  60.038  0.00  0.00    +0.000 HD
ENDROOT
TORSDOF 0
ENDMDL
MODEL 2
REMARK VINA RESULT:      -6.3      7.596      9.153
REMARK  Name = Ellipticine.pdbqt.pdb
REMARK  0 active torsions:
REMARK  status: ('A' for Active; 'I' for Inactive)
REMARK                            x       y       z     vdW  Elec       q    Type
REMARK                         _______ _______ _______ _____ _____    ______ ____
ROOT
ATOM      1  N   UNL     1      69.597  55.724  62.815  0.00  0.00    +0.000 N 
ATOM      2  N   UNL     1      69.253  60.739  66.810  0.00  0.00    +0.000 NA
ATOM      3  C   UNL     1      70.001  56.285  64.945  0.00  0.00    +0.000 A 
ATOM      4  C   UNL     1      69.544  56.768  63.715  0.00  0.00    +0.000 A 
ATOM      5  C   UNL     1      70.041  57.179  66.046  0.00  0.00    +0.000 A 
ATOM      6  C   UNL     1      70.333  54.899  64.746  0.00  0.00    +0.000 A 
ATOM      7  C   UNL     1      69.125  58.094  63.523  0.00  0.00    +0.000 A 
ATOM      8  C   UNL     1      69.166  58.979  64.617  0.00  0.00    +0.000 A 
ATOM      9  C   UNL     1      69.623  58.519  65.871  0.00  0.00    +0.000 A 
ATOM     10  C   UNL     1      70.071  54.586  63.414  0.00  0.00    +0.000 A 
ATOM     11  C   UNL     1      70.530  56.690  67.393  0.00  0.00    +0.000 C 
ATOM     12  C   UNL     1      70.835  53.883  65.583  0.00  0.00    +0.000 A 
ATOM     13  C   UNL     1      68.650  58.508  62.150  0.00  0.00    +0.000 C 
ATOM     14  C   UNL     1      70.282  53.313  62.872  0.00  0.00    +0.000 A 
ATOM     15  C   UNL     1      68.764  60.318  64.498  0.00  0.00    +0.000 A 
ATOM     16  C   UNL     1      69.638  59.448  66.911  0.00  0.00    +0.000 A 
ATOM     17  C   UNL     1      71.053  52.605  65.062  0.00  0.00    +0.000 A 
ATOM     18  C   UNL     1      70.780  52.329  63.728  0.00  0.00    +0.000 A 
ATOM     19  C   UNL     1      68.823  61.147  65.603  0.00  0.00    +0.000 A 
ATOM     20  H   UNL     1      69.321  55.800  61.842  0.00  0.00    +0.000 HD
ENDROOT
TORSDOF 0
ENDMDL
MODEL 3
REMARK VINA RESULT:      -6.2      8.506     11.495
REMARK  Name = Ellipticine.pdbqt.pdb
REMARK  0 active torsions:
REMARK  status: ('A' for Active; 'I' for Inactive)
REMARK                            x       y       z     vdW  Elec       q    Type
REMARK                         _______ _______ _______ _____ _____    ______ ____
ROOT
ATOM      1  N   UNL     1      68.340  62.501  66.255  0.00  0.00    +0.000 N 
ATOM      2  N   UNL     1      70.136  56.469  64.982  0.00  0.00    +0.000 NA
ATOM      3  C   UNL     1      68.186  60.937  64.658  0.00  0.00    +0.000 A 
ATOM      4  C   UNL     1      68.699  61.210  65.930  0.00  0.00    +0.000 A 
ATOM      5  C   UNL     1      68.425  59.657  64.096  0.00  0.00    +0.000 A 
ATOM      6  C   UNL     1      67.499  62.127  64.229  0.00  0.00    +0.000 A 
ATOM      7  C   UNL     1      69.437  60.274  66.673  0.00  0.00    +0.000 A 
ATOM      8  C   UNL     1      69.672  59.004  66.112  0.00  0.00    +0.000 A 
ATOM      9  C   UNL     1      69.167  58.702  64.830  0.00  0.00    +0.000 A 
ATOM     10  C   UNL     1      67.615  63.075  65.242  0.00  0.00    +0.000 A 
ATOM     11  C   UNL     1      67.884  59.328  62.721  0.00  0.00    +0.000 C 
ATOM     12  C   UNL     1      66.788  62.480  63.064  0.00  0.00    +0.000 A 
ATOM     13  C   UNL     1      69.943  60.675  68.038  0.00  0.00    +0.000 C 
ATOM     14  C   UNL     1      67.059  64.357  65.158  0.00  0.00    +0.000 A 
ATOM     15  C   UNL     1      70.401  58.020  66.796  0.00  0.00    +0.000 A 
ATOM     16  C   UNL     1      69.436  57.426  64.335  0.00  0.00    +0.000 A 
ATOM     17  C   UNL     1      66.226  63.755  62.959  0.00  0.00    +0.000 A 
ATOM     18  C   UNL     1      66.362  64.674  63.991  0.00  0.00    +0.000 A 
ATOM     19  C   UNL     1      70.605  56.788  66.202  0.00  0.00    +0.000 A 
ATOM     20  H   UNL     1      68.584  62.955  67.128  0.00  0.00    +0.000 HD
ENDROOT
TORSDOF 0
ENDMDL
MODEL 4
REMARK VINA RESULT:      -6.1     21.340     22.805
REMARK  Name = Ellipticine.pdbqt.pdb
REMARK  0 active torsions:
REMARK  status: ('A' for Active; 'I' for Inactive)
REMARK                            x       y       z     vdW  Elec       q    Type
REMARK                         _______ _______ _______ _____ _____    ______ ____
ROOT
ATOM      1  N   UNL     1      52.653  34.827  55.340  0.00  0.00    +0.000 N 
ATOM      2  N   UNL     1      51.316  34.628  61.618  0.00  0.00    +0.000 NA
ATOM      3  C   UNL     1      52.934  33.525  57.141  0.00  0.00    +0.000 A 
ATOM      4  C   UNL     1      52.392  34.733  56.692  0.00  0.00    +0.000 A 
ATOM      5  C   UNL     1      52.795  33.194  58.514  0.00  0.00    +0.000 A 
ATOM      6  C   UNL     1      53.534  32.892  55.997  0.00  0.00    +0.000 A 
ATOM      7  C   UNL     1      51.719  35.630  57.536  0.00  0.00    +0.000 A 
ATOM      8  C   UNL     1      51.583  35.300  58.898  0.00  0.00    +0.000 A 
ATOM      9  C   UNL     1      52.119  34.086  59.380  0.00  0.00    +0.000 A 
ATOM     10  C   UNL     1      53.342  33.727  54.898  0.00  0.00    +0.000 A 
ATOM     11  C   UNL     1      53.369  31.894  59.035  0.00  0.00    +0.000 C 
ATOM     12  C   UNL     1      54.227  31.681  55.799  0.00  0.00    +0.000 A 
ATOM     13  C   UNL     1      51.174  36.908  56.943  0.00  0.00    +0.000 C 
ATOM     14  C   UNL     1      53.801  33.419  53.613  0.00  0.00    +0.000 A 
ATOM     15  C   UNL     1      50.923  36.147  59.801  0.00  0.00    +0.000 A 
ATOM     16  C   UNL     1      51.948  33.821  60.739  0.00  0.00    +0.000 A 
ATOM     17  C   UNL     1      54.694  31.354  54.524  0.00  0.00    +0.000 A 
ATOM     18  C   UNL     1      54.483  32.211  53.452  0.00  0.00    +0.000 A 
ATOM     19  C   UNL     1      50.815  35.777  61.128  0.00  0.00    +0.000 A 
ATOM     20  H   UNL     1      52.369  35.609  54.761  0.00  0.00    +0.000 HD
ENDROOT
TORSDOF 0
ENDMDL
MODEL 5
REMARK VINA RESULT:      -6.1      1.196      2.841
REMARK  Name = Ellipticine.pdbqt.pdb
REMARK  0 active torsions:
REMARK  status: ('A' for Active; 'I' for Inactive)
REMARK                            x       y       z     vdW  Elec       q    Type
REMARK                         _______ _______ _______ _____ _____    ______ ____
ROOT
ATOM      1  N   UNL     1      62.739  51.264  59.142  0.00  0.00    +0.000 N 
ATOM      2  N   UNL     1      61.277  57.317  60.710  0.00  0.00    +0.000 NA
ATOM      3  C   UNL     1      63.711  53.197  59.724  0.00  0.00    +0.000 A 
ATOM      4  C   UNL     1      62.481  52.576  59.485  0.00  0.00    +0.000 A 
ATOM      5  C   UNL     1      63.712  54.566  60.098  0.00  0.00    +0.000 A 
ATOM      6  C   UNL     1      64.725  52.198  59.510  0.00  0.00    +0.000 A 
ATOM      7  C   UNL     1      61.252  53.245  59.598  0.00  0.00    +0.000 A 
ATOM      8  C   UNL     1      61.257  54.603  59.968  0.00  0.00    +0.000 A 
ATOM      9  C   UNL     1      62.483  55.256  60.216  0.00  0.00    +0.000 A 
ATOM     10  C   UNL     1      64.087  51.013  59.150  0.00  0.00    +0.000 A 
ATOM     11  C   UNL     1      65.025  55.270  60.364  0.00  0.00    +0.000 C 
ATOM     12  C   UNL     1      66.132  52.199  59.590  0.00  0.00    +0.000 A 
ATOM     13  C   UNL     1      59.984  52.475  59.316  0.00  0.00    +0.000 C 
ATOM     14  C   UNL     1      64.775  49.829  58.867  0.00  0.00    +0.000 A 
ATOM     15  C   UNL     1      60.067  55.336  60.101  0.00  0.00    +0.000 A 
ATOM     16  C   UNL     1      62.415  56.601  60.579  0.00  0.00    +0.000 A 
ATOM     17  C   UNL     1      66.839  51.027  59.310  0.00  0.00    +0.000 A 
ATOM     18  C   UNL     1      66.168  49.864  58.955  0.00  0.00    +0.000 A 
ATOM     19  C   UNL     1      60.125  56.668  60.467  0.00  0.00    +0.000 A 
ATOM     20  H   UNL     1      62.020  50.586  58.917  0.00  0.00    +0.000 HD
ENDROOT
TORSDOF 0
ENDMDL
MODEL 6
REMARK VINA RESULT:      -6.0     16.498     18.224
REMARK  Name = Ellipticine.pdbqt.pdb
REMARK  0 active torsions:
REMARK  status: ('A' for Active; 'I' for Inactive)
REMARK                            x       y       z     vdW  Elec       q    Type
REMARK                         _______ _______ _______ _____ _____    ______ ____
ROOT
ATOM      1  N   UNL     1      63.299  35.849  66.402  0.00  0.00    +0.000 N 
ATOM      2  N   UNL     1      62.906  41.288  69.792  0.00  0.00    +0.000 NA
ATOM      3  C   UNL     1      61.802  37.359  67.105  0.00  0.00    +0.000 A 
ATOM      4  C   UNL     1      63.158  37.018  67.120  0.00  0.00    +0.000 A 
ATOM      5  C   UNL     1      61.396  38.537  67.784  0.00  0.00    +0.000 A 
ATOM      6  C   UNL     1      61.130  36.341  66.342  0.00  0.00    +0.000 A 
ATOM      7  C   UNL     1      64.132  37.787  67.776  0.00  0.00    +0.000 A 
ATOM      8  C   UNL     1      63.727  38.955  68.449  0.00  0.00    +0.000 A 
ATOM      9  C   UNL     1      62.365  39.324  68.451  0.00  0.00    +0.000 A 
ATOM     10  C   UNL     1      62.088  35.421  65.922  0.00  0.00    +0.000 A 
ATOM     11  C   UNL     1      59.937  38.937  67.788  0.00  0.00    +0.000 C 
ATOM     12  C   UNL     1      59.788  36.120  65.972  0.00  0.00    +0.000 A 
ATOM     13  C   UNL     1      65.569  37.323  67.728  0.00  0.00    +0.000 C 
ATOM     14  C   UNL     1      61.781  34.294  65.152  0.00  0.00    +0.000 A 
ATOM     15  C   UNL     1      64.645  39.772  69.126  0.00  0.00    +0.000 A 
ATOM     16  C   UNL     1      62.033  40.493  69.136  0.00  0.00    +0.000 A 
ATOM     17  C   UNL     1      59.459  35.001  65.204  0.00  0.00    +0.000 A 
ATOM     18  C   UNL     1      60.442  34.105  64.803  0.00  0.00    +0.000 A 
ATOM     19  C   UNL     1      64.196  40.909  69.772  0.00  0.00    +0.000 A 
ATOM     20  H   UNL     1      64.184  35.378  66.254  0.00  0.00    +0.000 HD
ENDROOT
TORSDOF 0
ENDMDL
MODEL 7
REMARK VINA RESULT:      -5.8      9.058     12.117
REMARK  Name = Ellipticine.pdbqt.pdb
REMARK  0 active torsions:
REMARK  status: ('A' for Active; 'I' for Inactive)
REMARK                            x       y       z     vdW  Elec       q    Type
REMARK                         _______ _______ _______ _____ _____    ______ ____
ROOT
ATOM      1  N   UNL     1      69.292  61.638  66.644  0.00  0.00    +0.000 N 
ATOM      2  N   UNL     1      72.881  56.316  66.795  0.00  0.00    +0.000 NA
ATOM      3  C   UNL     1      69.503  59.650  65.635  0.00  0.00    +0.000 A 
ATOM      4  C   UNL     1      70.031  60.474  66.634  0.00  0.00    +0.000 A 
ATOM      5  C   UNL     1      70.099  58.379  65.426  0.00  0.00    +0.000 A 
ATOM      6  C   UNL     1      68.409  60.372  65.042  0.00  0.00    +0.000 A 
ATOM      7  C   UNL     1      71.122  60.100  67.435  0.00  0.00    +0.000 A 
ATOM      8  C   UNL     1      71.711  58.839  67.225  0.00  0.00    +0.000 A 
ATOM      9  C   UNL     1      71.199  57.986  66.224  0.00  0.00    +0.000 A 
ATOM     10  C   UNL     1      68.307  61.600  65.692  0.00  0.00    +0.000 A 
ATOM     11  C   UNL     1      69.552  57.462  64.353  0.00  0.00    +0.000 C 
ATOM     12  C   UNL     1      67.494  60.088  64.008  0.00  0.00    +0.000 A 
ATOM     13  C   UNL     1      71.611  61.070  68.485  0.00  0.00    +0.000 C 
ATOM     14  C   UNL     1      67.343  62.560  65.367  0.00  0.00    +0.000 A 
ATOM     15  C   UNL     1      72.804  58.398  67.987  0.00  0.00    +0.000 A 
ATOM     16  C   UNL     1      71.829  56.752  66.069  0.00  0.00    +0.000 A 
ATOM     17  C   UNL     1      66.523  61.033  63.667  0.00  0.00    +0.000 A 
ATOM     18  C   UNL     1      66.453  62.248  64.338  0.00  0.00    +0.000 A 
ATOM     19  C   UNL     1      73.347  57.151  67.741  0.00  0.00    +0.000 A 
ATOM     20  H   UNL     1      69.464  62.413  67.276  0.00  0.00    +0.000 HD
ENDROOT
TORSDOF 0
ENDMDL
MODEL 8
REMARK VINA RESULT:      -5.8     24.382     25.623
REMARK  Name = Ellipticine.pdbqt.pdb
REMARK  0 active torsions:
REMARK  status: ('A' for Active; 'I' for Inactive)
REMARK                            x       y       z     vdW  Elec       q    Type
REMARK                         _______ _______ _______ _____ _____    ______ ____
ROOT
ATOM      1  N   UNL     1      51.443  53.384  83.644  0.00  0.00    +0.000 N 
ATOM      2  N   UNL     1      50.294  58.359  79.750  0.00  0.00    +0.000 NA
ATOM      3  C   UNL     1      50.114  54.000  81.949  0.00  0.00    +0.000 A 
ATOM      4  C   UNL     1      51.155  54.422  82.782  0.00  0.00    +0.000 A 
ATOM      5  C   UNL     1      49.632  54.900  80.964  0.00  0.00    +0.000 A 
ATOM      6  C   UNL     1      49.787  52.656  82.349  0.00  0.00    +0.000 A 
ATOM      7  C   UNL     1      51.742  55.694  82.687  0.00  0.00    +0.000 A 
ATOM      8  C   UNL     1      51.262  56.585  81.709  0.00  0.00    +0.000 A 
ATOM      9  C   UNL     1      50.212  56.186  80.854  0.00  0.00    +0.000 A 
ATOM     10  C   UNL     1      50.630  52.307  83.401  0.00  0.00    +0.000 A 
ATOM     11  C   UNL     1      48.507  54.476  80.046  0.00  0.00    +0.000 C 
ATOM     12  C   UNL     1      48.845  51.706  81.906  0.00  0.00    +0.000 A 
ATOM     13  C   UNL     1      52.861  56.044  83.639  0.00  0.00    +0.000 C 
ATOM     14  C   UNL     1      50.585  51.062  84.036  0.00  0.00    +0.000 A 
ATOM     15  C   UNL     1      51.800  57.872  81.556  0.00  0.00    +0.000 A 
ATOM     16  C   UNL     1      49.785  57.118  79.908  0.00  0.00    +0.000 A 
ATOM     17  C   UNL     1      48.784  50.455  82.526  0.00  0.00    +0.000 A 
ATOM     18  C   UNL     1      49.641  50.143  83.574  0.00  0.00    +0.000 A 
ATOM     19  C   UNL     1      51.293  58.710  80.579  0.00  0.00    +0.000 A 
ATOM     20  H   UNL     1      52.162  53.423  84.358  0.00  0.00    +0.000 HD
ENDROOT
TORSDOF 0
ENDMDL
MODEL 9
REMARK VINA RESULT:      -5.7     12.700     15.830
REMARK  Name = Ellipticine.pdbqt.pdb
REMARK  0 active torsions:
REMARK  status: ('A' for Active; 'I' for Inactive)
REMARK                            x       y       z     vdW  Elec       q    Type
REMARK                         _______ _______ _______ _____ _____    ______ ____
ROOT
ATOM      1  N   UNL     1      59.569  65.467  67.888  0.00  0.00    +0.000 N 
ATOM      2  N   UNL     1      53.667  63.046  67.161  0.00  0.00    +0.000 NA
ATOM      3  C   UNL     1      57.517  65.582  68.778  0.00  0.00    +0.000 A 
ATOM      4  C   UNL     1      58.284  64.979  67.776  0.00  0.00    +0.000 A 
ATOM      5  C   UNL     1      56.144  65.239  68.873  0.00  0.00    +0.000 A 
ATOM      6  C   UNL     1      58.401  66.458  69.502  0.00  0.00    +0.000 A 
ATOM      7  C   UNL     1      57.756  64.053  66.863  0.00  0.00    +0.000 A 
ATOM      8  C   UNL     1      56.393  63.715  66.960  0.00  0.00    +0.000 A 
ATOM      9  C   UNL     1      55.594  64.307  67.961  0.00  0.00    +0.000 A 
ATOM     10  C   UNL     1      59.664  66.362  68.923  0.00  0.00    +0.000 A 
ATOM     11  C   UNL     1      55.284  65.872  69.946  0.00  0.00    +0.000 C 
ATOM     12  C   UNL     1      58.236  67.326  70.600  0.00  0.00    +0.000 A 
ATOM     13  C   UNL     1      58.676  63.463  65.821  0.00  0.00    +0.000 C 
ATOM     14  C   UNL     1      60.772  67.084  69.379  0.00  0.00    +0.000 A 
ATOM     15  C   UNL     1      55.796  62.797  66.082  0.00  0.00    +0.000 A 
ATOM     16  C   UNL     1      54.253  63.927  68.000  0.00  0.00    +0.000 A 
ATOM     17  C   UNL     1      59.329  68.057  71.072  0.00  0.00    +0.000 A 
ATOM     18  C   UNL     1      60.574  67.935  70.468  0.00  0.00    +0.000 A 
ATOM     19  C   UNL     1      54.453  62.498  66.218  0.00  0.00    +0.000 A 
ATOM     20  H   UNL     1      60.334  65.194  67.281  0.00  0.00    +0.000 HD
ENDROOT
TORSDOF 0
ENDMDL
