MODEL 1
REMARK VINA RESULT:      -6.8      0.000      0.000
REMARK  Name = Enterolactone.pdbqt.pdb
REMARK  2 active torsions:
REMARK  status: ('A' for Active; 'I' for Inactive)
REMARK    1  A    between atoms: C_10  and  O_14
REMARK    2  A    between atoms: C_19  and  O_23
REMARK                            x       y       z     vdW  Elec       q    Type
REMARK                         _______ _______ _______ _____ _____    ______ ____
ROOT
ATOM      1  O   UNL     1      67.518  55.592  60.358  0.00  0.00    +0.000 OA
ATOM      2  O   UNL     1      66.497  57.629  60.850  0.00  0.00    +0.000 OA
ATOM      3  C   UNL     1      65.592  54.218  60.222  0.00  0.00    +0.000 C 
ATOM      4  C   UNL     1      65.199  55.574  60.519  0.00  0.00    +0.000 C 
ATOM      5  C   UNL     1      66.973  54.405  60.149  0.00  0.00    +0.000 C 
ATOM      6  C   UNL     1      66.444  56.437  60.612  0.00  0.00    +0.000 C 
ATOM      7  C   UNL     1      64.776  53.222  59.653  0.00  0.00    +0.000 C 
ATOM      8  C   UNL     1      63.933  52.223  59.085  0.00  0.00    +0.000 C 
ATOM      9  C   UNL     1      62.919  52.592  58.205  0.00  0.00    +0.000 C 
ATOM     10  C   UNL     1      62.096  51.608  57.665  0.00  0.00    +0.000 C 
ATOM     11  C   UNL     1      62.274  50.268  57.992  0.00  0.00    +0.000 C 
ATOM     12  C   UNL     1      63.290  49.906  58.873  0.00  0.00    +0.000 C 
ATOM     13  C   UNL     1      64.120  50.883  59.420  0.00  0.00    +0.000 C 
ATOM     14  C   UNL     1      63.872  56.047  60.622  0.00  0.00    +0.000 C 
ATOM     15  C   UNL     1      62.530  56.516  60.719  0.00  0.00    +0.000 C 
ATOM     16  C   UNL     1      61.560  55.721  61.322  0.00  0.00    +0.000 C 
ATOM     17  C   UNL     1      60.250  56.187  61.401  0.00  0.00    +0.000 C 
ATOM     18  C   UNL     1      59.902  57.430  60.885  0.00  0.00    +0.000 C 
ATOM     19  C   UNL     1      60.877  58.221  60.283  0.00  0.00    +0.000 C 
ATOM     20  C   UNL     1      62.192  57.765  60.199  0.00  0.00    +0.000 C 
ENDROOT
BRANCH  10  21
ATOM     21  O   UNL     1      61.093  51.936  56.799  0.00  0.00    +0.000 OA
ATOM     22  H   UNL     1      60.722  52.795  57.066  0.00  0.00    +0.000 HD
ENDBRANCH  10  21
BRANCH  17  23
ATOM     23  O   UNL     1      59.275  55.432  61.984  0.00  0.00    +0.000 OA
ATOM     24  H   UNL     1      59.272  55.617  62.941  0.00  0.00    +0.000 HD
ENDBRANCH  17  23
TORSDOF 2
ENDMDL
MODEL 2
REMARK VINA RESULT:      -6.6     21.830     23.256
REMARK  Name = Enterolactone.pdbqt.pdb
REMARK  2 active torsions:
REMARK  status: ('A' for Active; 'I' for Inactive)
REMARK    1  A    between atoms: C_10  and  O_14
REMARK    2  A    between atoms: C_19  and  O_23
REMARK                            x       y       z     vdW  Elec       q    Type
REMARK                         _______ _______ _______ _____ _____    ______ ____
ROOT
ATOM      1  O   UNL     1      53.665  35.141  64.392  0.00  0.00    +0.000 OA
ATOM      2  O   UNL     1      54.905  34.619  62.489  0.00  0.00    +0.000 OA
ATOM      3  C   UNL     1      51.692  35.950  63.357  0.00  0.00    +0.000 C 
ATOM      4  C   UNL     1      52.638  35.544  62.346  0.00  0.00    +0.000 C 
ATOM      5  C   UNL     1      52.442  35.638  64.492  0.00  0.00    +0.000 C 
ATOM      6  C   UNL     1      53.897  35.039  63.026  0.00  0.00    +0.000 C 
ATOM      7  C   UNL     1      50.300  36.073  63.192  0.00  0.00    +0.000 C 
ATOM      8  C   UNL     1      48.893  36.201  63.003  0.00  0.00    +0.000 C 
ATOM      9  C   UNL     1      48.239  35.375  62.092  0.00  0.00    +0.000 C 
ATOM     10  C   UNL     1      46.866  35.517  61.910  0.00  0.00    +0.000 C 
ATOM     11  C   UNL     1      46.145  36.468  62.623  0.00  0.00    +0.000 C 
ATOM     12  C   UNL     1      46.804  37.290  63.533  0.00  0.00    +0.000 C 
ATOM     13  C   UNL     1      48.179  37.157  63.723  0.00  0.00    +0.000 C 
ATOM     14  C   UNL     1      52.405  35.534  60.953  0.00  0.00    +0.000 C 
ATOM     15  C   UNL     1      52.161  35.522  59.549  0.00  0.00    +0.000 C 
ATOM     16  C   UNL     1      51.431  36.553  58.965  0.00  0.00    +0.000 C 
ATOM     17  C   UNL     1      51.189  36.524  57.594  0.00  0.00    +0.000 C 
ATOM     18  C   UNL     1      51.666  35.483  56.806  0.00  0.00    +0.000 C 
ATOM     19  C   UNL     1      52.397  34.454  57.397  0.00  0.00    +0.000 C 
ATOM     20  C   UNL     1      52.644  34.473  58.769  0.00  0.00    +0.000 C 
ENDROOT
BRANCH  10  21
ATOM     21  O   UNL     1      46.195  34.724  61.025  0.00  0.00    +0.000 OA
ATOM     22  H   UNL     1      46.713  34.668  60.203  0.00  0.00    +0.000 HD
ENDBRANCH  10  21
BRANCH  17  23
ATOM     23  O   UNL     1      50.476  37.518  56.990  0.00  0.00    +0.000 OA
ATOM     24  H   UNL     1      50.080  37.163  56.175  0.00  0.00    +0.000 HD
ENDBRANCH  17  23
TORSDOF 2
ENDMDL
MODEL 3
REMARK VINA RESULT:      -6.3     21.666     23.200
REMARK  Name = Enterolactone.pdbqt.pdb
REMARK  2 active torsions:
REMARK  status: ('A' for Active; 'I' for Inactive)
REMARK    1  A    between atoms: C_10  and  O_14
REMARK    2  A    between atoms: C_19  and  O_23
REMARK                            x       y       z     vdW  Elec       q    Type
REMARK                         _______ _______ _______ _____ _____    ______ ____
ROOT
ATOM      1  O   UNL     1      53.404  33.594  63.864  0.00  0.00    +0.000 OA
ATOM      2  O   UNL     1      51.862  34.475  65.374  0.00  0.00    +0.000 OA
ATOM      3  C   UNL     1      52.268  34.059  61.836  0.00  0.00    +0.000 C 
ATOM      4  C   UNL     1      51.486  34.537  62.951  0.00  0.00    +0.000 C 
ATOM      5  C   UNL     1      53.358  33.549  62.542  0.00  0.00    +0.000 C 
ATOM      6  C   UNL     1      52.223  34.222  64.239  0.00  0.00    +0.000 C 
ATOM      7  C   UNL     1      52.170  34.500  60.503  0.00  0.00    +0.000 C 
ATOM      8  C   UNL     1      52.052  34.952  59.157  0.00  0.00    +0.000 C 
ATOM      9  C   UNL     1      51.673  36.267  58.899  0.00  0.00    +0.000 C 
ATOM     10  C   UNL     1      51.551  36.693  57.580  0.00  0.00    +0.000 C 
ATOM     11  C   UNL     1      51.803  35.826  56.522  0.00  0.00    +0.000 C 
ATOM     12  C   UNL     1      52.182  34.512  56.786  0.00  0.00    +0.000 C 
ATOM     13  C   UNL     1      52.307  34.075  58.104  0.00  0.00    +0.000 C 
ATOM     14  C   UNL     1      50.273  35.256  62.862  0.00  0.00    +0.000 C 
ATOM     15  C   UNL     1      49.053  35.987  62.763  0.00  0.00    +0.000 C 
ATOM     16  C   UNL     1      48.120  35.646  61.788  0.00  0.00    +0.000 C 
ATOM     17  C   UNL     1      46.937  36.375  61.695  0.00  0.00    +0.000 C 
ATOM     18  C   UNL     1      46.679  37.433  62.560  0.00  0.00    +0.000 C 
ATOM     19  C   UNL     1      47.617  37.767  63.534  0.00  0.00    +0.000 C 
ATOM     20  C   UNL     1      48.805  37.045  63.636  0.00  0.00    +0.000 C 
ENDROOT
BRANCH  10  21
ATOM     21  O   UNL     1      51.180  37.975  57.293  0.00  0.00    +0.000 OA
ATOM     22  H   UNL     1      51.561  38.222  56.432  0.00  0.00    +0.000 HD
ENDBRANCH  10  21
BRANCH  17  23
ATOM     23  O   UNL     1      46.002  36.068  60.751  0.00  0.00    +0.000 OA
ATOM     24  H   UNL     1      45.271  35.592  61.183  0.00  0.00    +0.000 HD
ENDBRANCH  17  23
TORSDOF 2
ENDMDL
MODEL 4
REMARK VINA RESULT:      -6.3      2.241      2.424
REMARK  Name = Enterolactone.pdbqt.pdb
REMARK  2 active torsions:
REMARK  status: ('A' for Active; 'I' for Inactive)
REMARK    1  A    between atoms: C_10  and  O_14
REMARK    2  A    between atoms: C_19  and  O_23
REMARK                            x       y       z     vdW  Elec       q    Type
REMARK                         _______ _______ _______ _____ _____    ______ ____
ROOT
ATOM      1  O   UNL     1      65.255  56.557  56.355  0.00  0.00    +0.000 OA
ATOM      2  O   UNL     1      63.946  58.293  57.196  0.00  0.00    +0.000 OA
ATOM      3  C   UNL     1      64.659  54.847  57.884  0.00  0.00    +0.000 C 
ATOM      4  C   UNL     1      63.943  56.058  58.208  0.00  0.00    +0.000 C 
ATOM      5  C   UNL     1      65.368  55.307  56.774  0.00  0.00    +0.000 C 
ATOM      6  C   UNL     1      64.345  57.143  57.226  0.00  0.00    +0.000 C 
ATOM      7  C   UNL     1      64.289  53.540  58.252  0.00  0.00    +0.000 C 
ATOM      8  C   UNL     1      63.904  52.224  58.641  0.00  0.00    +0.000 C 
ATOM      9  C   UNL     1      62.555  51.913  58.791  0.00  0.00    +0.000 C 
ATOM     10  C   UNL     1      62.192  50.628  59.181  0.00  0.00    +0.000 C 
ATOM     11  C   UNL     1      63.157  49.655  59.421  0.00  0.00    +0.000 C 
ATOM     12  C   UNL     1      64.505  49.971  59.269  0.00  0.00    +0.000 C 
ATOM     13  C   UNL     1      64.879  51.256  58.879  0.00  0.00    +0.000 C 
ATOM     14  C   UNL     1      62.964  56.195  59.217  0.00  0.00    +0.000 C 
ATOM     15  C   UNL     1      61.974  56.324  60.234  0.00  0.00    +0.000 C 
ATOM     16  C   UNL     1      62.143  55.670  61.451  0.00  0.00    +0.000 C 
ATOM     17  C   UNL     1      61.163  55.794  62.432  0.00  0.00    +0.000 C 
ATOM     18  C   UNL     1      60.024  56.560  62.211  0.00  0.00    +0.000 C 
ATOM     19  C   UNL     1      59.862  57.213  60.991  0.00  0.00    +0.000 C 
ATOM     20  C   UNL     1      60.836  57.095  60.001  0.00  0.00    +0.000 C 
ENDROOT
BRANCH  10  21
ATOM     21  O   UNL     1      60.879  50.290  59.337  0.00  0.00    +0.000 OA
ATOM     22  H   UNL     1      60.588  50.578  60.220  0.00  0.00    +0.000 HD
ENDBRANCH  10  21
BRANCH  17  23
ATOM     23  O   UNL     1      61.297  55.166  63.635  0.00  0.00    +0.000 OA
ATOM     24  H   UNL     1      62.225  55.237  63.920  0.00  0.00    +0.000 HD
ENDBRANCH  17  23
TORSDOF 2
ENDMDL
MODEL 5
REMARK VINA RESULT:      -6.2      4.647      8.425
REMARK  Name = Enterolactone.pdbqt.pdb
REMARK  2 active torsions:
REMARK  status: ('A' for Active; 'I' for Inactive)
REMARK    1  A    between atoms: C_10  and  O_14
REMARK    2  A    between atoms: C_19  and  O_23
REMARK                            x       y       z     vdW  Elec       q    Type
REMARK                         _______ _______ _______ _____ _____    ______ ____
ROOT
ATOM      1  O   UNL     1      70.087  50.465  60.141  0.00  0.00    +0.000 OA
ATOM      2  O   UNL     1      70.836  48.625  58.921  0.00  0.00    +0.000 OA
ATOM      3  C   UNL     1      67.924  50.697  59.201  0.00  0.00    +0.000 C 
ATOM      4  C   UNL     1      68.601  49.578  58.590  0.00  0.00    +0.000 C 
ATOM      5  C   UNL     1      68.924  51.094  60.089  0.00  0.00    +0.000 C 
ATOM      6  C   UNL     1      69.986  49.451  59.196  0.00  0.00    +0.000 C 
ATOM      7  C   UNL     1      66.532  50.904  59.243  0.00  0.00    +0.000 C 
ATOM      8  C   UNL     1      65.121  51.102  59.269  0.00  0.00    +0.000 C 
ATOM      9  C   UNL     1      64.268  50.001  59.296  0.00  0.00    +0.000 C 
ATOM     10  C   UNL     1      62.892  50.208  59.310  0.00  0.00    +0.000 C 
ATOM     11  C   UNL     1      62.362  51.494  59.299  0.00  0.00    +0.000 C 
ATOM     12  C   UNL     1      63.220  52.590  59.273  0.00  0.00    +0.000 C 
ATOM     13  C   UNL     1      64.600  52.395  59.258  0.00  0.00    +0.000 C 
ATOM     14  C   UNL     1      68.041  48.690  57.644  0.00  0.00    +0.000 C 
ATOM     15  C   UNL     1      67.468  47.796  56.694  0.00  0.00    +0.000 C 
ATOM     16  C   UNL     1      66.619  48.286  55.706  0.00  0.00    +0.000 C 
ATOM     17  C   UNL     1      66.057  47.400  54.791  0.00  0.00    +0.000 C 
ATOM     18  C   UNL     1      66.331  46.038  54.854  0.00  0.00    +0.000 C 
ATOM     19  C   UNL     1      67.182  45.554  55.845  0.00  0.00    +0.000 C 
ATOM     20  C   UNL     1      67.751  46.432  56.767  0.00  0.00    +0.000 C 
ENDROOT
BRANCH  10  21
ATOM     21  O   UNL     1      62.029  49.152  59.336  0.00  0.00    +0.000 OA
ATOM     22  H   UNL     1      62.100  48.672  58.493  0.00  0.00    +0.000 HD
ENDBRANCH  10  21
BRANCH  17  23
ATOM     23  O   UNL     1      65.220  47.847  53.811  0.00  0.00    +0.000 OA
ATOM     24  H   UNL     1      65.425  47.368  52.988  0.00  0.00    +0.000 HD
ENDBRANCH  17  23
TORSDOF 2
ENDMDL
MODEL 6
REMARK VINA RESULT:      -5.7     18.863     21.613
REMARK  Name = Enterolactone.pdbqt.pdb
REMARK  2 active torsions:
REMARK  status: ('A' for Active; 'I' for Inactive)
REMARK    1  A    between atoms: C_10  and  O_14
REMARK    2  A    between atoms: C_19  and  O_23
REMARK                            x       y       z     vdW  Elec       q    Type
REMARK                         _______ _______ _______ _____ _____    ______ ____
ROOT
ATOM      1  O   UNL     1      51.222  35.195  61.952  0.00  0.00    +0.000 OA
ATOM      2  O   UNL     1      53.304  34.875  60.955  0.00  0.00    +0.000 OA
ATOM      3  C   UNL     1      51.925  36.027  64.058  0.00  0.00    +0.000 C 
ATOM      4  C   UNL     1      53.079  35.755  63.234  0.00  0.00    +0.000 C 
ATOM      5  C   UNL     1      50.926  35.658  63.157  0.00  0.00    +0.000 C 
ATOM      6  C   UNL     1      52.610  35.214  61.895  0.00  0.00    +0.000 C 
ATOM      7  C   UNL     1      51.880  36.897  65.163  0.00  0.00    +0.000 C 
ATOM      8  C   UNL     1      51.854  37.776  66.284  0.00  0.00    +0.000 C 
ATOM      9  C   UNL     1      52.687  38.892  66.309  0.00  0.00    +0.000 C 
ATOM     10  C   UNL     1      52.660  39.737  67.414  0.00  0.00    +0.000 C 
ATOM     11  C   UNL     1      51.815  39.481  68.489  0.00  0.00    +0.000 C 
ATOM     12  C   UNL     1      50.984  38.364  68.458  0.00  0.00    +0.000 C 
ATOM     13  C   UNL     1      51.003  37.511  67.356  0.00  0.00    +0.000 C 
ATOM     14  C   UNL     1      54.422  36.026  63.577  0.00  0.00    +0.000 C 
ATOM     15  C   UNL     1      55.774  36.307  63.929  0.00  0.00    +0.000 C 
ATOM     16  C   UNL     1      56.207  36.096  65.235  0.00  0.00    +0.000 C 
ATOM     17  C   UNL     1      57.527  36.385  65.569  0.00  0.00    +0.000 C 
ATOM     18  C   UNL     1      58.413  36.879  64.618  0.00  0.00    +0.000 C 
ATOM     19  C   UNL     1      57.973  37.087  63.312  0.00  0.00    +0.000 C 
ATOM     20  C   UNL     1      56.653  36.801  62.967  0.00  0.00    +0.000 C 
ENDROOT
BRANCH  10  21
ATOM     21  O   UNL     1      53.464  40.838  67.470  0.00  0.00    +0.000 OA
ATOM     22  H   UNL     1      53.249  41.339  68.276  0.00  0.00    +0.000 HD
ENDBRANCH  10  21
BRANCH  17  23
ATOM     23  O   UNL     1      57.984  36.192  66.840  0.00  0.00    +0.000 OA
ATOM     24  H   UNL     1      58.758  36.767  66.981  0.00  0.00    +0.000 HD
ENDBRANCH  17  23
TORSDOF 2
ENDMDL
MODEL 7
REMARK VINA RESULT:      -5.7     15.298     18.569
REMARK  Name = Enterolactone.pdbqt.pdb
REMARK  2 active torsions:
REMARK  status: ('A' for Active; 'I' for Inactive)
REMARK    1  A    between atoms: C_10  and  O_14
REMARK    2  A    between atoms: C_19  and  O_23
REMARK                            x       y       z     vdW  Elec       q    Type
REMARK                         _______ _______ _______ _____ _____    ______ ____
ROOT
ATOM      1  O   UNL     1      68.511  68.000  67.676  0.00  0.00    +0.000 OA
ATOM      2  O   UNL     1      66.951  66.317  67.266  0.00  0.00    +0.000 OA
ATOM      3  C   UNL     1      67.064  69.878  67.667  0.00  0.00    +0.000 C 
ATOM      4  C   UNL     1      66.299  68.675  67.435  0.00  0.00    +0.000 C 
ATOM      5  C   UNL     1      68.330  69.306  67.798  0.00  0.00    +0.000 C 
ATOM      6  C   UNL     1      67.242  67.487  67.434  0.00  0.00    +0.000 C 
ATOM      7  C   UNL     1      66.562  71.101  68.149  0.00  0.00    +0.000 C 
ATOM      8  C   UNL     1      66.035  72.335  68.631  0.00  0.00    +0.000 C 
ATOM      9  C   UNL     1      64.944  72.331  69.496  0.00  0.00    +0.000 C 
ATOM     10  C   UNL     1      64.432  73.543  69.950  0.00  0.00    +0.000 C 
ATOM     11  C   UNL     1      64.996  74.751  69.553  0.00  0.00    +0.000 C 
ATOM     12  C   UNL     1      66.088  74.748  68.688  0.00  0.00    +0.000 C 
ATOM     13  C   UNL     1      66.608  73.540  68.227  0.00  0.00    +0.000 C 
ATOM     14  C   UNL     1      64.894  68.600  67.314  0.00  0.00    +0.000 C 
ATOM     15  C   UNL     1      63.475  68.532  67.198  0.00  0.00    +0.000 C 
ATOM     16  C   UNL     1      62.787  69.532  66.517  0.00  0.00    +0.000 C 
ATOM     17  C   UNL     1      61.401  69.459  66.420  0.00  0.00    +0.000 C 
ATOM     18  C   UNL     1      60.698  68.405  66.994  0.00  0.00    +0.000 C 
ATOM     19  C   UNL     1      61.393  67.407  67.673  0.00  0.00    +0.000 C 
ATOM     20  C   UNL     1      62.782  67.469  67.776  0.00  0.00    +0.000 C 
ENDROOT
BRANCH  10  21
ATOM     21  O   UNL     1      63.364  73.575  70.798  0.00  0.00    +0.000 OA
ATOM     22  H   UNL     1      63.650  73.254  71.671  0.00  0.00    +0.000 HD
ENDBRANCH  10  21
BRANCH  17  23
ATOM     23  O   UNL     1      60.696  70.424  65.762  0.00  0.00    +0.000 OA
ATOM     24  H   UNL     1      61.084  70.539  64.876  0.00  0.00    +0.000 HD
ENDBRANCH  17  23
TORSDOF 2
ENDMDL
MODEL 8
REMARK VINA RESULT:      -5.7     26.429     29.220
REMARK  Name = Enterolactone.pdbqt.pdb
REMARK  2 active torsions:
REMARK  status: ('A' for Active; 'I' for Inactive)
REMARK    1  A    between atoms: C_10  and  O_14
REMARK    2  A    between atoms: C_19  and  O_23
REMARK                            x       y       z     vdW  Elec       q    Type
REMARK                         _______ _______ _______ _____ _____    ______ ____
ROOT
ATOM      1  O   UNL     1      57.854  75.822  74.624  0.00  0.00    +0.000 OA
ATOM      2  O   UNL     1      56.998  73.814  75.441  0.00  0.00    +0.000 OA
ATOM      3  C   UNL     1      58.863  76.646  76.604  0.00  0.00    +0.000 C 
ATOM      4  C   UNL     1      58.254  75.365  76.868  0.00  0.00    +0.000 C 
ATOM      5  C   UNL     1      58.549  76.759  75.249  0.00  0.00    +0.000 C 
ATOM      6  C   UNL     1      57.606  74.857  75.593  0.00  0.00    +0.000 C 
ATOM      7  C   UNL     1      59.891  77.249  77.354  0.00  0.00    +0.000 C 
ATOM      8  C   UNL     1      60.925  77.847  78.131  0.00  0.00    +0.000 C 
ATOM      9  C   UNL     1      61.856  77.041  78.783  0.00  0.00    +0.000 C 
ATOM     10  C   UNL     1      62.855  77.638  79.546  0.00  0.00    +0.000 C 
ATOM     11  C   UNL     1      62.934  79.021  79.664  0.00  0.00    +0.000 C 
ATOM     12  C   UNL     1      62.001  79.821  79.010  0.00  0.00    +0.000 C 
ATOM     13  C   UNL     1      60.996  79.235  78.242  0.00  0.00    +0.000 C 
ATOM     14  C   UNL     1      58.321  74.653  78.086  0.00  0.00    +0.000 C 
ATOM     15  C   UNL     1      58.397  73.939  79.317  0.00  0.00    +0.000 C 
ATOM     16  C   UNL     1      58.319  74.629  80.524  0.00  0.00    +0.000 C 
ATOM     17  C   UNL     1      58.406  73.921  81.719  0.00  0.00    +0.000 C 
ATOM     18  C   UNL     1      58.570  72.540  81.722  0.00  0.00    +0.000 C 
ATOM     19  C   UNL     1      58.646  71.856  80.511  0.00  0.00    +0.000 C 
ATOM     20  C   UNL     1      58.561  72.554  79.307  0.00  0.00    +0.000 C 
ENDROOT
BRANCH  10  21
ATOM     21  O   UNL     1      63.782  76.877  80.197  0.00  0.00    +0.000 OA
ATOM     22  H   UNL     1      63.531  76.819  81.136  0.00  0.00    +0.000 HD
ENDBRANCH  10  21
BRANCH  17  23
ATOM     23  O   UNL     1      58.335  74.566  82.919  0.00  0.00    +0.000 OA
ATOM     24  H   UNL     1      59.206  74.512  83.351  0.00  0.00    +0.000 HD
ENDBRANCH  17  23
TORSDOF 2
ENDMDL
MODEL 9
REMARK VINA RESULT:      -5.6     27.560     30.546
REMARK  Name = Enterolactone.pdbqt.pdb
REMARK  2 active torsions:
REMARK  status: ('A' for Active; 'I' for Inactive)
REMARK    1  A    between atoms: C_10  and  O_14
REMARK    2  A    between atoms: C_19  and  O_23
REMARK                            x       y       z     vdW  Elec       q    Type
REMARK                         _______ _______ _______ _____ _____    ______ ____
ROOT
ATOM      1  O   UNL     1      61.000  78.844  83.481  0.00  0.00    +0.000 OA
ATOM      2  O   UNL     1      59.818  77.784  85.189  0.00  0.00    +0.000 OA
ATOM      3  C   UNL     1      60.710  77.241  81.759  0.00  0.00    +0.000 C 
ATOM      4  C   UNL     1      60.036  76.795  82.955  0.00  0.00    +0.000 C 
ATOM      5  C   UNL     1      61.209  78.455  82.234  0.00  0.00    +0.000 C 
ATOM      6  C   UNL     1      60.240  77.827  84.048  0.00  0.00    +0.000 C 
ATOM      7  C   UNL     1      60.436  76.820  80.444  0.00  0.00    +0.000 C 
ATOM      8  C   UNL     1      60.151  76.376  79.120  0.00  0.00    +0.000 C 
ATOM      9  C   UNL     1      58.854  75.997  78.782  0.00  0.00    +0.000 C 
ATOM     10  C   UNL     1      58.591  75.555  77.489  0.00  0.00    +0.000 C 
ATOM     11  C   UNL     1      59.602  75.488  76.536  0.00  0.00    +0.000 C 
ATOM     12  C   UNL     1      60.897  75.868  76.881  0.00  0.00    +0.000 C 
ATOM     13  C   UNL     1      61.172  76.312  78.174  0.00  0.00    +0.000 C 
ATOM     14  C   UNL     1      59.242  75.631  83.071  0.00  0.00    +0.000 C 
ATOM     15  C   UNL     1      58.439  74.459  83.179  0.00  0.00    +0.000 C 
ATOM     16  C   UNL     1      58.828  73.291  82.528  0.00  0.00    +0.000 C 
ATOM     17  C   UNL     1      58.029  72.157  82.632  0.00  0.00    +0.000 C 
ATOM     18  C   UNL     1      56.853  72.176  83.374  0.00  0.00    +0.000 C 
ATOM     19  C   UNL     1      56.470  73.347  84.023  0.00  0.00    +0.000 C 
ATOM     20  C   UNL     1      57.263  74.490  83.926  0.00  0.00    +0.000 C 
ENDROOT
BRANCH  10  21
ATOM     21  O   UNL     1      57.331  75.177  77.124  0.00  0.00    +0.000 OA
ATOM     22  H   UNL     1      56.965  74.606  77.822  0.00  0.00    +0.000 HD
ENDBRANCH  10  21
BRANCH  17  23
ATOM     23  O   UNL     1      58.380  70.997  82.006  0.00  0.00    +0.000 OA
ATOM     24  H   UNL     1      59.311  71.065  81.727  0.00  0.00    +0.000 HD
ENDBRANCH  17  23
TORSDOF 2
ENDMDL
