MODEL 1
REMARK VINA RESULT:      -6.3      0.000      0.000
REMARK  Name = 
REMARK  12 active torsions:
REMARK  status: ('A' for Active; 'I' for Inactive)
REMARK    1  A    between atoms: O_2  and  C_12
REMARK    2  A    between atoms: O_2  and  C_24
REMARK    3  A    between atoms: O_3  and  C_18
REMARK    4  A    between atoms: O_4  and  C_23
REMARK    5  A    between atoms: O_5  and  C_25
REMARK    6  A    between atoms: O_6  and  C_26
REMARK    7  A    between atoms: O_8  and  C_27
REMARK    8  A    between atoms: O_9  and  C_31
REMARK    9  A    between atoms: O_10  and  C_32
REMARK   10  A    between atoms: O_11  and  C_33
REMARK   11  A    between atoms: C_13  and  C_16
REMARK   12  A    between atoms: C_24  and  C_28
REMARK                            x       y       z     vdW  Elec       q    Type
REMARK                         _______ _______ _______ _____ _____    ______ ____
ROOT
ATOM      1  O   UNL     1      57.266  39.716  69.421  0.00  0.00    +0.000 OA
ATOM      2  C   UNL     1      57.849  37.368  68.914  0.00  0.00    +0.000 C 
ATOM      3  C   UNL     1      58.217  38.664  69.658  0.00  0.00    +0.000 C 
ATOM      4  C   UNL     1      56.502  36.875  69.443  0.00  0.00    +0.000 C 
ATOM      5  C   UNL     1      55.523  38.012  69.595  0.00  0.00    +0.000 A 
ATOM      6  C   UNL     1      55.957  39.344  69.581  0.00  0.00    +0.000 A 
ATOM      7  C   UNL     1      54.158  37.757  69.778  0.00  0.00    +0.000 A 
ATOM      8  C   UNL     1      55.044  40.394  69.700  0.00  0.00    +0.000 A 
ATOM      9  C   UNL     1      53.240  38.797  69.910  0.00  0.00    +0.000 A 
ATOM     10  C   UNL     1      53.693  40.110  69.865  0.00  0.00    +0.000 A 
ENDROOT
BRANCH   3  11
ATOM     11  C   UNL     1      59.605  39.157  69.272  0.00  0.00    +0.000 A 
ATOM     12  C   UNL     1      59.740  40.214  68.350  0.00  0.00    +0.000 A 
ATOM     13  C   UNL     1      60.762  38.600  69.848  0.00  0.00    +0.000 A 
ATOM     14  C   UNL     1      62.016  39.092  69.499  0.00  0.00    +0.000 A 
ATOM     15  C   UNL     1      61.006  40.694  68.007  0.00  0.00    +0.000 A 
ATOM     16  C   UNL     1      62.141  40.133  68.582  0.00  0.00    +0.000 A 
BRANCH  14  17
ATOM     17  O   UNL     1      63.165  38.580  70.041  0.00  0.00    +0.000 OA
ATOM     18  H   UNL     1      63.899  39.179  69.822  0.00  0.00    +0.000 HD
ENDBRANCH  14  17
BRANCH  15  19
ATOM     19  O   UNL     1      61.141  41.716  67.112  0.00  0.00    +0.000 OA
ATOM     20  H   UNL     1      60.270  41.961  66.764  0.00  0.00    +0.000 HD
ENDBRANCH  15  19
BRANCH  16  21
ATOM     21  O   UNL     1      63.389  40.592  68.263  0.00  0.00    +0.000 OA
ATOM     22  H   UNL     1      64.000  39.924  68.630  0.00  0.00    +0.000 HD
ENDBRANCH  16  21
ENDBRANCH   3  11
BRANCH   7  23
ATOM     23  O   UNL     1      53.736  36.459  69.824  0.00  0.00    +0.000 OA
ATOM     24  H   UNL     1      53.746  36.094  68.924  0.00  0.00    +0.000 HD
ENDBRANCH   7  23
BRANCH  10  25
ATOM     25  O   UNL     1      52.768  41.104  69.994  0.00  0.00    +0.000 OA
ATOM     26  H   UNL     1      52.236  41.144  69.181  0.00  0.00    +0.000 HD
ENDBRANCH  10  25
BRANCH   2  27
ATOM     27  O   UNL     1      57.726  37.639  67.496  0.00  0.00    +0.000 OA
BRANCH  27  29
ATOM     28  O   UNL     1      57.619  35.810  66.113  0.00  0.00    +0.000 OA
ATOM     29  C   UNL     1      58.237  36.709  66.659  0.00  0.00    +0.000 C 
BRANCH  29  30
ATOM     30  C   UNL     1      59.702  36.910  66.518  0.00  0.00    +0.000 A 
ATOM     31  C   UNL     1      60.555  36.043  67.218  0.00  0.00    +0.000 A 
ATOM     32  C   UNL     1      60.234  37.926  65.705  0.00  0.00    +0.000 A 
ATOM     33  C   UNL     1      61.616  38.080  65.608  0.00  0.00    +0.000 A 
ATOM     34  C   UNL     1      61.930  36.213  67.111  0.00  0.00    +0.000 A 
ATOM     35  C   UNL     1      62.460  37.228  66.314  0.00  0.00    +0.000 A 
BRANCH  33  36
ATOM     36  O   UNL     1      62.150  39.063  64.825  0.00  0.00    +0.000 OA
ATOM     37  H   UNL     1      61.444  39.506  64.331  0.00  0.00    +0.000 HD
ENDBRANCH  33  36
BRANCH  34  38
ATOM     38  O   UNL     1      62.809  35.401  67.775  0.00  0.00    +0.000 OA
ATOM     39  H   UNL     1      63.437  35.959  68.268  0.00  0.00    +0.000 HD
ENDBRANCH  34  38
BRANCH  35  40
ATOM     40  O   UNL     1      63.819  37.366  66.233  0.00  0.00    +0.000 OA
ATOM     41  H   UNL     1      63.962  38.088  65.591  0.00  0.00    +0.000 HD
ENDBRANCH  35  40
ENDBRANCH  29  30
ENDBRANCH  27  29
ENDBRANCH   2  27
TORSDOF 12
ENDMDL
MODEL 2
REMARK VINA RESULT:      -6.3      0.069      2.039
REMARK  Name = 
REMARK  12 active torsions:
REMARK  status: ('A' for Active; 'I' for Inactive)
REMARK    1  A    between atoms: O_2  and  C_12
REMARK    2  A    between atoms: O_2  and  C_24
REMARK    3  A    between atoms: O_3  and  C_18
REMARK    4  A    between atoms: O_4  and  C_23
REMARK    5  A    between atoms: O_5  and  C_25
REMARK    6  A    between atoms: O_6  and  C_26
REMARK    7  A    between atoms: O_8  and  C_27
REMARK    8  A    between atoms: O_9  and  C_31
REMARK    9  A    between atoms: O_10  and  C_32
REMARK   10  A    between atoms: O_11  and  C_33
REMARK   11  A    between atoms: C_13  and  C_16
REMARK   12  A    between atoms: C_24  and  C_28
REMARK                            x       y       z     vdW  Elec       q    Type
REMARK                         _______ _______ _______ _____ _____    ______ ____
ROOT
ATOM      1  O   UNL     1      57.246  39.735  69.466  0.00  0.00    +0.000 OA
ATOM      2  C   UNL     1      57.847  37.406  68.898  0.00  0.00    +0.000 C 
ATOM      3  C   UNL     1      58.202  38.683  69.681  0.00  0.00    +0.000 C 
ATOM      4  C   UNL     1      56.500  36.891  69.403  0.00  0.00    +0.000 C 
ATOM      5  C   UNL     1      55.513  38.016  69.581  0.00  0.00    +0.000 A 
ATOM      6  C   UNL     1      55.939  39.351  69.607  0.00  0.00    +0.000 A 
ATOM      7  C   UNL     1      54.149  37.748  69.748  0.00  0.00    +0.000 A 
ATOM      8  C   UNL     1      55.019  40.391  69.750  0.00  0.00    +0.000 A 
ATOM      9  C   UNL     1      53.223  38.778  69.903  0.00  0.00    +0.000 A 
ATOM     10  C   UNL     1      53.668  40.094  69.898  0.00  0.00    +0.000 A 
ENDROOT
BRANCH   3  11
ATOM     11  C   UNL     1      59.590  39.196  69.318  0.00  0.00    +0.000 A 
ATOM     12  C   UNL     1      60.728  38.604  69.899  0.00  0.00    +0.000 A 
ATOM     13  C   UNL     1      59.761  40.232  68.381  0.00  0.00    +0.000 A 
ATOM     14  C   UNL     1      61.042  40.660  68.046  0.00  0.00    +0.000 A 
ATOM     15  C   UNL     1      62.008  39.046  69.555  0.00  0.00    +0.000 A 
ATOM     16  C   UNL     1      62.162  40.072  68.630  0.00  0.00    +0.000 A 
BRANCH  14  17
ATOM     17  O   UNL     1      61.250  41.661  67.136  0.00  0.00    +0.000 OA
ATOM     18  H   UNL     1      62.156  41.579  66.792  0.00  0.00    +0.000 HD
ENDBRANCH  14  17
BRANCH  15  19
ATOM     19  O   UNL     1      63.113  38.476  70.119  0.00  0.00    +0.000 OA
ATOM     20  H   UNL     1      63.903  38.974  69.862  0.00  0.00    +0.000 HD
ENDBRANCH  15  19
BRANCH  16  21
ATOM     21  O   UNL     1      63.406  40.517  68.276  0.00  0.00    +0.000 OA
ATOM     22  H   UNL     1      63.586  41.259  68.885  0.00  0.00    +0.000 HD
ENDBRANCH  16  21
ENDBRANCH   3  11
BRANCH   7  23
ATOM     23  O   UNL     1      53.734  36.446  69.754  0.00  0.00    +0.000 OA
ATOM     24  H   UNL     1      53.030  36.338  69.094  0.00  0.00    +0.000 HD
ENDBRANCH   7  23
BRANCH  10  25
ATOM     25  O   UNL     1      52.736  41.078  70.048  0.00  0.00    +0.000 OA
ATOM     26  H   UNL     1      51.996  40.732  70.575  0.00  0.00    +0.000 HD
ENDBRANCH  10  25
BRANCH   2  27
ATOM     27  O   UNL     1      57.733  37.716  67.487  0.00  0.00    +0.000 OA
BRANCH  27  29
ATOM     28  O   UNL     1      57.578  35.958  66.019  0.00  0.00    +0.000 OA
ATOM     29  C   UNL     1      58.223  36.796  66.626  0.00  0.00    +0.000 C 
BRANCH  29  30
ATOM     30  C   UNL     1      59.700  36.922  66.545  0.00  0.00    +0.000 A 
ATOM     31  C   UNL     1      60.231  37.932  65.727  0.00  0.00    +0.000 A 
ATOM     32  C   UNL     1      60.555  36.070  67.266  0.00  0.00    +0.000 A 
ATOM     33  C   UNL     1      61.936  36.222  67.154  0.00  0.00    +0.000 A 
ATOM     34  C   UNL     1      61.610  38.067  65.626  0.00  0.00    +0.000 A 
ATOM     35  C   UNL     1      62.460  37.215  66.331  0.00  0.00    +0.000 A 
BRANCH  33  36
ATOM     36  O   UNL     1      62.782  35.402  67.845  0.00  0.00    +0.000 OA
ATOM     37  H   UNL     1      62.513  34.479  67.722  0.00  0.00    +0.000 HD
ENDBRANCH  33  36
BRANCH  34  38
ATOM     38  O   UNL     1      62.182  39.029  64.840  0.00  0.00    +0.000 OA
ATOM     39  H   UNL     1      61.728  39.037  63.978  0.00  0.00    +0.000 HD
ENDBRANCH  34  38
BRANCH  35  40
ATOM     40  O   UNL     1      63.813  37.377  66.206  0.00  0.00    +0.000 OA
ATOM     41  H   UNL     1      64.192  36.966  67.008  0.00  0.00    +0.000 HD
ENDBRANCH  35  40
ENDBRANCH  29  30
ENDBRANCH  27  29
ENDBRANCH   2  27
TORSDOF 12
ENDMDL
MODEL 3
REMARK VINA RESULT:      -6.0      2.700      6.632
REMARK  Name = 
REMARK  12 active torsions:
REMARK  status: ('A' for Active; 'I' for Inactive)
REMARK    1  A    between atoms: O_2  and  C_12
REMARK    2  A    between atoms: O_2  and  C_24
REMARK    3  A    between atoms: O_3  and  C_18
REMARK    4  A    between atoms: O_4  and  C_23
REMARK    5  A    between atoms: O_5  and  C_25
REMARK    6  A    between atoms: O_6  and  C_26
REMARK    7  A    between atoms: O_8  and  C_27
REMARK    8  A    between atoms: O_9  and  C_31
REMARK    9  A    between atoms: O_10  and  C_32
REMARK   10  A    between atoms: O_11  and  C_33
REMARK   11  A    between atoms: C_13  and  C_16
REMARK   12  A    between atoms: C_24  and  C_28
REMARK                            x       y       z     vdW  Elec       q    Type
REMARK                         _______ _______ _______ _____ _____    ______ ____
ROOT
ATOM      1  O   UNL     1      61.958  35.768  67.036  0.00  0.00    +0.000 OA
ATOM      2  C   UNL     1      59.771  36.705  66.368  0.00  0.00    +0.000 C 
ATOM      3  C   UNL     1      61.296  36.900  66.446  0.00  0.00    +0.000 C 
ATOM      4  C   UNL     1      59.484  35.505  65.466  0.00  0.00    +0.000 C 
ATOM      5  C   UNL     1      60.419  34.360  65.763  0.00  0.00    +0.000 A 
ATOM      6  C   UNL     1      61.585  34.557  66.514  0.00  0.00    +0.000 A 
ATOM      7  C   UNL     1      60.151  33.076  65.272  0.00  0.00    +0.000 A 
ATOM      8  C   UNL     1      62.437  33.490  66.806  0.00  0.00    +0.000 A 
ATOM      9  C   UNL     1      61.000  32.006  65.547  0.00  0.00    +0.000 A 
ATOM     10  C   UNL     1      62.136  32.222  66.317  0.00  0.00    +0.000 A 
ENDROOT
BRANCH   3  11
ATOM     11  C   UNL     1      61.662  38.151  67.234  0.00  0.00    +0.000 A 
ATOM     12  C   UNL     1      62.519  38.051  68.347  0.00  0.00    +0.000 A 
ATOM     13  C   UNL     1      61.187  39.419  66.849  0.00  0.00    +0.000 A 
ATOM     14  C   UNL     1      61.562  40.548  67.569  0.00  0.00    +0.000 A 
ATOM     15  C   UNL     1      62.885  39.193  69.062  0.00  0.00    +0.000 A 
ATOM     16  C   UNL     1      62.407  40.439  68.672  0.00  0.00    +0.000 A 
BRANCH  14  17
ATOM     17  O   UNL     1      61.126  41.799  67.223  0.00  0.00    +0.000 OA
ATOM     18  H   UNL     1      60.515  41.713  66.471  0.00  0.00    +0.000 HD
ENDBRANCH  14  17
BRANCH  15  19
ATOM     19  O   UNL     1      63.714  39.099  70.143  0.00  0.00    +0.000 OA
ATOM     20  H   UNL     1      64.442  38.492  69.944  0.00  0.00    +0.000 HD
ENDBRANCH  15  19
BRANCH  16  21
ATOM     21  O   UNL     1      62.756  41.571  69.356  0.00  0.00    +0.000 OA
ATOM     22  H   UNL     1      62.667  42.292  68.704  0.00  0.00    +0.000 HD
ENDBRANCH  16  21
ENDBRANCH   3  11
BRANCH   7  23
ATOM     23  O   UNL     1      59.031  32.886  64.513  0.00  0.00    +0.000 OA
ATOM     24  H   UNL     1      59.252  33.055  63.582  0.00  0.00    +0.000 HD
ENDBRANCH   7  23
BRANCH  10  25
ATOM     25  O   UNL     1      62.943  31.153  66.571  0.00  0.00    +0.000 OA
ATOM     26  H   UNL     1      62.598  30.379  66.095  0.00  0.00    +0.000 HD
ENDBRANCH  10  25
BRANCH   2  27
ATOM     27  O   UNL     1      59.246  36.435  67.692  0.00  0.00    +0.000 OA
BRANCH  27  29
ATOM     28  O   UNL     1      57.311  37.660  67.525  0.00  0.00    +0.000 OA
ATOM     29  C   UNL     1      58.291  37.277  68.144  0.00  0.00    +0.000 C 
BRANCH  29  30
ATOM     30  C   UNL     1      58.622  37.719  69.522  0.00  0.00    +0.000 A 
ATOM     31  C   UNL     1      59.271  38.954  69.679  0.00  0.00    +0.000 A 
ATOM     32  C   UNL     1      58.294  36.942  70.647  0.00  0.00    +0.000 A 
ATOM     33  C   UNL     1      58.630  37.396  71.921  0.00  0.00    +0.000 A 
ATOM     34  C   UNL     1      59.600  39.389  70.957  0.00  0.00    +0.000 A 
ATOM     35  C   UNL     1      59.287  38.613  72.074  0.00  0.00    +0.000 A 
BRANCH  33  36
ATOM     36  O   UNL     1      58.321  36.652  73.024  0.00  0.00    +0.000 OA
ATOM     37  H   UNL     1      58.984  35.956  73.144  0.00  0.00    +0.000 HD
ENDBRANCH  33  36
BRANCH  34  38
ATOM     38  O   UNL     1      60.238  40.580  71.169  0.00  0.00    +0.000 OA
ATOM     39  H   UNL     1      60.014  40.899  72.062  0.00  0.00    +0.000 HD
ENDBRANCH  34  38
BRANCH  35  40
ATOM     40  O   UNL     1      59.626  39.073  73.317  0.00  0.00    +0.000 OA
ATOM     41  H   UNL     1      60.478  38.640  73.523  0.00  0.00    +0.000 HD
ENDBRANCH  35  40
ENDBRANCH  29  30
ENDBRANCH  27  29
ENDBRANCH   2  27
TORSDOF 12
ENDMDL
MODEL 4
REMARK VINA RESULT:      -5.9     46.104     49.130
REMARK  Name = 
REMARK  12 active torsions:
REMARK  status: ('A' for Active; 'I' for Inactive)
REMARK    1  A    between atoms: O_2  and  C_12
REMARK    2  A    between atoms: O_2  and  C_24
REMARK    3  A    between atoms: O_3  and  C_18
REMARK    4  A    between atoms: O_4  and  C_23
REMARK    5  A    between atoms: O_5  and  C_25
REMARK    6  A    between atoms: O_6  and  C_26
REMARK    7  A    between atoms: O_8  and  C_27
REMARK    8  A    between atoms: O_9  and  C_31
REMARK    9  A    between atoms: O_10  and  C_32
REMARK   10  A    between atoms: O_11  and  C_33
REMARK   11  A    between atoms: C_13  and  C_16
REMARK   12  A    between atoms: C_24  and  C_28
REMARK                            x       y       z     vdW  Elec       q    Type
REMARK                         _______ _______ _______ _____ _____    ______ ____
ROOT
ATOM      1  O   UNL     1      77.489  82.565  85.063  0.00  0.00    +0.000 OA
ATOM      2  C   UNL     1      75.754  82.264  83.328  0.00  0.00    +0.000 C 
ATOM      3  C   UNL     1      76.493  81.668  84.539  0.00  0.00    +0.000 C 
ATOM      4  C   UNL     1      75.020  83.525  83.784  0.00  0.00    +0.000 C 
ATOM      5  C   UNL     1      75.887  84.370  84.683  0.00  0.00    +0.000 A 
ATOM      6  C   UNL     1      77.049  83.846  85.264  0.00  0.00    +0.000 A 
ATOM      7  C   UNL     1      75.534  85.693  84.974  0.00  0.00    +0.000 A 
ATOM      8  C   UNL     1      77.860  84.639  86.078  0.00  0.00    +0.000 A 
ATOM      9  C   UNL     1      76.330  86.490  85.794  0.00  0.00    +0.000 A 
ATOM     10  C   UNL     1      77.491  85.955  86.337  0.00  0.00    +0.000 A 
ENDROOT
BRANCH   3  11
ATOM     11  C   UNL     1      77.156  80.341  84.195  0.00  0.00    +0.000 A 
ATOM     12  C   UNL     1      78.559  80.265  84.096  0.00  0.00    +0.000 A 
ATOM     13  C   UNL     1      76.393  79.173  84.007  0.00  0.00    +0.000 A 
ATOM     14  C   UNL     1      77.028  77.968  83.724  0.00  0.00    +0.000 A 
ATOM     15  C   UNL     1      79.182  79.049  83.808  0.00  0.00    +0.000 A 
ATOM     16  C   UNL     1      78.416  77.903  83.622  0.00  0.00    +0.000 A 
BRANCH  14  17
ATOM     17  O   UNL     1      76.322  76.810  83.540  0.00  0.00    +0.000 OA
ATOM     18  H   UNL     1      76.943  76.063  83.581  0.00  0.00    +0.000 HD
ENDBRANCH  14  17
BRANCH  15  19
ATOM     19  O   UNL     1      80.542  78.973  83.708  0.00  0.00    +0.000 OA
ATOM     20  H   UNL     1      80.947  79.306  84.522  0.00  0.00    +0.000 HD
ENDBRANCH  15  19
BRANCH  16  21
ATOM     21  O   UNL     1      79.007  76.702  83.343  0.00  0.00    +0.000 OA
ATOM     22  H   UNL     1      78.364  76.237  82.773  0.00  0.00    +0.000 HD
ENDBRANCH  16  21
ENDBRANCH   3  11
BRANCH   7  23
ATOM     23  O   UNL     1      74.384  86.198  84.433  0.00  0.00    +0.000 OA
ATOM     24  H   UNL     1      73.631  85.911  84.976  0.00  0.00    +0.000 HD
ENDBRANCH   7  23
BRANCH  10  25
ATOM     25  O   UNL     1      78.250  86.762  87.132  0.00  0.00    +0.000 OA
ATOM     26  H   UNL     1      77.749  86.966  87.940  0.00  0.00    +0.000 HD
ENDBRANCH  10  25
BRANCH   2  27
ATOM     27  O   UNL     1      76.713  82.623  82.301  0.00  0.00    +0.000 OA
BRANCH  27  29
ATOM     28  O   UNL     1      75.613  83.624  80.552  0.00  0.00    +0.000 OA
ATOM     29  C   UNL     1      76.241  82.697  81.037  0.00  0.00    +0.000 C 
BRANCH  29  30
ATOM     30  C   UNL     1      76.567  81.447  80.305  0.00  0.00    +0.000 A 
ATOM     31  C   UNL     1      75.715  81.056  79.260  0.00  0.00    +0.000 A 
ATOM     32  C   UNL     1      77.694  80.673  80.629  0.00  0.00    +0.000 A 
ATOM     33  C   UNL     1      77.957  79.504  79.917  0.00  0.00    +0.000 A 
ATOM     34  C   UNL     1      75.991  79.885  78.564  0.00  0.00    +0.000 A 
ATOM     35  C   UNL     1      77.103  79.109  78.891  0.00  0.00    +0.000 A 
BRANCH  33  36
ATOM     36  O   UNL     1      79.047  78.738  80.220  0.00  0.00    +0.000 OA
ATOM     37  H   UNL     1      79.072  77.963  79.640  0.00  0.00    +0.000 HD
ENDBRANCH  33  36
BRANCH  34  38
ATOM     38  O   UNL     1      75.193  79.453  77.540  0.00  0.00    +0.000 OA
ATOM     39  H   UNL     1      75.225  78.480  77.510  0.00  0.00    +0.000 HD
ENDBRANCH  34  38
BRANCH  35  40
ATOM     40  O   UNL     1      77.343  77.963  78.184  0.00  0.00    +0.000 OA
ATOM     41  H   UNL     1      77.880  78.246  77.418  0.00  0.00    +0.000 HD
ENDBRANCH  35  40
ENDBRANCH  29  30
ENDBRANCH  27  29
ENDBRANCH   2  27
TORSDOF 12
ENDMDL
MODEL 5
REMARK VINA RESULT:      -5.8     46.544     49.532
REMARK  Name = 
REMARK  12 active torsions:
REMARK  status: ('A' for Active; 'I' for Inactive)
REMARK    1  A    between atoms: O_2  and  C_12
REMARK    2  A    between atoms: O_2  and  C_24
REMARK    3  A    between atoms: O_3  and  C_18
REMARK    4  A    between atoms: O_4  and  C_23
REMARK    5  A    between atoms: O_5  and  C_25
REMARK    6  A    between atoms: O_6  and  C_26
REMARK    7  A    between atoms: O_8  and  C_27
REMARK    8  A    between atoms: O_9  and  C_31
REMARK    9  A    between atoms: O_10  and  C_32
REMARK   10  A    between atoms: O_11  and  C_33
REMARK   11  A    between atoms: C_13  and  C_16
REMARK   12  A    between atoms: C_24  and  C_28
REMARK                            x       y       z     vdW  Elec       q    Type
REMARK                         _______ _______ _______ _____ _____    ______ ____
ROOT
ATOM      1  O   UNL     1      77.426  82.741  85.074  0.00  0.00    +0.000 OA
ATOM      2  C   UNL     1      75.524  82.253  83.574  0.00  0.00    +0.000 C 
ATOM      3  C   UNL     1      76.434  81.764  84.714  0.00  0.00    +0.000 C 
ATOM      4  C   UNL     1      74.771  83.492  84.055  0.00  0.00    +0.000 C 
ATOM      5  C   UNL     1      75.682  84.431  84.805  0.00  0.00    +0.000 A 
ATOM      6  C   UNL     1      76.933  84.005  85.268  0.00  0.00    +0.000 A 
ATOM      7  C   UNL     1      75.283  85.746  85.075  0.00  0.00    +0.000 A 
ATOM      8  C   UNL     1      77.783  84.884  85.942  0.00  0.00    +0.000 A 
ATOM      9  C   UNL     1      76.119  86.628  85.758  0.00  0.00    +0.000 A 
ATOM     10  C   UNL     1      77.366  86.189  86.182  0.00  0.00    +0.000 A 
ENDROOT
BRANCH   3  11
ATOM     11  C   UNL     1      77.133  80.460  84.355  0.00  0.00    +0.000 A 
ATOM     12  C   UNL     1      76.375  79.287  84.173  0.00  0.00    +0.000 A 
ATOM     13  C   UNL     1      78.527  80.409  84.164  0.00  0.00    +0.000 A 
ATOM     14  C   UNL     1      79.135  79.210  83.806  0.00  0.00    +0.000 A 
ATOM     15  C   UNL     1      77.000  78.090  83.817  0.00  0.00    +0.000 A 
ATOM     16  C   UNL     1      78.378  78.054  83.634  0.00  0.00    +0.000 A 
BRANCH  14  17
ATOM     17  O   UNL     1      80.487  79.122  83.606  0.00  0.00    +0.000 OA
ATOM     18  H   UNL     1      80.793  78.269  83.959  0.00  0.00    +0.000 HD
ENDBRANCH  14  17
BRANCH  15  19
ATOM     19  O   UNL     1      76.268  76.950  83.643  0.00  0.00    +0.000 OA
ATOM     20  H   UNL     1      75.667  76.831  84.394  0.00  0.00    +0.000 HD
ENDBRANCH  15  19
BRANCH  16  21
ATOM     21  O   UNL     1      79.009  76.893  83.281  0.00  0.00    +0.000 OA
ATOM     22  H   UNL     1      78.290  76.241  83.178  0.00  0.00    +0.000 HD
ENDBRANCH  16  21
ENDBRANCH   3  11
BRANCH   7  23
ATOM     23  O   UNL     1      74.050  86.156  84.653  0.00  0.00    +0.000 OA
ATOM     24  H   UNL     1      73.929  87.088  84.899  0.00  0.00    +0.000 HD
ENDBRANCH   7  23
BRANCH  10  25
ATOM     25  O   UNL     1      78.160  87.078  86.844  0.00  0.00    +0.000 OA
ATOM     26  H   UNL     1      78.780  86.586  87.409  0.00  0.00    +0.000 HD
ENDBRANCH  10  25
BRANCH   2  27
ATOM     27  O   UNL     1      76.332  82.610  82.425  0.00  0.00    +0.000 OA
BRANCH  27  29
ATOM     28  O   UNL     1      74.735  82.145  80.843  0.00  0.00    +0.000 OA
ATOM     29  C   UNL     1      75.894  82.178  81.222  0.00  0.00    +0.000 C 
BRANCH  29  30
ATOM     30  C   UNL     1      77.042  81.698  80.412  0.00  0.00    +0.000 A 
ATOM     31  C   UNL     1      77.554  80.420  80.688  0.00  0.00    +0.000 A 
ATOM     32  C   UNL     1      77.605  82.481  79.389  0.00  0.00    +0.000 A 
ATOM     33  C   UNL     1      78.685  81.990  78.659  0.00  0.00    +0.000 A 
ATOM     34  C   UNL     1      78.633  79.949  79.952  0.00  0.00    +0.000 A 
ATOM     35  C   UNL     1      79.201  80.729  78.945  0.00  0.00    +0.000 A 
BRANCH  33  36
ATOM     36  O   UNL     1      79.246  82.739  77.663  0.00  0.00    +0.000 OA
ATOM     37  H   UNL     1      80.174  82.485  77.548  0.00  0.00    +0.000 HD
ENDBRANCH  33  36
BRANCH  34  38
ATOM     38  O   UNL     1      79.177  78.714  80.182  0.00  0.00    +0.000 OA
ATOM     39  H   UNL     1      78.699  78.058  79.644  0.00  0.00    +0.000 HD
ENDBRANCH  34  38
BRANCH  35  40
ATOM     40  O   UNL     1      80.263  80.233  78.240  0.00  0.00    +0.000 OA
ATOM     41  H   UNL     1      79.917  80.070  77.341  0.00  0.00    +0.000 HD
ENDBRANCH  35  40
ENDBRANCH  29  30
ENDBRANCH  27  29
ENDBRANCH   2  27
TORSDOF 12
ENDMDL
MODEL 6
REMARK VINA RESULT:      -5.7      8.457     12.280
REMARK  Name = 
REMARK  12 active torsions:
REMARK  status: ('A' for Active; 'I' for Inactive)
REMARK    1  A    between atoms: O_2  and  C_12
REMARK    2  A    between atoms: O_2  and  C_24
REMARK    3  A    between atoms: O_3  and  C_18
REMARK    4  A    between atoms: O_4  and  C_23
REMARK    5  A    between atoms: O_5  and  C_25
REMARK    6  A    between atoms: O_6  and  C_26
REMARK    7  A    between atoms: O_8  and  C_27
REMARK    8  A    between atoms: O_9  and  C_31
REMARK    9  A    between atoms: O_10  and  C_32
REMARK   10  A    between atoms: O_11  and  C_33
REMARK   11  A    between atoms: C_13  and  C_16
REMARK   12  A    between atoms: C_24  and  C_28
REMARK                            x       y       z     vdW  Elec       q    Type
REMARK                         _______ _______ _______ _____ _____    ______ ____
ROOT
ATOM      1  O   UNL     1      49.658  36.271  60.523  0.00  0.00    +0.000 OA
ATOM      2  C   UNL     1      50.472  34.251  61.690  0.00  0.00    +0.000 C 
ATOM      3  C   UNL     1      49.265  35.105  61.266  0.00  0.00    +0.000 C 
ATOM      4  C   UNL     1      51.178  33.755  60.429  0.00  0.00    +0.000 C 
ATOM      5  C   UNL     1      51.300  34.851  59.400  0.00  0.00    +0.000 A 
ATOM      6  C   UNL     1      50.540  36.024  59.504  0.00  0.00    +0.000 A 
ATOM      7  C   UNL     1      52.160  34.708  58.305  0.00  0.00    +0.000 A 
ATOM      8  C   UNL     1      50.672  37.046  58.562  0.00  0.00    +0.000 A 
ATOM      9  C   UNL     1      52.291  35.717  57.352  0.00  0.00    +0.000 A 
ATOM     10  C   UNL     1      51.547  36.881  57.493  0.00  0.00    +0.000 A 
ENDROOT
BRANCH   3  11
ATOM     11  C   UNL     1      48.437  35.542  62.467  0.00  0.00    +0.000 A 
ATOM     12  C   UNL     1      47.953  34.577  63.372  0.00  0.00    +0.000 A 
ATOM     13  C   UNL     1      48.173  36.903  62.714  0.00  0.00    +0.000 A 
ATOM     14  C   UNL     1      47.440  37.275  63.836  0.00  0.00    +0.000 A 
ATOM     15  C   UNL     1      47.216  34.965  64.493  0.00  0.00    +0.000 A 
ATOM     16  C   UNL     1      46.961  36.313  64.723  0.00  0.00    +0.000 A 
BRANCH  14  17
ATOM     17  O   UNL     1      47.166  38.587  64.113  0.00  0.00    +0.000 OA
ATOM     18  H   UNL     1      46.322  38.820  63.690  0.00  0.00    +0.000 HD
ENDBRANCH  14  17
BRANCH  15  19
ATOM     19  O   UNL     1      46.744  34.032  65.370  0.00  0.00    +0.000 OA
ATOM     20  H   UNL     1      47.426  33.364  65.534  0.00  0.00    +0.000 HD
ENDBRANCH  15  19
BRANCH  16  21
ATOM     21  O   UNL     1      46.244  36.715  65.816  0.00  0.00    +0.000 OA
ATOM     22  H   UNL     1      45.395  36.239  65.744  0.00  0.00    +0.000 HD
ENDBRANCH  16  21
ENDBRANCH   3  11
BRANCH   7  23
ATOM     23  O   UNL     1      52.879  33.552  58.184  0.00  0.00    +0.000 OA
ATOM     24  H   UNL     1      52.744  33.015  58.982  0.00  0.00    +0.000 HD
ENDBRANCH   7  23
BRANCH  10  25
ATOM     25  O   UNL     1      51.701  37.850  56.545  0.00  0.00    +0.000 OA
ATOM     26  H   UNL     1      51.086  37.673  55.813  0.00  0.00    +0.000 HD
ENDBRANCH  10  25
BRANCH   2  27
ATOM     27  O   UNL     1      51.397  35.061  62.458  0.00  0.00    +0.000 OA
BRANCH  27  29
ATOM     28  O   UNL     1      51.429  33.586  64.216  0.00  0.00    +0.000 OA
ATOM     29  C   UNL     1      51.587  34.701  63.746  0.00  0.00    +0.000 C 
BRANCH  29  30
ATOM     30  C   UNL     1      51.989  35.885  64.546  0.00  0.00    +0.000 A 
ATOM     31  C   UNL     1      53.360  36.114  64.740  0.00  0.00    +0.000 A 
ATOM     32  C   UNL     1      51.039  36.767  65.090  0.00  0.00    +0.000 A 
ATOM     33  C   UNL     1      51.464  37.864  65.838  0.00  0.00    +0.000 A 
ATOM     34  C   UNL     1      53.765  37.210  65.492  0.00  0.00    +0.000 A 
ATOM     35  C   UNL     1      52.824  38.080  66.043  0.00  0.00    +0.000 A 
BRANCH  33  36
ATOM     36  O   UNL     1      50.555  38.729  66.377  0.00  0.00    +0.000 OA
ATOM     37  H   UNL     1      50.296  38.423  67.259  0.00  0.00    +0.000 HD
ENDBRANCH  33  36
BRANCH  34  38
ATOM     38  O   UNL     1      55.088  37.477  65.718  0.00  0.00    +0.000 OA
ATOM     39  H   UNL     1      55.407  38.082  65.024  0.00  0.00    +0.000 HD
ENDBRANCH  34  38
BRANCH  35  40
ATOM     40  O   UNL     1      53.259  39.149  66.777  0.00  0.00    +0.000 OA
ATOM     41  H   UNL     1      52.943  38.978  67.685  0.00  0.00    +0.000 HD
ENDBRANCH  35  40
ENDBRANCH  29  30
ENDBRANCH  27  29
ENDBRANCH   2  27
TORSDOF 12
ENDMDL
MODEL 7
REMARK VINA RESULT:      -5.7      7.585     10.736
REMARK  Name = 
REMARK  12 active torsions:
REMARK  status: ('A' for Active; 'I' for Inactive)
REMARK    1  A    between atoms: O_2  and  C_12
REMARK    2  A    between atoms: O_2  and  C_24
REMARK    3  A    between atoms: O_3  and  C_18
REMARK    4  A    between atoms: O_4  and  C_23
REMARK    5  A    between atoms: O_5  and  C_25
REMARK    6  A    between atoms: O_6  and  C_26
REMARK    7  A    between atoms: O_8  and  C_27
REMARK    8  A    between atoms: O_9  and  C_31
REMARK    9  A    between atoms: O_10  and  C_32
REMARK   10  A    between atoms: O_11  and  C_33
REMARK   11  A    between atoms: C_13  and  C_16
REMARK   12  A    between atoms: C_24  and  C_28
REMARK                            x       y       z     vdW  Elec       q    Type
REMARK                         _______ _______ _______ _____ _____    ______ ____
ROOT
ATOM      1  O   UNL     1      47.912  42.717  71.927  0.00  0.00    +0.000 OA
ATOM      2  C   UNL     1      47.624  40.264  71.840  0.00  0.00    +0.000 C 
ATOM      3  C   UNL     1      48.201  41.476  72.593  0.00  0.00    +0.000 C 
ATOM      4  C   UNL     1      46.103  40.402  71.798  0.00  0.00    +0.000 C 
ATOM      5  C   UNL     1      45.688  41.815  71.471  0.00  0.00    +0.000 A 
ATOM      6  C   UNL     1      46.602  42.872  71.559  0.00  0.00    +0.000 A 
ATOM      7  C   UNL     1      44.370  42.101  71.094  0.00  0.00    +0.000 A 
ATOM      8  C   UNL     1      46.220  44.175  71.234  0.00  0.00    +0.000 A 
ATOM      9  C   UNL     1      43.975  43.400  70.779  0.00  0.00    +0.000 A 
ATOM     10  C   UNL     1      44.908  44.427  70.847  0.00  0.00    +0.000 A 
ENDROOT
BRANCH   3  11
ATOM     11  C   UNL     1      49.707  41.355  72.781  0.00  0.00    +0.000 A 
ATOM     12  C   UNL     1      50.248  40.194  73.368  0.00  0.00    +0.000 A 
ATOM     13  C   UNL     1      50.579  42.370  72.346  0.00  0.00    +0.000 A 
ATOM     14  C   UNL     1      51.953  42.219  72.503  0.00  0.00    +0.000 A 
ATOM     15  C   UNL     1      51.629  40.057  73.522  0.00  0.00    +0.000 A 
ATOM     16  C   UNL     1      52.479  41.069  73.089  0.00  0.00    +0.000 A 
BRANCH  14  17
ATOM     17  O   UNL     1      52.834  43.181  72.088  0.00  0.00    +0.000 OA
ATOM     18  H   UNL     1      53.728  42.797  72.085  0.00  0.00    +0.000 HD
ENDBRANCH  14  17
BRANCH  15  19
ATOM     19  O   UNL     1      52.156  38.935  74.093  0.00  0.00    +0.000 OA
ATOM     20  H   UNL     1      51.746  38.786  74.959  0.00  0.00    +0.000 HD
ENDBRANCH  15  19
BRANCH  16  21
ATOM     21  O   UNL     1      53.835  40.954  73.227  0.00  0.00    +0.000 OA
ATOM     22  H   UNL     1      54.155  41.874  73.303  0.00  0.00    +0.000 HD
ENDBRANCH  16  21
ENDBRANCH   3  11
BRANCH   7  23
ATOM     23  O   UNL     1      43.468  41.076  71.038  0.00  0.00    +0.000 OA
ATOM     24  H   UNL     1      43.589  40.510  71.818  0.00  0.00    +0.000 HD
ENDBRANCH   7  23
BRANCH  10  25
ATOM     25  O   UNL     1      44.489  45.685  70.529  0.00  0.00    +0.000 OA
ATOM     26  H   UNL     1      43.686  45.887  71.038  0.00  0.00    +0.000 HD
ENDBRANCH  10  25
BRANCH   2  27
ATOM     27  O   UNL     1      48.132  40.248  70.482  0.00  0.00    +0.000 OA
BRANCH  27  29
ATOM     28  O   UNL     1      47.948  37.982  70.169  0.00  0.00    +0.000 OA
ATOM     29  C   UNL     1      48.517  39.047  69.997  0.00  0.00    +0.000 C 
BRANCH  29  30
ATOM     30  C   UNL     1      49.784  39.195  69.237  0.00  0.00    +0.000 A 
ATOM     31  C   UNL     1      49.827  38.694  67.926  0.00  0.00    +0.000 A 
ATOM     32  C   UNL     1      50.912  39.823  69.794  0.00  0.00    +0.000 A 
ATOM     33  C   UNL     1      52.081  39.934  69.043  0.00  0.00    +0.000 A 
ATOM     34  C   UNL     1      51.002  38.811  67.194  0.00  0.00    +0.000 A 
ATOM     35  C   UNL     1      52.126  39.423  67.749  0.00  0.00    +0.000 A 
BRANCH  33  36
ATOM     36  O   UNL     1      53.186  40.539  69.569  0.00  0.00    +0.000 OA
ATOM     37  H   UNL     1      53.803  40.766  68.857  0.00  0.00    +0.000 HD
ENDBRANCH  33  36
BRANCH  34  38
ATOM     38  O   UNL     1      51.103  38.336  65.915  0.00  0.00    +0.000 OA
ATOM     39  H   UNL     1      51.677  38.934  65.405  0.00  0.00    +0.000 HD
ENDBRANCH  34  38
BRANCH  35  40
ATOM     40  O   UNL     1      53.266  39.521  66.999  0.00  0.00    +0.000 OA
ATOM     41  H   UNL     1      53.374  38.642  66.587  0.00  0.00    +0.000 HD
ENDBRANCH  35  40
ENDBRANCH  29  30
ENDBRANCH  27  29
ENDBRANCH   2  27
TORSDOF 12
ENDMDL
MODEL 8
REMARK VINA RESULT:      -5.7     45.717     48.770
REMARK  Name = 
REMARK  12 active torsions:
REMARK  status: ('A' for Active; 'I' for Inactive)
REMARK    1  A    between atoms: O_2  and  C_12
REMARK    2  A    between atoms: O_2  and  C_24
REMARK    3  A    between atoms: O_3  and  C_18
REMARK    4  A    between atoms: O_4  and  C_23
REMARK    5  A    between atoms: O_5  and  C_25
REMARK    6  A    between atoms: O_6  and  C_26
REMARK    7  A    between atoms: O_8  and  C_27
REMARK    8  A    between atoms: O_9  and  C_31
REMARK    9  A    between atoms: O_10  and  C_32
REMARK   10  A    between atoms: O_11  and  C_33
REMARK   11  A    between atoms: C_13  and  C_16
REMARK   12  A    between atoms: C_24  and  C_28
REMARK                            x       y       z     vdW  Elec       q    Type
REMARK                         _______ _______ _______ _____ _____    ______ ____
ROOT
ATOM      1  O   UNL     1      75.963  81.425  83.899  0.00  0.00    +0.000 OA
ATOM      2  C   UNL     1      77.193  82.466  82.025  0.00  0.00    +0.000 C 
ATOM      3  C   UNL     1      76.660  82.604  83.462  0.00  0.00    +0.000 C 
ATOM      4  C   UNL     1      78.202  81.318  81.994  0.00  0.00    +0.000 C 
ATOM      5  C   UNL     1      77.705  80.129  82.777  0.00  0.00    +0.000 A 
ATOM      6  C   UNL     1      76.635  80.253  83.673  0.00  0.00    +0.000 A 
ATOM      7  C   UNL     1      78.320  78.879  82.641  0.00  0.00    +0.000 A 
ATOM      8  C   UNL     1      76.164  79.144  84.380  0.00  0.00    +0.000 A 
ATOM      9  C   UNL     1      77.865  77.769  83.350  0.00  0.00    +0.000 A 
ATOM     10  C   UNL     1      76.786  77.911  84.212  0.00  0.00    +0.000 A 
ENDROOT
BRANCH   3  11
ATOM     11  C   UNL     1      75.735  83.805  83.604  0.00  0.00    +0.000 A 
ATOM     12  C   UNL     1      74.514  83.670  84.293  0.00  0.00    +0.000 A 
ATOM     13  C   UNL     1      76.092  85.065  83.088  0.00  0.00    +0.000 A 
ATOM     14  C   UNL     1      75.241  86.152  83.259  0.00  0.00    +0.000 A 
ATOM     15  C   UNL     1      73.668  84.769  84.454  0.00  0.00    +0.000 A 
ATOM     16  C   UNL     1      74.032  86.007  83.938  0.00  0.00    +0.000 A 
BRANCH  14  17
ATOM     17  O   UNL     1      75.555  87.394  82.777  0.00  0.00    +0.000 OA
ATOM     18  H   UNL     1      76.472  87.597  83.029  0.00  0.00    +0.000 HD
ENDBRANCH  14  17
BRANCH  15  19
ATOM     19  O   UNL     1      72.482  84.640  85.119  0.00  0.00    +0.000 OA
ATOM     20  H   UNL     1      72.651  84.517  86.065  0.00  0.00    +0.000 HD
ENDBRANCH  15  19
BRANCH  16  21
ATOM     21  O   UNL     1      73.220  87.098  84.088  0.00  0.00    +0.000 OA
ATOM     22  H   UNL     1      72.326  86.725  84.206  0.00  0.00    +0.000 HD
ENDBRANCH  16  21
ENDBRANCH   3  11
BRANCH   7  23
ATOM     23  O   UNL     1      79.384  78.762  81.791  0.00  0.00    +0.000 OA
ATOM     24  H   UNL     1      80.182  79.087  82.241  0.00  0.00    +0.000 HD
ENDBRANCH   7  23
BRANCH  10  25
ATOM     25  O   UNL     1      76.363  76.805  84.887  0.00  0.00    +0.000 OA
ATOM     26  H   UNL     1      77.139  76.339  85.243  0.00  0.00    +0.000 HD
ENDBRANCH  10  25
BRANCH   2  27
ATOM     27  O   UNL     1      76.099  82.155  81.127  0.00  0.00    +0.000 OA
BRANCH  27  29
ATOM     28  O   UNL     1      76.010  83.764  79.493  0.00  0.00    +0.000 OA
ATOM     29  C   UNL     1      76.207  82.618  79.863  0.00  0.00    +0.000 C 
BRANCH  29  30
ATOM     30  C   UNL     1      76.571  81.505  78.949  0.00  0.00    +0.000 A 
ATOM     31  C   UNL     1      75.581  80.560  78.636  0.00  0.00    +0.000 A 
ATOM     32  C   UNL     1      77.860  81.391  78.399  0.00  0.00    +0.000 A 
ATOM     33  C   UNL     1      78.156  80.326  77.551  0.00  0.00    +0.000 A 
ATOM     34  C   UNL     1      75.896  79.504  77.790  0.00  0.00    +0.000 A 
ATOM     35  C   UNL     1      77.178  79.382  77.253  0.00  0.00    +0.000 A 
BRANCH  33  36
ATOM     36  O   UNL     1      79.404  80.199  77.009  0.00  0.00    +0.000 OA
ATOM     37  H   UNL     1      79.835  81.066  76.976  0.00  0.00    +0.000 HD
ENDBRANCH  33  36
BRANCH  34  38
ATOM     38  O   UNL     1      74.973  78.551  77.455  0.00  0.00    +0.000 OA
ATOM     39  H   UNL     1      74.490  78.289  78.259  0.00  0.00    +0.000 HD
ENDBRANCH  34  38
BRANCH  35  40
ATOM     40  O   UNL     1      77.452  78.329  76.424  0.00  0.00    +0.000 OA
ATOM     41  H   UNL     1      77.384  78.693  75.520  0.00  0.00    +0.000 HD
ENDBRANCH  35  40
ENDBRANCH  29  30
ENDBRANCH  27  29
ENDBRANCH   2  27
TORSDOF 12
ENDMDL
MODEL 9
REMARK VINA RESULT:      -5.6      5.699     10.905
REMARK  Name = 
REMARK  12 active torsions:
REMARK  status: ('A' for Active; 'I' for Inactive)
REMARK    1  A    between atoms: O_2  and  C_12
REMARK    2  A    between atoms: O_2  and  C_24
REMARK    3  A    between atoms: O_3  and  C_18
REMARK    4  A    between atoms: O_4  and  C_23
REMARK    5  A    between atoms: O_5  and  C_25
REMARK    6  A    between atoms: O_6  and  C_26
REMARK    7  A    between atoms: O_8  and  C_27
REMARK    8  A    between atoms: O_9  and  C_31
REMARK    9  A    between atoms: O_10  and  C_32
REMARK   10  A    between atoms: O_11  and  C_33
REMARK   11  A    between atoms: C_13  and  C_16
REMARK   12  A    between atoms: C_24  and  C_28
REMARK                            x       y       z     vdW  Elec       q    Type
REMARK                         _______ _______ _______ _____ _____    ______ ____
ROOT
ATOM      1  O   UNL     1      52.413  38.391  73.313  0.00  0.00    +0.000 OA
ATOM      2  C   UNL     1      50.686  39.548  71.976  0.00  0.00    +0.000 C 
ATOM      3  C   UNL     1      51.930  38.641  71.982  0.00  0.00    +0.000 C 
ATOM      4  C   UNL     1      49.564  38.832  72.727  0.00  0.00    +0.000 C 
ATOM      5  C   UNL     1      50.074  38.189  73.992  0.00  0.00    +0.000 A 
ATOM      6  C   UNL     1      51.447  38.004  74.204  0.00  0.00    +0.000 A 
ATOM      7  C   UNL     1      49.181  37.740  74.973  0.00  0.00    +0.000 A 
ATOM      8  C   UNL     1      51.916  37.428  75.386  0.00  0.00    +0.000 A 
ATOM      9  C   UNL     1      49.638  37.153  76.151  0.00  0.00    +0.000 A 
ATOM     10  C   UNL     1      51.005  37.006  76.349  0.00  0.00    +0.000 A 
ENDROOT
BRANCH   3  11
ATOM     11  C   UNL     1      53.059  39.233  71.150  0.00  0.00    +0.000 A 
ATOM     12  C   UNL     1      52.812  39.642  69.825  0.00  0.00    +0.000 A 
ATOM     13  C   UNL     1      54.346  39.413  71.692  0.00  0.00    +0.000 A 
ATOM     14  C   UNL     1      55.351  39.984  70.918  0.00  0.00    +0.000 A 
ATOM     15  C   UNL     1      53.832  40.211  69.059  0.00  0.00    +0.000 A 
ATOM     16  C   UNL     1      55.099  40.381  69.607  0.00  0.00    +0.000 A 
BRANCH  14  17
ATOM     17  O   UNL     1      56.613  40.180  71.411  0.00  0.00    +0.000 OA
ATOM     18  H   UNL     1      56.985  39.315  71.654  0.00  0.00    +0.000 HD
ENDBRANCH  14  17
BRANCH  15  19
ATOM     19  O   UNL     1      53.596  40.606  67.774  0.00  0.00    +0.000 OA
ATOM     20  H   UNL     1      53.224  41.501  67.771  0.00  0.00    +0.000 HD
ENDBRANCH  15  19
BRANCH  16  21
ATOM     21  O   UNL     1      56.111  40.939  68.875  0.00  0.00    +0.000 OA
ATOM     22  H   UNL     1      56.910  40.811  69.420  0.00  0.00    +0.000 HD
ENDBRANCH  16  21
ENDBRANCH   3  11
BRANCH   7  23
ATOM     23  O   UNL     1      47.841  37.890  74.755  0.00  0.00    +0.000 OA
ATOM     24  H   UNL     1      47.673  38.795  74.445  0.00  0.00    +0.000 HD
ENDBRANCH   7  23
BRANCH  10  25
ATOM     25  O   UNL     1      51.418  36.431  77.514  0.00  0.00    +0.000 OA
ATOM     26  H   UNL     1      52.132  35.801  77.318  0.00  0.00    +0.000 HD
ENDBRANCH  10  25
BRANCH   2  27
ATOM     27  O   UNL     1      50.987  40.793  72.654  0.00  0.00    +0.000 OA
BRANCH  27  29
ATOM     28  O   UNL     1      51.621  42.564  71.339  0.00  0.00    +0.000 OA
ATOM     29  C   UNL     1      50.779  41.928  71.951  0.00  0.00    +0.000 C 
BRANCH  29  30
ATOM     30  C   UNL     1      49.354  42.330  72.057  0.00  0.00    +0.000 A 
ATOM     31  C   UNL     1      48.799  42.455  73.341  0.00  0.00    +0.000 A 
ATOM     32  C   UNL     1      48.573  42.592  70.919  0.00  0.00    +0.000 A 
ATOM     33  C   UNL     1      47.237  42.962  71.068  0.00  0.00    +0.000 A 
ATOM     34  C   UNL     1      47.465  42.822  73.470  0.00  0.00    +0.000 A 
ATOM     35  C   UNL     1      46.685  43.071  72.341  0.00  0.00    +0.000 A 
BRANCH  33  36
ATOM     36  O   UNL     1      46.463  43.218  69.972  0.00  0.00    +0.000 OA
ATOM     37  H   UNL     1      47.029  43.366  69.200  0.00  0.00    +0.000 HD
ENDBRANCH  33  36
BRANCH  34  38
ATOM     38  O   UNL     1      46.871  42.953  74.695  0.00  0.00    +0.000 OA
ATOM     39  H   UNL     1      47.482  43.426  75.289  0.00  0.00    +0.000 HD
ENDBRANCH  34  38
BRANCH  35  40
ATOM     40  O   UNL     1      45.375  43.430  72.506  0.00  0.00    +0.000 OA
ATOM     41  H   UNL     1      45.141  43.914  71.690  0.00  0.00    +0.000 HD
ENDBRANCH  35  40
ENDBRANCH  29  30
ENDBRANCH  27  29
ENDBRANCH   2  27
TORSDOF 12
ENDMDL
