MODEL 1
REMARK VINA RESULT:      -6.9      0.000      0.000
REMARK  Name = Estradiol.pdbqt.pdb
REMARK  2 active torsions:
REMARK  status: ('A' for Active; 'I' for Inactive)
REMARK    1  A    between atoms: C_5  and  O_19
REMARK    2  A    between atoms: C_18  and  O_21
REMARK                            x       y       z     vdW  Elec       q    Type
REMARK                         _______ _______ _______ _____ _____    ______ ____
ROOT
ATOM      1  C   UNL     1      70.359  53.857  62.677  0.00  0.00    +0.000 C 
ATOM      2  C   UNL     1      70.448  54.048  64.269  0.00  0.00    +0.000 C 
ATOM      3  C   UNL     1      70.253  55.363  64.897  0.00  0.00    +0.000 A 
ATOM      4  C   UNL     1      69.720  56.609  64.223  0.00  0.00    +0.000 A 
ATOM      5  C   UNL     1      69.523  52.568  62.535  0.00  0.00    +0.000 C 
ATOM      6  C   UNL     1      69.694  55.056  62.163  0.00  0.00    +0.000 C 
ATOM      7  C   UNL     1      69.871  52.878  64.861  0.00  0.00    +0.000 C 
ATOM      8  C   UNL     1      69.412  56.364  62.862  0.00  0.00    +0.000 C 
ATOM      9  C   UNL     1      69.274  51.982  63.805  0.00  0.00    +0.000 C 
ATOM     10  C   UNL     1      70.516  55.590  66.273  0.00  0.00    +0.000 A 
ATOM     11  C   UNL     1      71.790  53.644  62.119  0.00  0.00    +0.000 C 
ATOM     12  C   UNL     1      69.537  57.931  64.912  0.00  0.00    +0.000 A 
ATOM     13  C   UNL     1      70.319  56.916  66.964  0.00  0.00    +0.000 A 
ATOM     14  C   UNL     1      69.842  58.083  66.299  0.00  0.00    +0.000 A 
ATOM     15  C   UNL     1      69.070  59.044  64.212  0.00  0.00    +0.000 A 
ATOM     16  C   UNL     1      69.689  59.299  66.951  0.00  0.00    +0.000 A 
ATOM     17  C   UNL     1      68.914  60.268  64.861  0.00  0.00    +0.000 A 
ATOM     18  C   UNL     1      69.224  60.384  66.218  0.00  0.00    +0.000 A 
ENDROOT
BRANCH   5  19
ATOM     19  O   UNL     1      68.740  52.300  61.433  0.00  0.00    +0.000 OA
ATOM     20  H   UNL     1      68.920  51.415  61.069  0.00  0.00    +0.000 HD
ENDBRANCH   5  19
BRANCH  18  21
ATOM     21  O   UNL     1      69.078  61.580  66.860  0.00  0.00    +0.000 OA
ATOM     22  H   UNL     1      69.904  62.086  66.758  0.00  0.00    +0.000 HD
ENDBRANCH  18  21
TORSDOF 2
ENDMDL
MODEL 2
REMARK VINA RESULT:      -6.8      7.675      9.570
REMARK  Name = Estradiol.pdbqt.pdb
REMARK  2 active torsions:
REMARK  status: ('A' for Active; 'I' for Inactive)
REMARK    1  A    between atoms: C_5  and  O_19
REMARK    2  A    between atoms: C_18  and  O_21
REMARK                            x       y       z     vdW  Elec       q    Type
REMARK                         _______ _______ _______ _____ _____    ______ ____
ROOT
ATOM      1  C   UNL     1      67.498  50.970  59.362  0.00  0.00    +0.000 C 
ATOM      2  C   UNL     1      66.225  50.042  59.052  0.00  0.00    +0.000 C 
ATOM      3  C   UNL     1      64.851  50.557  59.166  0.00  0.00    +0.000 A 
ATOM      4  C   UNL     1      64.448  52.007  59.328  0.00  0.00    +0.000 A 
ATOM      5  C   UNL     1      68.456  50.632  58.201  0.00  0.00    +0.000 C 
ATOM      6  C   UNL     1      67.006  52.349  59.345  0.00  0.00    +0.000 C 
ATOM      7  C   UNL     1      66.584  49.196  57.954  0.00  0.00    +0.000 C 
ATOM      8  C   UNL     1      65.583  52.855  59.358  0.00  0.00    +0.000 C 
ATOM      9  C   UNL     1      67.938  49.574  57.408  0.00  0.00    +0.000 C 
ATOM     10  C   UNL     1      63.717  49.709  59.086  0.00  0.00    +0.000 A 
ATOM     11  C   UNL     1      68.111  50.539  60.720  0.00  0.00    +0.000 C 
ATOM     12  C   UNL     1      63.028  52.483  59.437  0.00  0.00    +0.000 A 
ATOM     13  C   UNL     1      62.291  50.193  59.183  0.00  0.00    +0.000 A 
ATOM     14  C   UNL     1      61.939  51.562  59.365  0.00  0.00    +0.000 A 
ATOM     15  C   UNL     1      62.739  53.836  59.618  0.00  0.00    +0.000 A 
ATOM     16  C   UNL     1      60.620  51.980  59.473  0.00  0.00    +0.000 A 
ATOM     17  C   UNL     1      61.416  54.263  59.727  0.00  0.00    +0.000 A 
ATOM     18  C   UNL     1      60.374  53.336  59.655  0.00  0.00    +0.000 A 
ENDROOT
BRANCH   5  19
ATOM     19  O   UNL     1      69.399  51.518  57.727  0.00  0.00    +0.000 OA
ATOM     20  H   UNL     1      69.576  52.232  58.365  0.00  0.00    +0.000 HD
ENDBRANCH   5  19
BRANCH  18  21
ATOM     21  O   UNL     1      59.076  53.746  59.766  0.00  0.00    +0.000 OA
ATOM     22  H   UNL     1      58.659  53.687  58.888  0.00  0.00    +0.000 HD
ENDBRANCH  18  21
TORSDOF 2
ENDMDL
MODEL 3
REMARK VINA RESULT:      -6.7      7.556     10.610
REMARK  Name = Estradiol.pdbqt.pdb
REMARK  2 active torsions:
REMARK  status: ('A' for Active; 'I' for Inactive)
REMARK    1  A    between atoms: C_5  and  O_19
REMARK    2  A    between atoms: C_18  and  O_21
REMARK                            x       y       z     vdW  Elec       q    Type
REMARK                         _______ _______ _______ _____ _____    ______ ____
ROOT
ATOM      1  C   UNL     1      60.835  55.959  61.036  0.00  0.00    +0.000 C 
ATOM      2  C   UNL     1      62.431  56.044  60.885  0.00  0.00    +0.000 C 
ATOM      3  C   UNL     1      63.226  54.881  60.460  0.00  0.00    +0.000 A 
ATOM      4  C   UNL     1      62.688  53.588  59.888  0.00  0.00    +0.000 A 
ATOM      5  C   UNL     1      60.361  57.271  60.377  0.00  0.00    +0.000 C 
ATOM      6  C   UNL     1      60.425  54.751  60.318  0.00  0.00    +0.000 C 
ATOM      7  C   UNL     1      62.732  57.346  60.368  0.00  0.00    +0.000 C 
ATOM      8  C   UNL     1      61.274  53.616  59.798  0.00  0.00    +0.000 C 
ATOM      9  C   UNL     1      61.467  58.090  60.024  0.00  0.00    +0.000 C 
ATOM     10  C   UNL     1      64.644  54.878  60.506  0.00  0.00    +0.000 A 
ATOM     11  C   UNL     1      60.477  55.945  62.545  0.00  0.00    +0.000 C 
ATOM     12  C   UNL     1      63.544  52.428  59.466  0.00  0.00    +0.000 A 
ATOM     13  C   UNL     1      65.502  53.716  60.069  0.00  0.00    +0.000 A 
ATOM     14  C   UNL     1      64.968  52.496  59.560  0.00  0.00    +0.000 A 
ATOM     15  C   UNL     1      62.969  51.255  58.977  0.00  0.00    +0.000 A 
ATOM     16  C   UNL     1      65.776  51.432  59.184  0.00  0.00    +0.000 A 
ATOM     17  C   UNL     1      63.776  50.182  58.598  0.00  0.00    +0.000 A 
ATOM     18  C   UNL     1      65.164  50.280  58.705  0.00  0.00    +0.000 A 
ENDROOT
BRANCH   5  19
ATOM     19  O   UNL     1      59.123  57.408  59.787  0.00  0.00    +0.000 OA
ATOM     20  H   UNL     1      59.185  57.407  58.814  0.00  0.00    +0.000 HD
ENDBRANCH   5  19
BRANCH  18  21
ATOM     21  O   UNL     1      65.961  49.232  58.340  0.00  0.00    +0.000 OA
ATOM     22  H   UNL     1      65.528  48.406  58.620  0.00  0.00    +0.000 HD
ENDBRANCH  18  21
TORSDOF 2
ENDMDL
MODEL 4
REMARK VINA RESULT:      -6.1      9.177     10.386
REMARK  Name = Estradiol.pdbqt.pdb
REMARK  2 active torsions:
REMARK  status: ('A' for Active; 'I' for Inactive)
REMARK    1  A    between atoms: C_5  and  O_19
REMARK    2  A    between atoms: C_18  and  O_21
REMARK                            x       y       z     vdW  Elec       q    Type
REMARK                         _______ _______ _______ _____ _____    ______ ____
ROOT
ATOM      1  C   UNL     1      61.154  56.151  60.796  0.00  0.00    +0.000 C 
ATOM      2  C   UNL     1      62.396  57.032  60.284  0.00  0.00    +0.000 C 
ATOM      3  C   UNL     1      62.216  58.414  59.813  0.00  0.00    +0.000 A 
ATOM      4  C   UNL     1      60.969  59.258  59.965  0.00  0.00    +0.000 A 
ATOM      5  C   UNL     1      61.714  55.484  62.070  0.00  0.00    +0.000 C 
ATOM      6  C   UNL     1      60.066  57.097  61.048  0.00  0.00    +0.000 C 
ATOM      7  C   UNL     1      63.514  56.697  61.114  0.00  0.00    +0.000 C 
ATOM      8  C   UNL     1      59.947  58.546  60.642  0.00  0.00    +0.000 C 
ATOM      9  C   UNL     1      63.095  55.774  62.230  0.00  0.00    +0.000 C 
ATOM     10  C   UNL     1      63.259  59.138  59.180  0.00  0.00    +0.000 A 
ATOM     11  C   UNL     1      60.823  55.084  59.720  0.00  0.00    +0.000 C 
ATOM     12  C   UNL     1      60.837  60.669  59.468  0.00  0.00    +0.000 A 
ATOM     13  C   UNL     1      63.126  60.560  58.693  0.00  0.00    +0.000 A 
ATOM     14  C   UNL     1      61.930  61.324  58.824  0.00  0.00    +0.000 A 
ATOM     15  C   UNL     1      59.641  61.371  59.619  0.00  0.00    +0.000 A 
ATOM     16  C   UNL     1      61.824  62.624  58.348  0.00  0.00    +0.000 A 
ATOM     17  C   UNL     1      59.528  62.677  59.143  0.00  0.00    +0.000 A 
ATOM     18  C   UNL     1      60.615  63.289  58.515  0.00  0.00    +0.000 A 
ENDROOT
BRANCH   5  19
ATOM     19  O   UNL     1      60.914  55.093  63.122  0.00  0.00    +0.000 OA
ATOM     20  H   UNL     1      59.994  55.394  63.007  0.00  0.00    +0.000 HD
ENDBRANCH   5  19
BRANCH  18  21
ATOM     21  O   UNL     1      60.511  64.566  58.043  0.00  0.00    +0.000 OA
ATOM     22  H   UNL     1      60.072  64.537  57.175  0.00  0.00    +0.000 HD
ENDBRANCH  18  21
TORSDOF 2
ENDMDL
MODEL 5
REMARK VINA RESULT:      -6.0     12.661     15.003
REMARK  Name = Estradiol.pdbqt.pdb
REMARK  2 active torsions:
REMARK  status: ('A' for Active; 'I' for Inactive)
REMARK    1  A    between atoms: C_5  and  O_19
REMARK    2  A    between atoms: C_18  and  O_21
REMARK                            x       y       z     vdW  Elec       q    Type
REMARK                         _______ _______ _______ _____ _____    ______ ____
ROOT
ATOM      1  C   UNL     1      67.255  68.808  66.924  0.00  0.00    +0.000 C 
ATOM      2  C   UNL     1      66.305  70.011  67.404  0.00  0.00    +0.000 C 
ATOM      3  C   UNL     1      64.873  69.800  67.669  0.00  0.00    +0.000 A 
ATOM      4  C   UNL     1      64.168  68.466  67.778  0.00  0.00    +0.000 A 
ATOM      5  C   UNL     1      68.519  69.010  67.787  0.00  0.00    +0.000 C 
ATOM      6  C   UNL     1      66.525  67.575  67.218  0.00  0.00    +0.000 C 
ATOM      7  C   UNL     1      67.084  70.832  68.282  0.00  0.00    +0.000 C 
ATOM      8  C   UNL     1      65.073  67.391  67.591  0.00  0.00    +0.000 C 
ATOM      9  C   UNL     1      68.430  70.207  68.546  0.00  0.00    +0.000 C 
ATOM     10  C   UNL     1      63.982  70.879  67.904  0.00  0.00    +0.000 A 
ATOM     11  C   UNL     1      67.584  69.002  65.421  0.00  0.00    +0.000 C 
ATOM     12  C   UNL     1      62.701  68.304  68.053  0.00  0.00    +0.000 A 
ATOM     13  C   UNL     1      62.511  70.712  68.194  0.00  0.00    +0.000 A 
ATOM     14  C   UNL     1      61.865  69.443  68.262  0.00  0.00    +0.000 A 
ATOM     15  C   UNL     1      62.119  67.037  68.106  0.00  0.00    +0.000 A 
ATOM     16  C   UNL     1      60.505  69.315  68.509  0.00  0.00    +0.000 A 
ATOM     17  C   UNL     1      60.752  66.902  68.354  0.00  0.00    +0.000 A 
ATOM     18  C   UNL     1      59.962  68.036  68.551  0.00  0.00    +0.000 A 
ENDROOT
BRANCH   5  19
ATOM     19  O   UNL     1      69.359  67.974  68.136  0.00  0.00    +0.000 OA
ATOM     20  H   UNL     1      68.926  67.348  68.744  0.00  0.00    +0.000 HD
ENDBRANCH   5  19
BRANCH  18  21
ATOM     21  O   UNL     1      58.623  67.912  68.789  0.00  0.00    +0.000 OA
ATOM     22  H   UNL     1      58.501  67.616  69.708  0.00  0.00    +0.000 HD
ENDBRANCH  18  21
TORSDOF 2
ENDMDL
MODEL 6
REMARK VINA RESULT:      -5.9     22.501     25.003
REMARK  Name = Estradiol.pdbqt.pdb
REMARK  2 active torsions:
REMARK  status: ('A' for Active; 'I' for Inactive)
REMARK    1  A    between atoms: C_5  and  O_19
REMARK    2  A    between atoms: C_18  and  O_21
REMARK                            x       y       z     vdW  Elec       q    Type
REMARK                         _______ _______ _______ _____ _____    ______ ____
ROOT
ATOM      1  C   UNL     1      54.772  59.509  83.101  0.00  0.00    +0.000 C 
ATOM      2  C   UNL     1      54.914  60.922  82.352  0.00  0.00    +0.000 C 
ATOM      3  C   UNL     1      55.231  62.155  83.089  0.00  0.00    +0.000 A 
ATOM      4  C   UNL     1      55.697  62.246  84.526  0.00  0.00    +0.000 A 
ATOM      5  C   UNL     1      55.544  58.551  82.170  0.00  0.00    +0.000 C 
ATOM      6  C   UNL     1      55.390  59.686  84.416  0.00  0.00    +0.000 C 
ATOM      7  C   UNL     1      55.536  60.662  81.088  0.00  0.00    +0.000 C 
ATOM      8  C   UNL     1      55.804  60.960  85.113  0.00  0.00    +0.000 C 
ATOM      9  C   UNL     1      55.953  59.217  80.983  0.00  0.00    +0.000 C 
ATOM     10  C   UNL     1      55.170  63.435  82.481  0.00  0.00    +0.000 A 
ATOM     11  C   UNL     1      53.271  59.123  83.159  0.00  0.00    +0.000 C 
ATOM     12  C   UNL     1      56.011  63.532  85.233  0.00  0.00    +0.000 A 
ATOM     13  C   UNL     1      55.499  64.725  83.191  0.00  0.00    +0.000 A 
ATOM     14  C   UNL     1      55.909  64.785  84.555  0.00  0.00    +0.000 A 
ATOM     15  C   UNL     1      56.405  63.535  86.571  0.00  0.00    +0.000 A 
ATOM     16  C   UNL     1      56.186  65.986  85.194  0.00  0.00    +0.000 A 
ATOM     17  C   UNL     1      56.685  64.738  87.219  0.00  0.00    +0.000 A 
ATOM     18  C   UNL     1      56.573  65.946  86.528  0.00  0.00    +0.000 A 
ENDROOT
BRANCH   5  19
ATOM     19  O   UNL     1      56.156  57.401  82.620  0.00  0.00    +0.000 OA
ATOM     20  H   UNL     1      56.891  57.598  83.228  0.00  0.00    +0.000 HD
ENDBRANCH   5  19
BRANCH  18  21
ATOM     21  O   UNL     1      56.840  67.129  87.157  0.00  0.00    +0.000 OA
ATOM     22  H   UNL     1      57.805  67.257  87.173  0.00  0.00    +0.000 HD
ENDBRANCH  18  21
TORSDOF 2
ENDMDL
MODEL 7
REMARK VINA RESULT:      -5.9     27.870     30.196
REMARK  Name = Estradiol.pdbqt.pdb
REMARK  2 active torsions:
REMARK  status: ('A' for Active; 'I' for Inactive)
REMARK    1  A    between atoms: C_5  and  O_19
REMARK    2  A    between atoms: C_18  and  O_21
REMARK                            x       y       z     vdW  Elec       q    Type
REMARK                         _______ _______ _______ _____ _____    ______ ____
ROOT
ATOM      1  C   UNL     1      48.855  33.907  61.828  0.00  0.00    +0.000 C 
ATOM      2  C   UNL     1      49.466  35.252  61.199  0.00  0.00    +0.000 C 
ATOM      3  C   UNL     1      50.247  35.232  59.952  0.00  0.00    +0.000 A 
ATOM      4  C   UNL     1      50.373  34.069  58.991  0.00  0.00    +0.000 A 
ATOM      5  C   UNL     1      47.428  34.337  62.229  0.00  0.00    +0.000 C 
ATOM      6  C   UNL     1      48.896  32.907  60.760  0.00  0.00    +0.000 C 
ATOM      7  C   UNL     1      48.507  36.292  61.428  0.00  0.00    +0.000 C 
ATOM      8  C   UNL     1      49.625  32.951  59.438  0.00  0.00    +0.000 C 
ATOM      9  C   UNL     1      47.244  35.732  62.029  0.00  0.00    +0.000 C 
ATOM     10  C   UNL     1      50.954  36.370  59.485  0.00  0.00    +0.000 A 
ATOM     11  C   UNL     1      49.682  33.522  63.082  0.00  0.00    +0.000 C 
ATOM     12  C   UNL     1      51.183  34.100  57.728  0.00  0.00    +0.000 A 
ATOM     13  C   UNL     1      51.756  36.401  58.207  0.00  0.00    +0.000 A 
ATOM     14  C   UNL     1      51.882  35.281  57.334  0.00  0.00    +0.000 A 
ATOM     15  C   UNL     1      51.276  32.974  56.910  0.00  0.00    +0.000 A 
ATOM     16  C   UNL     1      52.644  35.328  56.174  0.00  0.00    +0.000 A 
ATOM     17  C   UNL     1      52.040  33.013  55.743  0.00  0.00    +0.000 A 
ATOM     18  C   UNL     1      52.713  34.183  55.388  0.00  0.00    +0.000 A 
ENDROOT
BRANCH   5  19
ATOM     19  O   UNL     1      46.372  33.455  62.297  0.00  0.00    +0.000 OA
ATOM     20  H   UNL     1      46.496  32.697  61.698  0.00  0.00    +0.000 HD
ENDBRANCH   5  19
BRANCH  18  21
ATOM     21  O   UNL     1      53.467  34.228  54.250  0.00  0.00    +0.000 OA
ATOM     22  H   UNL     1      52.877  34.420  53.499  0.00  0.00    +0.000 HD
ENDBRANCH  18  21
TORSDOF 2
ENDMDL
MODEL 8
REMARK VINA RESULT:      -5.9     23.622     25.817
REMARK  Name = Estradiol.pdbqt.pdb
REMARK  2 active torsions:
REMARK  status: ('A' for Active; 'I' for Inactive)
REMARK    1  A    between atoms: C_5  and  O_19
REMARK    2  A    between atoms: C_18  and  O_21
REMARK                            x       y       z     vdW  Elec       q    Type
REMARK                         _______ _______ _______ _____ _____    ______ ____
ROOT
ATOM      1  C   UNL     1      55.299  58.344  83.382  0.00  0.00    +0.000 C 
ATOM      2  C   UNL     1      53.968  58.698  82.555  0.00  0.00    +0.000 C 
ATOM      3  C   UNL     1      52.919  57.694  82.321  0.00  0.00    +0.000 A 
ATOM      4  C   UNL     1      52.807  56.341  82.990  0.00  0.00    +0.000 A 
ATOM      5  C   UNL     1      55.464  59.573  84.301  0.00  0.00    +0.000 C 
ATOM      6  C   UNL     1      55.010  57.101  84.097  0.00  0.00    +0.000 C 
ATOM      7  C   UNL     1      53.610  60.042  82.897  0.00  0.00    +0.000 C 
ATOM      8  C   UNL     1      53.866  56.134  83.909  0.00  0.00    +0.000 C 
ATOM      9  C   UNL     1      54.504  60.573  83.990  0.00  0.00    +0.000 C 
ATOM     10  C   UNL     1      51.834  57.926  81.437  0.00  0.00    +0.000 A 
ATOM     11  C   UNL     1      56.487  58.239  82.391  0.00  0.00    +0.000 C 
ATOM     12  C   UNL     1      51.712  55.350  82.718  0.00  0.00    +0.000 A 
ATOM     13  C   UNL     1      50.728  56.934  81.175  0.00  0.00    +0.000 A 
ATOM     14  C   UNL     1      50.662  55.653  81.798  0.00  0.00    +0.000 A 
ATOM     15  C   UNL     1      51.697  54.108  83.353  0.00  0.00    +0.000 A 
ATOM     16  C   UNL     1      49.646  54.747  81.525  0.00  0.00    +0.000 A 
ATOM     17  C   UNL     1      50.679  53.193  83.083  0.00  0.00    +0.000 A 
ATOM     18  C   UNL     1      49.669  53.520  82.176  0.00  0.00    +0.000 A 
ENDROOT
BRANCH   5  19
ATOM     19  O   UNL     1      56.099  59.513  85.522  0.00  0.00    +0.000 OA
ATOM     20  H   UNL     1      57.068  59.473  85.423  0.00  0.00    +0.000 HD
ENDBRANCH   5  19
BRANCH  18  21
ATOM     21  O   UNL     1      48.671  52.627  81.904  0.00  0.00    +0.000 OA
ATOM     22  H   UNL     1      48.914  51.768  82.291  0.00  0.00    +0.000 HD
ENDBRANCH  18  21
TORSDOF 2
ENDMDL
MODEL 9
REMARK VINA RESULT:      -5.8      8.742      9.862
REMARK  Name = Estradiol.pdbqt.pdb
REMARK  2 active torsions:
REMARK  status: ('A' for Active; 'I' for Inactive)
REMARK    1  A    between atoms: C_5  and  O_19
REMARK    2  A    between atoms: C_18  and  O_21
REMARK                            x       y       z     vdW  Elec       q    Type
REMARK                         _______ _______ _______ _____ _____    ______ ____
ROOT
ATOM      1  C   UNL     1      62.466  55.565  60.991  0.00  0.00    +0.000 C 
ATOM      2  C   UNL     1      61.088  56.387  60.918  0.00  0.00    +0.000 C 
ATOM      3  C   UNL     1      61.051  57.786  60.464  0.00  0.00    +0.000 A 
ATOM      4  C   UNL     1      62.178  58.542  59.794  0.00  0.00    +0.000 A 
ATOM      5  C   UNL     1      62.078  54.199  60.388  0.00  0.00    +0.000 C 
ATOM      6  C   UNL     1      63.429  56.319  60.187  0.00  0.00    +0.000 C 
ATOM      7  C   UNL     1      60.077  55.467  60.491  0.00  0.00    +0.000 C 
ATOM      8  C   UNL     1      63.325  57.724  59.642  0.00  0.00    +0.000 C 
ATOM      9  C   UNL     1      60.682  54.134  60.134  0.00  0.00    +0.000 C 
ATOM     10  C   UNL     1      59.884  58.585  60.574  0.00  0.00    +0.000 A 
ATOM     11  C   UNL     1      62.875  55.410  62.479  0.00  0.00    +0.000 C 
ATOM     12  C   UNL     1      62.089  59.972  59.346  0.00  0.00    +0.000 A 
ATOM     13  C   UNL     1      59.794  60.018  60.110  0.00  0.00    +0.000 A 
ATOM     14  C   UNL     1      60.881  60.717  59.508  0.00  0.00    +0.000 A 
ATOM     15  C   UNL     1      63.185  60.610  58.765  0.00  0.00    +0.000 A 
ATOM     16  C   UNL     1      60.780  62.042  59.109  0.00  0.00    +0.000 A 
ATOM     17  C   UNL     1      63.091  61.942  58.361  0.00  0.00    +0.000 A 
ATOM     18  C   UNL     1      61.896  62.642  58.537  0.00  0.00    +0.000 A 
ENDROOT
BRANCH   5  19
ATOM     19  O   UNL     1      62.984  53.379  59.751  0.00  0.00    +0.000 OA
ATOM     20  H   UNL     1      62.540  52.708  59.202  0.00  0.00    +0.000 HD
ENDBRANCH   5  19
BRANCH  18  21
ATOM     21  O   UNL     1      61.797  63.948  58.148  0.00  0.00    +0.000 OA
ATOM     22  H   UNL     1      60.930  64.078  57.726  0.00  0.00    +0.000 HD
ENDBRANCH  18  21
TORSDOF 2
ENDMDL
