MODEL 1
REMARK VINA RESULT:      -6.3      0.000      0.000
REMARK  Name = 
REMARK  11 active torsions:
REMARK  status: ('A' for Active; 'I' for Inactive)
REMARK    1  A    between atoms: O_1  and  C_16
REMARK    2  A    between atoms: O_1  and  C_22
REMARK    3  A    between atoms: O_6  and  C_24
REMARK    4  A    between atoms: O_8  and  C_26
REMARK    5  A    between atoms: O_11  and  C_36
REMARK    6  A    between atoms: O_11  and  C_41
REMARK    7  A    between atoms: O_12  and  C_37
REMARK    8  A    between atoms: O_12  and  C_42
REMARK    9  A    between atoms: O_13  and  C_39
REMARK   10  A    between atoms: C_17  and  C_23
REMARK   11  A    between atoms: C_35  and  C_40
REMARK                            x       y       z     vdW  Elec       q    Type
REMARK                         _______ _______ _______ _____ _____    ______ ____
ROOT
ATOM      1  O   UNL     1      54.973  35.663  63.593  0.00  0.00    +0.000 OA
ATOM      2  O   UNL     1      54.595  37.340  65.110  0.00  0.00    +0.000 OA
ATOM      3  O   UNL     1      46.697  35.505  62.096  0.00  0.00    +0.000 OA
ATOM      4  O   UNL     1      46.675  36.873  64.082  0.00  0.00    +0.000 OA
ATOM      5  C   UNL     1      52.780  35.109  63.091  0.00  0.00    +0.000 C 
ATOM      6  C   UNL     1      52.786  36.486  63.727  0.00  0.00    +0.000 C 
ATOM      7  C   UNL     1      51.625  34.986  62.105  0.00  0.00    +0.000 C 
ATOM      8  C   UNL     1      51.599  36.651  64.675  0.00  0.00    +0.000 C 
ATOM      9  C   UNL     1      50.328  35.508  62.720  0.00  0.00    +0.000 A 
ATOM     10  C   UNL     1      50.312  36.321  63.901  0.00  0.00    +0.000 A 
ATOM     11  C   UNL     1      54.190  35.036  62.563  0.00  0.00    +0.000 C 
ATOM     12  C   UNL     1      54.182  36.557  64.271  0.00  0.00    +0.000 C 
ATOM     13  C   UNL     1      49.113  35.207  62.074  0.00  0.00    +0.000 A 
ATOM     14  C   UNL     1      49.088  36.809  64.402  0.00  0.00    +0.000 A 
ATOM     15  C   UNL     1      47.943  35.707  62.602  0.00  0.00    +0.000 A 
ATOM     16  C   UNL     1      47.930  36.485  63.731  0.00  0.00    +0.000 A 
ATOM     17  C   UNL     1      45.897  36.246  63.041  0.00  0.00    +0.000 C 
ENDROOT
BRANCH   8  18
ATOM     18  C   UNL     1      51.718  35.889  65.997  0.00  0.00    +0.000 A 
ATOM     19  C   UNL     1      51.635  34.487  66.080  0.00  0.00    +0.000 A 
ATOM     20  C   UNL     1      51.932  36.607  67.186  0.00  0.00    +0.000 A 
ATOM     21  C   UNL     1      52.082  35.945  68.405  0.00  0.00    +0.000 A 
ATOM     22  C   UNL     1      51.761  33.802  67.296  0.00  0.00    +0.000 A 
ATOM     23  C   UNL     1      51.986  34.545  68.456  0.00  0.00    +0.000 A 
BRANCH  21  24
ATOM     24  O   UNL     1      52.316  36.552  69.618  0.00  0.00    +0.000 OA
ATOM     25  C   UNL     1      52.913  37.845  69.572  0.00  0.00    +0.000 C 
ENDBRANCH  21  24
BRANCH  22  26
ATOM     26  O   UNL     1      51.652  32.445  67.157  0.00  0.00    +0.000 OA
ATOM     27  C   UNL     1      51.774  31.896  65.853  0.00  0.00    +0.000 C 
ENDBRANCH  22  26
BRANCH  23  28
ATOM     28  O   UNL     1      52.136  33.950  69.684  0.00  0.00    +0.000 OA
ATOM     29  H   UNL     1      51.264  34.042  70.116  0.00  0.00    +0.000 HD
ENDBRANCH  23  28
ENDBRANCH   8  18
BRANCH   7  30
ATOM     30  O   UNL     1      51.889  35.796  60.959  0.00  0.00    +0.000 OA
BRANCH  30  34
ATOM     31  O   UNL     1      52.681  34.181  59.465  0.00  0.00    +0.000 OA
ATOM     32  O   UNL     1      52.412  33.844  55.813  0.00  0.00    +0.000 OA
ATOM     33  O   UNL     1      53.362  31.867  56.691  0.00  0.00    +0.000 OA
ATOM     34  C   UNL     1      51.634  35.120  59.722  0.00  0.00    +0.000 C 
ATOM     35  C   UNL     1      51.544  36.207  58.626  0.00  0.00    +0.000 C 
ATOM     36  C   UNL     1      52.569  34.520  57.065  0.00  0.00    +0.000 C 
ATOM     37  C   UNL     1      51.478  35.579  57.227  0.00  0.00    +0.000 C 
ATOM     38  C   UNL     1      52.483  33.523  58.217  0.00  0.00    +0.000 C 
ATOM     39  C   UNL     1      53.543  32.453  57.979  0.00  0.00    +0.000 C 
ATOM     40  C   UNL     1      53.426  32.847  55.656  0.00  0.00    +0.000 C 
ATOM     41  C   UNL     1      53.193  32.147  54.330  0.00  0.00    +0.000 C 
BRANCH  35  42
ATOM     42  O   UNL     1      50.377  37.014  58.859  0.00  0.00    +0.000 OA
ATOM     43  H   UNL     1      49.683  36.660  58.269  0.00  0.00    +0.000 HD
ENDBRANCH  35  42
BRANCH  37  44
ATOM     44  O   UNL     1      51.671  36.588  56.221  0.00  0.00    +0.000 OA
ATOM     45  H   UNL     1      52.078  36.132  55.460  0.00  0.00    +0.000 HD
ENDBRANCH  37  44
ENDBRANCH  30  34
ENDBRANCH   7  30
TORSDOF 8
ENDMDL
MODEL 2
REMARK VINA RESULT:      -6.3      9.512     12.559
REMARK  Name = 
REMARK  11 active torsions:
REMARK  status: ('A' for Active; 'I' for Inactive)
REMARK    1  A    between atoms: O_1  and  C_16
REMARK    2  A    between atoms: O_1  and  C_22
REMARK    3  A    between atoms: O_6  and  C_24
REMARK    4  A    between atoms: O_8  and  C_26
REMARK    5  A    between atoms: O_11  and  C_36
REMARK    6  A    between atoms: O_11  and  C_41
REMARK    7  A    between atoms: O_12  and  C_37
REMARK    8  A    between atoms: O_12  and  C_42
REMARK    9  A    between atoms: O_13  and  C_39
REMARK   10  A    between atoms: C_17  and  C_23
REMARK   11  A    between atoms: C_35  and  C_40
REMARK                            x       y       z     vdW  Elec       q    Type
REMARK                         _______ _______ _______ _____ _____    ______ ____
ROOT
ATOM      1  O   UNL     1      59.713  37.273  74.473  0.00  0.00    +0.000 OA
ATOM      2  O   UNL     1      58.236  38.054  76.042  0.00  0.00    +0.000 OA
ATOM      3  O   UNL     1      54.468  40.065  68.520  0.00  0.00    +0.000 OA
ATOM      4  O   UNL     1      52.995  40.270  70.418  0.00  0.00    +0.000 OA
ATOM      5  C   UNL     1      58.457  37.635  72.560  0.00  0.00    +0.000 C 
ATOM      6  C   UNL     1      57.875  38.481  73.676  0.00  0.00    +0.000 C 
ATOM      7  C   UNL     1      58.240  38.310  71.212  0.00  0.00    +0.000 C 
ATOM      8  C   UNL     1      56.348  38.485  73.616  0.00  0.00    +0.000 C 
ATOM      9  C   UNL     1      56.799  38.801  71.077  0.00  0.00    +0.000 A 
ATOM     10  C   UNL     1      55.921  38.922  72.204  0.00  0.00    +0.000 A 
ATOM     11  C   UNL     1      59.869  37.448  73.055  0.00  0.00    +0.000 C 
ATOM     12  C   UNL     1      58.566  37.910  74.877  0.00  0.00    +0.000 C 
ATOM     13  C   UNL     1      56.340  39.181  69.801  0.00  0.00    +0.000 A 
ATOM     14  C   UNL     1      54.614  39.418  72.026  0.00  0.00    +0.000 A 
ATOM     15  C   UNL     1      55.054  39.661  69.678  0.00  0.00    +0.000 A 
ATOM     16  C   UNL     1      54.216  39.777  70.758  0.00  0.00    +0.000 A 
ATOM     17  C   UNL     1      53.161  40.448  68.996  0.00  0.00    +0.000 C 
ENDROOT
BRANCH   8  18
ATOM     18  C   UNL     1      55.682  37.185  74.070  0.00  0.00    +0.000 A 
ATOM     19  C   UNL     1      55.753  35.991  73.329  0.00  0.00    +0.000 A 
ATOM     20  C   UNL     1      54.975  37.165  75.284  0.00  0.00    +0.000 A 
ATOM     21  C   UNL     1      54.385  35.989  75.750  0.00  0.00    +0.000 A 
ATOM     22  C   UNL     1      55.150  34.803  73.766  0.00  0.00    +0.000 A 
ATOM     23  C   UNL     1      54.467  34.815  74.983  0.00  0.00    +0.000 A 
BRANCH  21  24
ATOM     24  O   UNL     1      53.693  35.858  76.932  0.00  0.00    +0.000 OA
ATOM     25  C   UNL     1      52.593  36.744  77.121  0.00  0.00    +0.000 C 
ENDBRANCH  21  24
BRANCH  22  26
ATOM     26  O   UNL     1      55.339  33.760  72.901  0.00  0.00    +0.000 OA
ATOM     27  C   UNL     1      54.559  33.726  71.715  0.00  0.00    +0.000 C 
ENDBRANCH  22  26
BRANCH  23  28
ATOM     28  O   UNL     1      53.862  33.691  75.489  0.00  0.00    +0.000 OA
ATOM     29  H   UNL     1      54.356  33.486  76.307  0.00  0.00    +0.000 HD
ENDBRANCH  23  28
ENDBRANCH   8  18
BRANCH   7  30
ATOM     30  O   UNL     1      59.075  39.465  71.119  0.00  0.00    +0.000 OA
BRANCH  30  34
ATOM     31  O   UNL     1      61.408  39.598  71.199  0.00  0.00    +0.000 OA
ATOM     32  O   UNL     1      63.945  40.185  68.601  0.00  0.00    +0.000 OA
ATOM     33  O   UNL     1      65.037  39.604  70.615  0.00  0.00    +0.000 OA
ATOM     34  C   UNL     1      60.288  39.223  70.394  0.00  0.00    +0.000 C 
ATOM     35  C   UNL     1      60.203  40.049  69.090  0.00  0.00    +0.000 C 
ATOM     36  C   UNL     1      62.695  40.345  69.282  0.00  0.00    +0.000 C 
ATOM     37  C   UNL     1      61.539  40.027  68.333  0.00  0.00    +0.000 C 
ATOM     38  C   UNL     1      62.630  39.415  70.490  0.00  0.00    +0.000 C 
ATOM     39  C   UNL     1      63.835  39.724  71.373  0.00  0.00    +0.000 C 
ATOM     40  C   UNL     1      65.032  40.476  69.485  0.00  0.00    +0.000 C 
ATOM     41  C   UNL     1      66.325  40.263  68.719  0.00  0.00    +0.000 C 
BRANCH  35  42
ATOM     42  O   UNL     1      59.159  39.512  68.260  0.00  0.00    +0.000 OA
ATOM     43  H   UNL     1      59.209  38.542  68.358  0.00  0.00    +0.000 HD
ENDBRANCH  35  42
BRANCH  37  44
ATOM     44  O   UNL     1      61.530  41.008  67.283  0.00  0.00    +0.000 OA
ATOM     45  H   UNL     1      60.887  41.689  67.558  0.00  0.00    +0.000 HD
ENDBRANCH  37  44
ENDBRANCH  30  34
ENDBRANCH   7  30
TORSDOF 8
ENDMDL
MODEL 3
REMARK VINA RESULT:      -6.0     26.058     29.394
REMARK  Name = 
REMARK  11 active torsions:
REMARK  status: ('A' for Active; 'I' for Inactive)
REMARK    1  A    between atoms: O_1  and  C_16
REMARK    2  A    between atoms: O_1  and  C_22
REMARK    3  A    between atoms: O_6  and  C_24
REMARK    4  A    between atoms: O_8  and  C_26
REMARK    5  A    between atoms: O_11  and  C_36
REMARK    6  A    between atoms: O_11  and  C_41
REMARK    7  A    between atoms: O_12  and  C_37
REMARK    8  A    between atoms: O_12  and  C_42
REMARK    9  A    between atoms: O_13  and  C_39
REMARK   10  A    between atoms: C_17  and  C_23
REMARK   11  A    between atoms: C_35  and  C_40
REMARK                            x       y       z     vdW  Elec       q    Type
REMARK                         _______ _______ _______ _____ _____    ______ ____
ROOT
ATOM      1  O   UNL     1      69.280  58.658  63.819  0.00  0.00    +0.000 OA
ATOM      2  O   UNL     1      68.791  59.749  65.776  0.00  0.00    +0.000 OA
ATOM      3  O   UNL     1      73.691  53.091  68.326  0.00  0.00    +0.000 OA
ATOM      4  O   UNL     1      73.384  54.769  70.031  0.00  0.00    +0.000 OA
ATOM      5  C   UNL     1      70.789  57.096  64.626  0.00  0.00    +0.000 C 
ATOM      6  C   UNL     1      69.993  57.635  65.799  0.00  0.00    +0.000 C 
ATOM      7  C   UNL     1      71.210  55.655  64.887  0.00  0.00    +0.000 C 
ATOM      8  C   UNL     1      70.889  57.829  67.021  0.00  0.00    +0.000 C 
ATOM      9  C   UNL     1      71.793  55.506  66.291  0.00  0.00    +0.000 A 
ATOM     10  C   UNL     1      71.613  56.502  67.306  0.00  0.00    +0.000 A 
ATOM     11  C   UNL     1      69.839  57.376  63.488  0.00  0.00    +0.000 C 
ATOM     12  C   UNL     1      69.317  58.822  65.182  0.00  0.00    +0.000 C 
ATOM     13  C   UNL     1      72.497  54.326  66.600  0.00  0.00    +0.000 A 
ATOM     14  C   UNL     1      72.139  56.294  68.597  0.00  0.00    +0.000 A 
ATOM     15  C   UNL     1      72.992  54.167  67.876  0.00  0.00    +0.000 A 
ATOM     16  C   UNL     1      72.818  55.122  68.846  0.00  0.00    +0.000 A 
ATOM     17  C   UNL     1      73.938  53.480  69.693  0.00  0.00    +0.000 C 
ENDROOT
BRANCH   8  18
ATOM     18  C   UNL     1      71.839  59.026  66.940  0.00  0.00    +0.000 A 
ATOM     19  C   UNL     1      73.001  59.026  66.147  0.00  0.00    +0.000 A 
ATOM     20  C   UNL     1      71.543  60.187  67.675  0.00  0.00    +0.000 A 
ATOM     21  C   UNL     1      72.366  61.312  67.598  0.00  0.00    +0.000 A 
ATOM     22  C   UNL     1      73.854  60.137  66.071  0.00  0.00    +0.000 A 
ATOM     23  C   UNL     1      73.523  61.278  66.803  0.00  0.00    +0.000 A 
BRANCH  21  24
ATOM     24  O   UNL     1      72.153  62.501  68.257  0.00  0.00    +0.000 OA
ATOM     25  C   UNL     1      72.213  62.454  69.680  0.00  0.00    +0.000 C 
ENDBRANCH  21  24
BRANCH  22  26
ATOM     26  O   UNL     1      74.924  59.931  65.244  0.00  0.00    +0.000 OA
ATOM     27  C   UNL     1      76.132  59.456  65.821  0.00  0.00    +0.000 C 
ENDBRANCH  22  26
BRANCH  23  28
ATOM     28  O   UNL     1      74.297  62.412  66.772  0.00  0.00    +0.000 OA
ATOM     29  H   UNL     1      75.134  62.157  67.206  0.00  0.00    +0.000 HD
ENDBRANCH  23  28
ENDBRANCH   8  18
BRANCH   7  30
ATOM     30  O   UNL     1      70.062  54.807  64.828  0.00  0.00    +0.000 OA
BRANCH  30  34
ATOM     31  O   UNL     1      69.626  54.062  62.655  0.00  0.00    +0.000 OA
ATOM     32  O   UNL     1      68.974  50.718  61.268  0.00  0.00    +0.000 OA
ATOM     33  O   UNL     1      69.215  52.249  59.484  0.00  0.00    +0.000 OA
ATOM     34  C   UNL     1      70.216  53.717  63.910  0.00  0.00    +0.000 C 
ATOM     35  C   UNL     1      69.538  52.487  64.556  0.00  0.00    +0.000 C 
ATOM     36  C   UNL     1      68.909  51.784  62.223  0.00  0.00    +0.000 C 
ATOM     37  C   UNL     1      69.462  51.314  63.568  0.00  0.00    +0.000 C 
ATOM     38  C   UNL     1      69.719  52.981  61.732  0.00  0.00    +0.000 C 
ATOM     39  C   UNL     1      69.176  53.373  60.362  0.00  0.00    +0.000 C 
ATOM     40  C   UNL     1      68.464  51.153  60.005  0.00  0.00    +0.000 C 
ATOM     41  C   UNL     1      68.583  49.995  59.030  0.00  0.00    +0.000 C 
BRANCH  35  42
ATOM     42  O   UNL     1      70.280  52.099  65.724  0.00  0.00    +0.000 OA
ATOM     43  H   UNL     1      70.845  51.352  65.448  0.00  0.00    +0.000 HD
ENDBRANCH  35  42
BRANCH  37  44
ATOM     44  O   UNL     1      68.596  50.289  64.082  0.00  0.00    +0.000 OA
ATOM     45  H   UNL     1      67.788  50.322  63.535  0.00  0.00    +0.000 HD
ENDBRANCH  37  44
ENDBRANCH  30  34
ENDBRANCH   7  30
TORSDOF 8
ENDMDL
MODEL 4
REMARK VINA RESULT:      -5.9     26.012     29.389
REMARK  Name = 
REMARK  11 active torsions:
REMARK  status: ('A' for Active; 'I' for Inactive)
REMARK    1  A    between atoms: O_1  and  C_16
REMARK    2  A    between atoms: O_1  and  C_22
REMARK    3  A    between atoms: O_6  and  C_24
REMARK    4  A    between atoms: O_8  and  C_26
REMARK    5  A    between atoms: O_11  and  C_36
REMARK    6  A    between atoms: O_11  and  C_41
REMARK    7  A    between atoms: O_12  and  C_37
REMARK    8  A    between atoms: O_12  and  C_42
REMARK    9  A    between atoms: O_13  and  C_39
REMARK   10  A    between atoms: C_17  and  C_23
REMARK   11  A    between atoms: C_35  and  C_40
REMARK                            x       y       z     vdW  Elec       q    Type
REMARK                         _______ _______ _______ _____ _____    ______ ____
ROOT
ATOM      1  O   UNL     1      69.318  58.648  63.763  0.00  0.00    +0.000 OA
ATOM      2  O   UNL     1      68.791  59.736  65.711  0.00  0.00    +0.000 OA
ATOM      3  O   UNL     1      73.577  53.033  68.356  0.00  0.00    +0.000 OA
ATOM      4  O   UNL     1      73.243  54.707  70.059  0.00  0.00    +0.000 OA
ATOM      5  C   UNL     1      70.795  57.071  64.601  0.00  0.00    +0.000 C 
ATOM      6  C   UNL     1      69.976  57.613  65.756  0.00  0.00    +0.000 C 
ATOM      7  C   UNL     1      71.199  55.627  64.867  0.00  0.00    +0.000 C 
ATOM      8  C   UNL     1      70.844  57.796  67.000  0.00  0.00    +0.000 C 
ATOM      9  C   UNL     1      71.747  55.468  66.284  0.00  0.00    +0.000 A 
ATOM     10  C   UNL     1      71.550  56.463  67.298  0.00  0.00    +0.000 A 
ATOM     11  C   UNL     1      69.876  57.362  63.442  0.00  0.00    +0.000 C 
ATOM     12  C   UNL     1      69.324  58.807  65.127  0.00  0.00    +0.000 C 
ATOM     13  C   UNL     1      72.434  54.282  66.606  0.00  0.00    +0.000 A 
ATOM     14  C   UNL     1      72.044  56.246  68.600  0.00  0.00    +0.000 A 
ATOM     15  C   UNL     1      72.898  54.116  67.893  0.00  0.00    +0.000 A 
ATOM     16  C   UNL     1      72.708  55.069  68.862  0.00  0.00    +0.000 A 
ATOM     17  C   UNL     1      73.794  53.415  69.730  0.00  0.00    +0.000 C 
ENDROOT
BRANCH   8  18
ATOM     18  C   UNL     1      71.805  58.986  66.945  0.00  0.00    +0.000 A 
ATOM     19  C   UNL     1      71.544  60.208  67.591  0.00  0.00    +0.000 A 
ATOM     20  C   UNL     1      73.010  58.862  66.233  0.00  0.00    +0.000 A 
ATOM     21  C   UNL     1      73.929  59.911  66.191  0.00  0.00    +0.000 A 
ATOM     22  C   UNL     1      72.442  61.285  67.544  0.00  0.00    +0.000 A 
ATOM     23  C   UNL     1      73.635  61.123  66.840  0.00  0.00    +0.000 A 
BRANCH  21  24
ATOM     24  O   UNL     1      75.142  59.883  65.544  0.00  0.00    +0.000 OA
ATOM     25  C   UNL     1      75.099  59.761  64.124  0.00  0.00    +0.000 C 
ENDBRANCH  21  24
BRANCH  22  26
ATOM     26  O   UNL     1      71.999  62.378  68.238  0.00  0.00    +0.000 OA
ATOM     27  C   UNL     1      72.392  62.510  69.597  0.00  0.00    +0.000 C 
ENDBRANCH  22  26
BRANCH  23  28
ATOM     28  O   UNL     1      74.574  62.121  66.758  0.00  0.00    +0.000 OA
ATOM     29  H   UNL     1      74.101  62.933  67.025  0.00  0.00    +0.000 HD
ENDBRANCH  23  28
ENDBRANCH   8  18
BRANCH   7  30
ATOM     30  O   UNL     1      70.047  54.787  64.778  0.00  0.00    +0.000 OA
BRANCH  30  34
ATOM     31  O   UNL     1      69.659  54.027  62.602  0.00  0.00    +0.000 OA
ATOM     32  O   UNL     1      69.034  50.674  61.225  0.00  0.00    +0.000 OA
ATOM     33  O   UNL     1      69.318  52.190  59.435  0.00  0.00    +0.000 OA
ATOM     34  C   UNL     1      70.220  53.690  63.872  0.00  0.00    +0.000 C 
ATOM     35  C   UNL     1      69.524  52.467  64.512  0.00  0.00    +0.000 C 
ATOM     36  C   UNL     1      68.949  51.747  62.170  0.00  0.00    +0.000 C 
ATOM     37  C   UNL     1      69.469  51.286  63.531  0.00  0.00    +0.000 C 
ATOM     38  C   UNL     1      69.772  52.938  61.689  0.00  0.00    +0.000 C 
ATOM     39  C   UNL     1      69.262  53.320  60.303  0.00  0.00    +0.000 C 
ATOM     40  C   UNL     1      68.553  51.099  59.947  0.00  0.00    +0.000 C 
ATOM     41  C   UNL     1      68.693  49.934  58.984  0.00  0.00    +0.000 C 
BRANCH  35  42
ATOM     42  O   UNL     1      70.238  52.086  65.700  0.00  0.00    +0.000 OA
ATOM     43  H   UNL     1      69.558  51.820  66.349  0.00  0.00    +0.000 HD
ENDBRANCH  35  42
BRANCH  37  44
ATOM     44  O   UNL     1      68.589  50.266  64.033  0.00  0.00    +0.000 OA
ATOM     45  H   UNL     1      68.472  50.457  64.983  0.00  0.00    +0.000 HD
ENDBRANCH  37  44
ENDBRANCH  30  34
ENDBRANCH   7  30
TORSDOF 8
ENDMDL
MODEL 5
REMARK VINA RESULT:      -5.9     13.631     17.123
REMARK  Name = 
REMARK  11 active torsions:
REMARK  status: ('A' for Active; 'I' for Inactive)
REMARK    1  A    between atoms: O_1  and  C_16
REMARK    2  A    between atoms: O_1  and  C_22
REMARK    3  A    between atoms: O_6  and  C_24
REMARK    4  A    between atoms: O_8  and  C_26
REMARK    5  A    between atoms: O_11  and  C_36
REMARK    6  A    between atoms: O_11  and  C_41
REMARK    7  A    between atoms: O_12  and  C_37
REMARK    8  A    between atoms: O_12  and  C_42
REMARK    9  A    between atoms: O_13  and  C_39
REMARK   10  A    between atoms: C_17  and  C_23
REMARK   11  A    between atoms: C_35  and  C_40
REMARK                            x       y       z     vdW  Elec       q    Type
REMARK                         _______ _______ _______ _____ _____    ______ ____
ROOT
ATOM      1  O   UNL     1      60.858  39.306  55.615  0.00  0.00    +0.000 OA
ATOM      2  O   UNL     1      61.388  41.448  56.237  0.00  0.00    +0.000 OA
ATOM      3  O   UNL     1      67.785  39.254  50.843  0.00  0.00    +0.000 OA
ATOM      4  O   UNL     1      67.703  41.615  51.328  0.00  0.00    +0.000 OA
ATOM      5  C   UNL     1      62.481  38.972  53.996  0.00  0.00    +0.000 C 
ATOM      6  C   UNL     1      62.909  40.143  54.860  0.00  0.00    +0.000 C 
ATOM      7  C   UNL     1      63.702  38.235  53.459  0.00  0.00    +0.000 C 
ATOM      8  C   UNL     1      63.541  41.244  54.010  0.00  0.00    +0.000 C 
ATOM      9  C   UNL     1      64.726  39.219  52.896  0.00  0.00    +0.000 A 
ATOM     10  C   UNL     1      64.679  40.623  53.182  0.00  0.00    +0.000 A 
ATOM     11  C   UNL     1      61.557  38.246  54.940  0.00  0.00    +0.000 C 
ATOM     12  C   UNL     1      61.649  40.428  55.621  0.00  0.00    +0.000 C 
ATOM     13  C   UNL     1      65.772  38.711  52.100  0.00  0.00    +0.000 A 
ATOM     14  C   UNL     1      65.674  41.479  52.668  0.00  0.00    +0.000 A 
ATOM     15  C   UNL     1      66.721  39.588  51.621  0.00  0.00    +0.000 A 
ATOM     16  C   UNL     1      66.674  40.931  51.897  0.00  0.00    +0.000 A 
ATOM     17  C   UNL     1      68.403  40.545  50.659  0.00  0.00    +0.000 C 
ENDROOT
BRANCH   8  18
ATOM     18  C   UNL     1      62.554  42.052  53.164  0.00  0.00    +0.000 A 
ATOM     19  C   UNL     1      61.875  41.511  52.058  0.00  0.00    +0.000 A 
ATOM     20  C   UNL     1      62.298  43.391  53.504  0.00  0.00    +0.000 A 
ATOM     21  C   UNL     1      61.378  44.150  52.779  0.00  0.00    +0.000 A 
ATOM     22  C   UNL     1      60.962  42.260  51.302  0.00  0.00    +0.000 A 
ATOM     23  C   UNL     1      60.720  43.582  51.675  0.00  0.00    +0.000 A 
BRANCH  21  24
ATOM     24  O   UNL     1      61.039  45.457  53.043  0.00  0.00    +0.000 OA
ATOM     25  C   UNL     1      60.447  45.712  54.314  0.00  0.00    +0.000 C 
ENDBRANCH  21  24
BRANCH  22  26
ATOM     26  O   UNL     1      60.411  41.546  50.273  0.00  0.00    +0.000 OA
ATOM     27  C   UNL     1      61.028  41.630  48.997  0.00  0.00    +0.000 C 
ENDBRANCH  22  26
BRANCH  23  28
ATOM     28  O   UNL     1      59.831  44.378  50.997  0.00  0.00    +0.000 OA
ATOM     29  H   UNL     1      59.540  45.044  51.650  0.00  0.00    +0.000 HD
ENDBRANCH  23  28
ENDBRANCH   8  18
BRANCH   7  30
ATOM     30  O   UNL     1      64.346  37.541  54.528  0.00  0.00    +0.000 OA
BRANCH  30  34
ATOM     31  O   UNL     1      63.615  35.763  53.198  0.00  0.00    +0.000 OA
ATOM     32  O   UNL     1      63.056  32.199  53.917  0.00  0.00    +0.000 OA
ATOM     33  O   UNL     1      62.838  32.549  51.590  0.00  0.00    +0.000 OA
ATOM     34  C   UNL     1      64.443  36.129  54.303  0.00  0.00    +0.000 C 
ATOM     35  C   UNL     1      64.006  35.435  55.614  0.00  0.00    +0.000 C 
ATOM     36  C   UNL     1      63.055  33.609  54.166  0.00  0.00    +0.000 C 
ATOM     37  C   UNL     1      63.874  33.918  55.420  0.00  0.00    +0.000 C 
ATOM     38  C   UNL     1      63.650  34.356  52.976  0.00  0.00    +0.000 C 
ATOM     39  C   UNL     1      62.844  33.968  51.741  0.00  0.00    +0.000 C 
ATOM     40  C   UNL     1      62.296  31.903  52.742  0.00  0.00    +0.000 C 
ATOM     41  C   UNL     1      62.356  30.404  52.512  0.00  0.00    +0.000 C 
BRANCH  35  42
ATOM     42  O   UNL     1      64.973  35.718  56.640  0.00  0.00    +0.000 OA
ATOM     43  H   UNL     1      65.089  36.687  56.641  0.00  0.00    +0.000 HD
ENDBRANCH  35  42
BRANCH  37  44
ATOM     44  O   UNL     1      63.212  33.330  56.552  0.00  0.00    +0.000 OA
ATOM     45  H   UNL     1      63.688  33.654  57.339  0.00  0.00    +0.000 HD
ENDBRANCH  37  44
ENDBRANCH  30  34
ENDBRANCH   7  30
TORSDOF 8
ENDMDL
MODEL 6
REMARK VINA RESULT:      -5.9      9.613     11.881
REMARK  Name = 
REMARK  11 active torsions:
REMARK  status: ('A' for Active; 'I' for Inactive)
REMARK    1  A    between atoms: O_1  and  C_16
REMARK    2  A    between atoms: O_1  and  C_22
REMARK    3  A    between atoms: O_6  and  C_24
REMARK    4  A    between atoms: O_8  and  C_26
REMARK    5  A    between atoms: O_11  and  C_36
REMARK    6  A    between atoms: O_11  and  C_41
REMARK    7  A    between atoms: O_12  and  C_37
REMARK    8  A    between atoms: O_12  and  C_42
REMARK    9  A    between atoms: O_13  and  C_39
REMARK   10  A    between atoms: C_17  and  C_23
REMARK   11  A    between atoms: C_35  and  C_40
REMARK                            x       y       z     vdW  Elec       q    Type
REMARK                         _______ _______ _______ _____ _____    ______ ____
ROOT
ATOM      1  O   UNL     1      58.902  37.088  74.985  0.00  0.00    +0.000 OA
ATOM      2  O   UNL     1      57.797  38.145  76.694  0.00  0.00    +0.000 OA
ATOM      3  O   UNL     1      53.339  40.454  69.649  0.00  0.00    +0.000 OA
ATOM      4  O   UNL     1      52.199  40.953  71.715  0.00  0.00    +0.000 OA
ATOM      5  C   UNL     1      57.455  37.574  73.243  0.00  0.00    +0.000 C 
ATOM      6  C   UNL     1      57.171  38.540  74.377  0.00  0.00    +0.000 C 
ATOM      7  C   UNL     1      57.151  38.228  71.901  0.00  0.00    +0.000 C 
ATOM      8  C   UNL     1      55.669  38.780  74.524  0.00  0.00    +0.000 C 
ATOM      9  C   UNL     1      55.795  38.932  71.934  0.00  0.00    +0.000 A 
ATOM     10  C   UNL     1      55.115  39.228  73.161  0.00  0.00    +0.000 A 
ATOM     11  C   UNL     1      58.879  37.187  73.552  0.00  0.00    +0.000 C 
ATOM     12  C   UNL     1      57.932  37.910  75.504  0.00  0.00    +0.000 C 
ATOM     13  C   UNL     1      55.222  39.334  70.713  0.00  0.00    +0.000 A 
ATOM     14  C   UNL     1      53.885  39.916  73.135  0.00  0.00    +0.000 A 
ATOM     15  C   UNL     1      54.017  40.004  70.738  0.00  0.00    +0.000 A 
ATOM     16  C   UNL     1      53.369  40.287  71.913  0.00  0.00    +0.000 A 
ATOM     17  C   UNL     1      52.186  41.053  70.276  0.00  0.00    +0.000 C 
ENDROOT
BRANCH   8  18
ATOM     18  C   UNL     1      54.887  37.616  75.137  0.00  0.00    +0.000 A 
ATOM     19  C   UNL     1      54.744  36.371  74.498  0.00  0.00    +0.000 A 
ATOM     20  C   UNL     1      54.291  37.780  76.399  0.00  0.00    +0.000 A 
ATOM     21  C   UNL     1      53.601  36.730  77.007  0.00  0.00    +0.000 A 
ATOM     22  C   UNL     1      54.038  35.309  75.079  0.00  0.00    +0.000 A 
ATOM     23  C   UNL     1      53.469  35.501  76.339  0.00  0.00    +0.000 A 
BRANCH  21  24
ATOM     24  O   UNL     1      53.003  36.780  78.245  0.00  0.00    +0.000 OA
ATOM     25  C   UNL     1      53.868  37.001  79.356  0.00  0.00    +0.000 C 
ENDBRANCH  21  24
BRANCH  22  26
ATOM     26  O   UNL     1      54.020  34.188  74.295  0.00  0.00    +0.000 OA
ATOM     27  C   UNL     1      54.797  34.193  73.106  0.00  0.00    +0.000 C 
ENDBRANCH  22  26
BRANCH  23  28
ATOM     28  O   UNL     1      52.775  34.508  76.983  0.00  0.00    +0.000 OA
ATOM     29  H   UNL     1      52.960  33.698  76.470  0.00  0.00    +0.000 HD
ENDBRANCH  23  28
ENDBRANCH   8  18
BRANCH   7  30
ATOM     30  O   UNL     1      58.127  39.234  71.630  0.00  0.00    +0.000 OA
BRANCH  30  34
ATOM     31  O   UNL     1      58.595  37.691  69.937  0.00  0.00    +0.000 OA
ATOM     32  O   UNL     1      61.521  37.217  67.759  0.00  0.00    +0.000 OA
ATOM     33  O   UNL     1      59.785  35.792  67.022  0.00  0.00    +0.000 OA
ATOM     34  C   UNL     1      58.818  39.027  70.392  0.00  0.00    +0.000 C 
ATOM     35  C   UNL     1      60.314  39.311  70.660  0.00  0.00    +0.000 C 
ATOM     36  C   UNL     1      60.813  37.516  68.967  0.00  0.00    +0.000 C 
ATOM     37  C   UNL     1      61.177  38.920  69.451  0.00  0.00    +0.000 C 
ATOM     38  C   UNL     1      59.308  37.436  68.729  0.00  0.00    +0.000 C 
ATOM     39  C   UNL     1      59.001  36.044  68.187  0.00  0.00    +0.000 C 
ATOM     40  C   UNL     1      61.181  35.907  67.297  0.00  0.00    +0.000 C 
ATOM     41  C   UNL     1      61.937  35.657  66.004  0.00  0.00    +0.000 C 
BRANCH  35  42
ATOM     42  O   UNL     1      60.483  40.708  70.953  0.00  0.00    +0.000 OA
ATOM     43  H   UNL     1      60.547  41.159  70.089  0.00  0.00    +0.000 HD
ENDBRANCH  35  42
BRANCH  37  44
ATOM     44  O   UNL     1      62.568  38.930  69.811  0.00  0.00    +0.000 OA
ATOM     45  H   UNL     1      62.748  38.057  70.208  0.00  0.00    +0.000 HD
ENDBRANCH  37  44
ENDBRANCH  30  34
ENDBRANCH   7  30
TORSDOF 8
ENDMDL
MODEL 7
REMARK VINA RESULT:      -5.8     16.129     19.064
REMARK  Name = 
REMARK  11 active torsions:
REMARK  status: ('A' for Active; 'I' for Inactive)
REMARK    1  A    between atoms: O_1  and  C_16
REMARK    2  A    between atoms: O_1  and  C_22
REMARK    3  A    between atoms: O_6  and  C_24
REMARK    4  A    between atoms: O_8  and  C_26
REMARK    5  A    between atoms: O_11  and  C_36
REMARK    6  A    between atoms: O_11  and  C_41
REMARK    7  A    between atoms: O_12  and  C_37
REMARK    8  A    between atoms: O_12  and  C_42
REMARK    9  A    between atoms: O_13  and  C_39
REMARK   10  A    between atoms: C_17  and  C_23
REMARK   11  A    between atoms: C_35  and  C_40
REMARK                            x       y       z     vdW  Elec       q    Type
REMARK                         _______ _______ _______ _____ _____    ______ ____
ROOT
ATOM      1  O   UNL     1      56.832  48.399  55.885  0.00  0.00    +0.000 OA
ATOM      2  O   UNL     1      55.020  47.229  56.662  0.00  0.00    +0.000 OA
ATOM      3  O   UNL     1      53.939  55.124  60.026  0.00  0.00    +0.000 OA
ATOM      4  O   UNL     1      51.978  53.730  60.196  0.00  0.00    +0.000 OA
ATOM      5  C   UNL     1      56.262  50.516  56.633  0.00  0.00    +0.000 C 
ATOM      6  C   UNL     1      55.443  49.503  57.410  0.00  0.00    +0.000 C 
ATOM      7  C   UNL     1      56.530  51.749  57.486  0.00  0.00    +0.000 C 
ATOM      8  C   UNL     1      54.015  50.005  57.621  0.00  0.00    +0.000 C 
ATOM      9  C   UNL     1      55.250  52.223  58.173  0.00  0.00    +0.000 A 
ATOM     10  C   UNL     1      54.083  51.396  58.274  0.00  0.00    +0.000 A 
ATOM     11  C   UNL     1      57.431  49.666  56.206  0.00  0.00    +0.000 C 
ATOM     12  C   UNL     1      55.678  48.255  56.614  0.00  0.00    +0.000 C 
ATOM     13  C   UNL     1      55.241  53.503  58.759  0.00  0.00    +0.000 A 
ATOM     14  C   UNL     1      52.943  51.869  58.955  0.00  0.00    +0.000 A 
ATOM     15  C   UNL     1      54.103  53.921  59.414  0.00  0.00    +0.000 A 
ATOM     16  C   UNL     1      52.987  53.128  59.510  0.00  0.00    +0.000 A 
ATOM     17  C   UNL     1      52.588  54.997  60.518  0.00  0.00    +0.000 C 
ENDROOT
BRANCH   8  18
ATOM     18  C   UNL     1      53.128  49.969  56.374  0.00  0.00    +0.000 A 
ATOM     19  C   UNL     1      53.300  50.848  55.290  0.00  0.00    +0.000 A 
ATOM     20  C   UNL     1      52.102  49.013  56.291  0.00  0.00    +0.000 A 
ATOM     21  C   UNL     1      51.296  48.924  55.155  0.00  0.00    +0.000 A 
ATOM     22  C   UNL     1      52.489  50.792  54.147  0.00  0.00    +0.000 A 
ATOM     23  C   UNL     1      51.488  49.822  54.091  0.00  0.00    +0.000 A 
BRANCH  21  24
ATOM     24  O   UNL     1      50.283  48.013  54.965  0.00  0.00    +0.000 OA
ATOM     25  C   UNL     1      49.261  47.989  55.958  0.00  0.00    +0.000 C 
ENDBRANCH  21  24
BRANCH  22  26
ATOM     26  O   UNL     1      52.823  51.732  53.210  0.00  0.00    +0.000 OA
ATOM     27  C   UNL     1      52.165  52.989  53.262  0.00  0.00    +0.000 C 
ENDBRANCH  22  26
BRANCH  23  28
ATOM     28  O   UNL     1      50.661  49.691  53.003  0.00  0.00    +0.000 OA
ATOM     29  H   UNL     1      49.813  49.373  53.369  0.00  0.00    +0.000 HD
ENDBRANCH  23  28
ENDBRANCH   8  18
BRANCH   7  30
ATOM     30  O   UNL     1      57.453  51.418  58.524  0.00  0.00    +0.000 OA
BRANCH  30  34
ATOM     31  O   UNL     1      59.741  50.971  58.352  0.00  0.00    +0.000 OA
ATOM     32  O   UNL     1      62.720  52.924  59.269  0.00  0.00    +0.000 OA
ATOM     33  O   UNL     1      63.407  51.006  58.071  0.00  0.00    +0.000 OA
ATOM     34  C   UNL     1      58.748  51.999  58.330  0.00  0.00    +0.000 C 
ATOM     35  C   UNL     1      58.951  53.031  59.463  0.00  0.00    +0.000 C 
ATOM     36  C   UNL     1      61.390  52.412  59.400  0.00  0.00    +0.000 C 
ATOM     37  C   UNL     1      60.390  53.566  59.473  0.00  0.00    +0.000 C 
ATOM     38  C   UNL     1      61.048  51.520  58.209  0.00  0.00    +0.000 C 
ATOM     39  C   UNL     1      62.106  50.424  58.138  0.00  0.00    +0.000 C 
ATOM     40  C   UNL     1      63.661  51.849  59.195  0.00  0.00    +0.000 C 
ATOM     41  C   UNL     1      65.045  52.450  59.028  0.00  0.00    +0.000 C 
BRANCH  35  42
ATOM     42  O   UNL     1      58.025  54.116  59.283  0.00  0.00    +0.000 OA
ATOM     43  H   UNL     1      58.311  54.583  58.474  0.00  0.00    +0.000 HD
ENDBRANCH  35  42
BRANCH  37  44
ATOM     44  O   UNL     1      60.636  54.304  60.681  0.00  0.00    +0.000 OA
ATOM     45  H   UNL     1      60.865  55.210  60.400  0.00  0.00    +0.000 HD
ENDBRANCH  37  44
ENDBRANCH  30  34
ENDBRANCH   7  30
TORSDOF 8
ENDMDL
MODEL 8
REMARK VINA RESULT:      -5.8     50.597     54.899
REMARK  Name = 
REMARK  11 active torsions:
REMARK  status: ('A' for Active; 'I' for Inactive)
REMARK    1  A    between atoms: O_1  and  C_16
REMARK    2  A    between atoms: O_1  and  C_22
REMARK    3  A    between atoms: O_6  and  C_24
REMARK    4  A    between atoms: O_8  and  C_26
REMARK    5  A    between atoms: O_11  and  C_36
REMARK    6  A    between atoms: O_11  and  C_41
REMARK    7  A    between atoms: O_12  and  C_37
REMARK    8  A    between atoms: O_12  and  C_42
REMARK    9  A    between atoms: O_13  and  C_39
REMARK   10  A    between atoms: C_17  and  C_23
REMARK   11  A    between atoms: C_35  and  C_40
REMARK                            x       y       z     vdW  Elec       q    Type
REMARK                         _______ _______ _______ _____ _____    ______ ____
ROOT
ATOM      1  O   UNL     1      75.980  78.154  79.527  0.00  0.00    +0.000 OA
ATOM      2  O   UNL     1      77.164  78.031  81.486  0.00  0.00    +0.000 OA
ATOM      3  O   UNL     1      81.423  84.009  76.909  0.00  0.00    +0.000 OA
ATOM      4  O   UNL     1      82.057  83.947  79.235  0.00  0.00    +0.000 OA
ATOM      5  C   UNL     1      77.062  79.953  78.546  0.00  0.00    +0.000 C 
ATOM      6  C   UNL     1      77.955  79.403  79.642  0.00  0.00    +0.000 C 
ATOM      7  C   UNL     1      77.903  80.560  77.430  0.00  0.00    +0.000 C 
ATOM      8  C   UNL     1      78.642  80.537  80.403  0.00  0.00    +0.000 C 
ATOM      9  C   UNL     1      78.993  81.466  78.003  0.00  0.00    +0.000 A 
ATOM     10  C   UNL     1      79.370  81.431  79.385  0.00  0.00    +0.000 A 
ATOM     11  C   UNL     1      76.218  78.743  78.237  0.00  0.00    +0.000 C 
ATOM     12  C   UNL     1      77.012  78.491  80.367  0.00  0.00    +0.000 C 
ATOM     13  C   UNL     1      79.670  82.333  77.124  0.00  0.00    +0.000 A 
ATOM     14  C   UNL     1      80.410  82.261  79.851  0.00  0.00    +0.000 A 
ATOM     15  C   UNL     1      80.680  83.124  77.626  0.00  0.00    +0.000 A 
ATOM     16  C   UNL     1      81.040  83.089  78.949  0.00  0.00    +0.000 A 
ATOM     17  C   UNL     1      82.293  84.528  77.936  0.00  0.00    +0.000 C 
ENDROOT
BRANCH   8  18
ATOM     18  C   UNL     1      77.732  81.322  81.350  0.00  0.00    +0.000 A 
ATOM     19  C   UNL     1      77.041  82.482  80.958  0.00  0.00    +0.000 A 
ATOM     20  C   UNL     1      77.560  80.867  82.669  0.00  0.00    +0.000 A 
ATOM     21  C   UNL     1      76.710  81.535  83.551  0.00  0.00    +0.000 A 
ATOM     22  C   UNL     1      76.198  83.182  81.833  0.00  0.00    +0.000 A 
ATOM     23  C   UNL     1      76.039  82.696  83.131  0.00  0.00    +0.000 A 
BRANCH  21  24
ATOM     24  O   UNL     1      76.455  81.160  84.850  0.00  0.00    +0.000 OA
ATOM     25  C   UNL     1      75.675  79.981  85.026  0.00  0.00    +0.000 C 
ENDBRANCH  21  24
BRANCH  22  26
ATOM     26  O   UNL     1      75.621  84.280  81.253  0.00  0.00    +0.000 OA
ATOM     27  C   UNL     1      76.343  84.950  80.230  0.00  0.00    +0.000 C 
ENDBRANCH  22  26
BRANCH  23  28
ATOM     28  O   UNL     1      75.221  83.313  84.044  0.00  0.00    +0.000 OA
ATOM     29  H   UNL     1      74.729  82.587  84.473  0.00  0.00    +0.000 HD
ENDBRANCH  23  28
ENDBRANCH   8  18
BRANCH   7  30
ATOM     30  O   UNL     1      78.570  79.518  76.717  0.00  0.00    +0.000 OA
BRANCH  30  34
ATOM     31  O   UNL     1      76.855  79.826  75.159  0.00  0.00    +0.000 OA
ATOM     32  O   UNL     1      76.154  78.258  71.906  0.00  0.00    +0.000 OA
ATOM     33  O   UNL     1      74.655  80.058  72.222  0.00  0.00    +0.000 OA
ATOM     34  C   UNL     1      78.233  79.485  75.325  0.00  0.00    +0.000 C 
ATOM     35  C   UNL     1      78.546  78.058  74.821  0.00  0.00    +0.000 C 
ATOM     36  C   UNL     1      76.580  78.325  73.272  0.00  0.00    +0.000 C 
ATOM     37  C   UNL     1      78.028  77.849  73.391  0.00  0.00    +0.000 C 
ATOM     38  C   UNL     1      76.473  79.757  73.788  0.00  0.00    +0.000 C 
ATOM     39  C   UNL     1      75.030  80.209  73.590  0.00  0.00    +0.000 C 
ATOM     40  C   UNL     1      74.801  78.706  71.787  0.00  0.00    +0.000 C 
ATOM     41  C   UNL     1      74.415  78.639  70.321  0.00  0.00    +0.000 C 
BRANCH  35  42
ATOM     42  O   UNL     1      79.966  77.843  74.866  0.00  0.00    +0.000 OA
ATOM     43  H   UNL     1      80.101  77.047  75.416  0.00  0.00    +0.000 HD
ENDBRANCH  35  42
BRANCH  37  44
ATOM     44  O   UNL     1      78.080  76.456  73.043  0.00  0.00    +0.000 OA
ATOM     45  H   UNL     1      78.078  76.423  72.067  0.00  0.00    +0.000 HD
ENDBRANCH  37  44
ENDBRANCH  30  34
ENDBRANCH   7  30
TORSDOF 8
ENDMDL
MODEL 9
REMARK VINA RESULT:      -5.7     13.524     17.268
REMARK  Name = 
REMARK  11 active torsions:
REMARK  status: ('A' for Active; 'I' for Inactive)
REMARK    1  A    between atoms: O_1  and  C_16
REMARK    2  A    between atoms: O_1  and  C_22
REMARK    3  A    between atoms: O_6  and  C_24
REMARK    4  A    between atoms: O_8  and  C_26
REMARK    5  A    between atoms: O_11  and  C_36
REMARK    6  A    between atoms: O_11  and  C_41
REMARK    7  A    between atoms: O_12  and  C_37
REMARK    8  A    between atoms: O_12  and  C_42
REMARK    9  A    between atoms: O_13  and  C_39
REMARK   10  A    between atoms: C_17  and  C_23
REMARK   11  A    between atoms: C_35  and  C_40
REMARK                            x       y       z     vdW  Elec       q    Type
REMARK                         _______ _______ _______ _____ _____    ______ ____
ROOT
ATOM      1  O   UNL     1      62.530  43.737  49.947  0.00  0.00    +0.000 OA
ATOM      2  O   UNL     1      62.153  45.169  51.697  0.00  0.00    +0.000 OA
ATOM      3  O   UNL     1      61.967  37.349  55.390  0.00  0.00    +0.000 OA
ATOM      4  O   UNL     1      62.110  39.159  56.977  0.00  0.00    +0.000 OA
ATOM      5  C   UNL     1      62.720  41.749  51.121  0.00  0.00    +0.000 C 
ATOM      6  C   UNL     1      62.026  42.762  52.013  0.00  0.00    +0.000 C 
ATOM      7  C   UNL     1      62.243  40.340  51.448  0.00  0.00    +0.000 C 
ATOM      8  C   UNL     1      62.512  42.637  53.457  0.00  0.00    +0.000 C 
ATOM      9  C   UNL     1      62.246  40.102  52.957  0.00  0.00    +0.000 A 
ATOM     10  C   UNL     1      62.332  41.176  53.903  0.00  0.00    +0.000 A 
ATOM     11  C   UNL     1      62.413  42.317  49.758  0.00  0.00    +0.000 C 
ATOM     12  C   UNL     1      62.265  44.036  51.260  0.00  0.00    +0.000 C 
ATOM     13  C   UNL     1      62.120  38.780  53.425  0.00  0.00    +0.000 A 
ATOM     14  C   UNL     1      62.291  40.902  55.285  0.00  0.00    +0.000 A 
ATOM     15  C   UNL     1      62.084  38.561  54.786  0.00  0.00    +0.000 A 
ATOM     16  C   UNL     1      62.165  39.591  55.688  0.00  0.00    +0.000 A 
ATOM     17  C   UNL     1      61.987  37.735  56.780  0.00  0.00    +0.000 C 
ENDROOT
BRANCH   8  18
ATOM     18  C   UNL     1      63.922  43.174  53.711  0.00  0.00    +0.000 A 
ATOM     19  C   UNL     1      64.167  44.430  54.294  0.00  0.00    +0.000 A 
ATOM     20  C   UNL     1      65.030  42.382  53.364  0.00  0.00    +0.000 A 
ATOM     21  C   UNL     1      66.331  42.822  53.614  0.00  0.00    +0.000 A 
ATOM     22  C   UNL     1      65.465  44.902  54.535  0.00  0.00    +0.000 A 
ATOM     23  C   UNL     1      66.542  44.085  54.191  0.00  0.00    +0.000 A 
BRANCH  21  24
ATOM     24  O   UNL     1      67.478  42.116  53.334  0.00  0.00    +0.000 OA
ATOM     25  C   UNL     1      67.651  40.887  54.036  0.00  0.00    +0.000 C 
ENDBRANCH  21  24
BRANCH  22  26
ATOM     26  O   UNL     1      65.483  46.145  55.110  0.00  0.00    +0.000 OA
ATOM     27  C   UNL     1      64.288  46.912  55.076  0.00  0.00    +0.000 C 
ENDBRANCH  22  26
BRANCH  23  28
ATOM     28  O   UNL     1      67.843  44.466  54.407  0.00  0.00    +0.000 OA
ATOM     29  H   UNL     1      67.790  45.404  54.675  0.00  0.00    +0.000 HD
ENDBRANCH  23  28
ENDBRANCH   8  18
BRANCH   7  30
ATOM     30  O   UNL     1      60.892  40.182  51.012  0.00  0.00    +0.000 OA
BRANCH  30  34
ATOM     31  O   UNL     1      62.001  38.677  49.608  0.00  0.00    +0.000 OA
ATOM     32  O   UNL     1      61.042  37.088  46.432  0.00  0.00    +0.000 OA
ATOM     33  O   UNL     1      63.062  36.121  47.188  0.00  0.00    +0.000 OA
ATOM     34  C   UNL     1      60.723  39.099  50.088  0.00  0.00    +0.000 C 
ATOM     35  C   UNL     1      59.814  39.619  48.951  0.00  0.00    +0.000 C 
ATOM     36  C   UNL     1      61.134  38.133  47.407  0.00  0.00    +0.000 C 
ATOM     37  C   UNL     1      59.735  38.606  47.799  0.00  0.00    +0.000 C 
ATOM     38  C   UNL     1      61.867  37.632  48.648  0.00  0.00    +0.000 C 
ATOM     39  C   UNL     1      63.229  37.112  48.200  0.00  0.00    +0.000 C 
ATOM     40  C   UNL     1      62.349  36.636  46.064  0.00  0.00    +0.000 C 
ATOM     41  C   UNL     1      62.188  35.515  45.054  0.00  0.00    +0.000 C 
BRANCH  35  42
ATOM     42  O   UNL     1      58.500  39.870  49.476  0.00  0.00    +0.000 OA
ATOM     43  H   UNL     1      57.978  40.233  48.734  0.00  0.00    +0.000 HD
ENDBRANCH  35  42
BRANCH  37  44
ATOM     44  O   UNL     1      59.120  39.210  46.649  0.00  0.00    +0.000 OA
ATOM     45  H   UNL     1      59.533  40.090  46.556  0.00  0.00    +0.000 HD
ENDBRANCH  37  44
ENDBRANCH  30  34
ENDBRANCH   7  30
TORSDOF 8
ENDMDL
