MODEL 1
REMARK VINA RESULT:      -7.5      0.000      0.000
REMARK  Name = Foretinib.pdbqt.pdb
REMARK  11 active torsions:
REMARK  status: ('A' for Active; 'I' for Inactive)
REMARK    1  A    between atoms: C_2  and  N_31
REMARK    2  A    between atoms: C_7  and  O_8
REMARK    3  A    between atoms: O_8  and  C_9
REMARK    4  A    between atoms: C_17  and  O_19
REMARK    5  A    between atoms: C_18  and  O_29
REMARK    6  A    between atoms: O_19  and  C_20
REMARK    7  A    between atoms: C_21  and  C_22
REMARK    8  A    between atoms: C_22  and  N_23
REMARK    9  A    between atoms: C_32  and  C_35
REMARK   10  A    between atoms: C_35  and  C_38
REMARK   11  A    between atoms: N_40  and  C_42
REMARK                            x       y       z     vdW  Elec       q    Type
REMARK                         _______ _______ _______ _____ _____    ______ ____
ROOT
ATOM      1  F   UNL     1      56.219  33.327  66.232  0.00  0.00    +0.000 F 
ATOM      2  C   UNL     1      55.175  35.027  63.201  0.00  0.00    +0.000 A 
ATOM      3  C   UNL     1      55.259  34.072  64.215  0.00  0.00    +0.000 A 
ATOM      4  C   UNL     1      55.969  36.175  63.269  0.00  0.00    +0.000 A 
ATOM      5  C   UNL     1      56.126  34.271  65.284  0.00  0.00    +0.000 A 
ATOM      6  C   UNL     1      56.838  36.373  64.340  0.00  0.00    +0.000 A 
ATOM      7  C   UNL     1      56.899  35.430  65.363  0.00  0.00    +0.000 A 
ENDROOT
BRANCH   2   8
ATOM      8  N   UNL     1      54.321  34.889  62.091  0.00  0.00    +0.000 N 
ATOM      9  C   UNL     1      53.090  35.506  61.943  0.00  0.00    +0.000 C 
ATOM     10  O   UNL     1      52.545  36.241  62.757  0.00  0.00    +0.000 OA
ATOM     11  H   UNL     1      54.622  34.250  61.361  0.00  0.00    +0.000 HD
BRANCH   9  12
ATOM     12  C   UNL     1      52.373  35.166  60.669  0.00  0.00    +0.000 C 
ATOM     13  C   UNL     1      52.705  33.903  60.019  0.00  0.00    +0.000 C 
ATOM     14  C   UNL     1      53.147  35.196  59.433  0.00  0.00    +0.000 C 
BRANCH  12  15
ATOM     15  C   UNL     1      50.941  35.608  60.618  0.00  0.00    +0.000 C 
ATOM     16  O   UNL     1      50.597  36.399  59.747  0.00  0.00    +0.000 OA
ATOM     17  N   UNL     1      50.117  35.018  61.562  0.00  0.00    +0.000 N 
ATOM     18  H   UNL     1      50.528  34.334  62.190  0.00  0.00    +0.000 HD
BRANCH  17  19
ATOM     19  C   UNL     1      48.738  35.258  61.706  0.00  0.00    +0.000 A 
ATOM     20  C   UNL     1      47.882  34.155  61.692  0.00  0.00    +0.000 A 
ATOM     21  C   UNL     1      46.507  34.327  61.830  0.00  0.00    +0.000 A 
ATOM     22  C   UNL     1      45.995  35.610  61.984  0.00  0.00    +0.000 A 
ATOM     23  F   UNL     1      44.673  35.779  62.120  0.00  0.00    +0.000 F 
ATOM     24  C   UNL     1      46.832  36.720  62.004  0.00  0.00    +0.000 A 
ATOM     25  C   UNL     1      48.205  36.539  61.864  0.00  0.00    +0.000 A 
ENDBRANCH  17  19
ENDBRANCH  12  15
ENDBRANCH   9  12
ENDBRANCH   2   8
BRANCH   7  26
ATOM     26  O   UNL     1      57.819  35.646  66.360  0.00  0.00    +0.000 OA
BRANCH  26  27
ATOM     27  C   UNL     1      57.542  36.648  67.269  0.00  0.00    +0.000 A 
ATOM     28  C   UNL     1      58.486  37.675  67.429  0.00  0.00    +0.000 A 
ATOM     29  C   UNL     1      58.172  38.721  68.313  0.00  0.00    +0.000 A 
ATOM     30  C   UNL     1      59.713  37.683  66.748  0.00  0.00    +0.000 A 
ATOM     31  N   UNL     1      57.012  38.768  68.987  0.00  0.00    +0.000 NA
ATOM     32  C   UNL     1      59.103  39.735  68.481  0.00  0.00    +0.000 A 
ATOM     33  C   UNL     1      56.124  37.767  68.795  0.00  0.00    +0.000 A 
ATOM     34  C   UNL     1      56.330  36.697  67.948  0.00  0.00    +0.000 A 
ATOM     35  C   UNL     1      60.329  39.750  67.804  0.00  0.00    +0.000 A 
ATOM     36  C   UNL     1      60.641  38.710  66.926  0.00  0.00    +0.000 A 
BRANCH  36  37
ATOM     37  O   UNL     1      61.860  38.767  66.292  0.00  0.00    +0.000 OA
ATOM     38  C   UNL     1      62.425  37.531  65.952  0.00  0.00    +0.000 C 
ENDBRANCH  36  37
BRANCH  35  39
ATOM     39  O   UNL     1      61.266  40.745  67.963  0.00  0.00    +0.000 OA
BRANCH  39  40
ATOM     40  C   UNL     1      62.173  40.518  68.909  0.00  0.00    +0.000 C 
ATOM     41  C   UNL     1      63.208  40.244  70.006  0.00  0.00    +0.000 C 
BRANCH  41  42
ATOM     42  C   UNL     1      64.241  39.963  71.103  0.00  0.00    +0.000 C 
BRANCH  42  43
ATOM     43  N   UNL     1      65.222  39.697  72.145  0.00  0.00    +0.000 N 
ATOM     44  C   UNL     1      66.010  40.955  72.327  0.00  0.00    +0.000 C 
ATOM     45  C   UNL     1      66.007  41.947  73.534  0.00  0.00    +0.000 C 
ATOM     46  O   UNL     1      65.350  42.007  74.713  0.00  0.00    +0.000 OA
ATOM     47  C   UNL     1      64.635  40.876  74.548  0.00  0.00    +0.000 C 
ATOM     48  C   UNL     1      64.498  39.779  73.449  0.00  0.00    +0.000 C 
ENDBRANCH  42  43
ENDBRANCH  41  42
ENDBRANCH  39  40
ENDBRANCH  35  39
ENDBRANCH  26  27
ENDBRANCH   7  26
TORSDOF 11
ENDMDL
MODEL 2
REMARK VINA RESULT:      -7.4     16.524     20.535
REMARK  Name = Foretinib.pdbqt.pdb
REMARK  11 active torsions:
REMARK  status: ('A' for Active; 'I' for Inactive)
REMARK    1  A    between atoms: C_2  and  N_31
REMARK    2  A    between atoms: C_7  and  O_8
REMARK    3  A    between atoms: O_8  and  C_9
REMARK    4  A    between atoms: C_17  and  O_19
REMARK    5  A    between atoms: C_18  and  O_29
REMARK    6  A    between atoms: O_19  and  C_20
REMARK    7  A    between atoms: C_21  and  C_22
REMARK    8  A    between atoms: C_22  and  N_23
REMARK    9  A    between atoms: C_32  and  C_35
REMARK   10  A    between atoms: C_35  and  C_38
REMARK   11  A    between atoms: N_40  and  C_42
REMARK                            x       y       z     vdW  Elec       q    Type
REMARK                         _______ _______ _______ _____ _____    ______ ____
ROOT
ATOM      1  F   UNL     1      64.040  49.379  59.345  0.00  0.00    +0.000 F 
ATOM      2  C   UNL     1      63.210  52.892  58.975  0.00  0.00    +0.000 A 
ATOM      3  C   UNL     1      63.385  51.632  59.548  0.00  0.00    +0.000 A 
ATOM      4  C   UNL     1      63.562  53.096  57.639  0.00  0.00    +0.000 A 
ATOM      5  C   UNL     1      63.911  50.592  58.787  0.00  0.00    +0.000 A 
ATOM      6  C   UNL     1      64.087  52.054  56.878  0.00  0.00    +0.000 A 
ATOM      7  C   UNL     1      64.285  50.805  57.460  0.00  0.00    +0.000 A 
ENDROOT
BRANCH   2   8
ATOM      8  N   UNL     1      62.683  53.987  59.686  0.00  0.00    +0.000 N 
ATOM      9  C   UNL     1      63.364  54.732  60.634  0.00  0.00    +0.000 C 
ATOM     10  O   UNL     1      64.511  54.541  61.018  0.00  0.00    +0.000 OA
ATOM     11  H   UNL     1      61.709  54.218  59.512  0.00  0.00    +0.000 HD
BRANCH   9  12
ATOM     12  C   UNL     1      62.557  55.832  61.259  0.00  0.00    +0.000 C 
ATOM     13  C   UNL     1      62.889  56.228  62.623  0.00  0.00    +0.000 C 
ATOM     14  C   UNL     1      61.645  55.468  62.337  0.00  0.00    +0.000 C 
BRANCH  12  15
ATOM     15  C   UNL     1      62.136  56.917  60.312  0.00  0.00    +0.000 C 
ATOM     16  O   UNL     1      62.845  57.162  59.343  0.00  0.00    +0.000 OA
ATOM     17  N   UNL     1      60.925  57.514  60.615  0.00  0.00    +0.000 N 
ATOM     18  H   UNL     1      60.414  57.171  61.423  0.00  0.00    +0.000 HD
BRANCH  17  19
ATOM     19  C   UNL     1      60.313  58.541  59.874  0.00  0.00    +0.000 A 
ATOM     20  C   UNL     1      60.904  59.806  59.908  0.00  0.00    +0.000 A 
ATOM     21  C   UNL     1      60.346  60.865  59.195  0.00  0.00    +0.000 A 
ATOM     22  C   UNL     1      59.194  60.649  58.447  0.00  0.00    +0.000 A 
ATOM     23  F   UNL     1      58.657  61.664  57.758  0.00  0.00    +0.000 F 
ATOM     24  C   UNL     1      58.594  59.396  58.399  0.00  0.00    +0.000 A 
ATOM     25  C   UNL     1      59.158  58.344  59.116  0.00  0.00    +0.000 A 
ENDBRANCH  17  19
ENDBRANCH  12  15
ENDBRANCH   9  12
ENDBRANCH   2   8
BRANCH   7  26
ATOM     26  O   UNL     1      64.744  49.799  56.646  0.00  0.00    +0.000 OA
BRANCH  26  27
ATOM     27  C   UNL     1      63.799  49.049  55.974  0.00  0.00    +0.000 A 
ATOM     28  C   UNL     1      64.187  47.801  55.462  0.00  0.00    +0.000 A 
ATOM     29  C   UNL     1      63.206  47.018  54.830  0.00  0.00    +0.000 A 
ATOM     30  C   UNL     1      65.504  47.324  55.555  0.00  0.00    +0.000 A 
ATOM     31  N   UNL     1      61.930  47.420  54.716  0.00  0.00    +0.000 NA
ATOM     32  C   UNL     1      63.585  45.787  54.315  0.00  0.00    +0.000 A 
ATOM     33  C   UNL     1      61.594  48.622  55.234  0.00  0.00    +0.000 A 
ATOM     34  C   UNL     1      62.476  49.466  55.877  0.00  0.00    +0.000 A 
ATOM     35  C   UNL     1      64.897  45.305  54.407  0.00  0.00    +0.000 A 
ATOM     36  C   UNL     1      65.871  46.083  55.034  0.00  0.00    +0.000 A 
BRANCH  36  37
ATOM     37  O   UNL     1      67.145  45.569  55.091  0.00  0.00    +0.000 OA
ATOM     38  C   UNL     1      68.182  46.498  54.929  0.00  0.00    +0.000 C 
ENDBRANCH  36  37
BRANCH  35  39
ATOM     39  O   UNL     1      65.291  44.090  53.898  0.00  0.00    +0.000 OA
BRANCH  39  40
ATOM     40  C   UNL     1      64.456  43.082  54.138  0.00  0.00    +0.000 C 
ATOM     41  C   UNL     1      63.481  41.930  54.408  0.00  0.00    +0.000 C 
BRANCH  41  42
ATOM     42  C   UNL     1      62.503  40.780  54.672  0.00  0.00    +0.000 C 
BRANCH  42  43
ATOM     43  N   UNL     1      61.575  39.686  54.924  0.00  0.00    +0.000 N 
ATOM     44  C   UNL     1      62.205  38.450  54.366  0.00  0.00    +0.000 C 
ATOM     45  C   UNL     1      62.793  37.220  55.130  0.00  0.00    +0.000 C 
ATOM     46  O   UNL     1      62.928  36.886  56.432  0.00  0.00    +0.000 OA
ATOM     47  C   UNL     1      62.365  38.003  56.936  0.00  0.00    +0.000 C 
ATOM     48  C   UNL     1      61.736  39.307  56.359  0.00  0.00    +0.000 C 
ENDBRANCH  42  43
ENDBRANCH  41  42
ENDBRANCH  39  40
ENDBRANCH  35  39
ENDBRANCH  26  27
ENDBRANCH   7  26
TORSDOF 11
ENDMDL
MODEL 3
REMARK VINA RESULT:      -7.0      2.631      3.943
REMARK  Name = Foretinib.pdbqt.pdb
REMARK  11 active torsions:
REMARK  status: ('A' for Active; 'I' for Inactive)
REMARK    1  A    between atoms: C_2  and  N_31
REMARK    2  A    between atoms: C_7  and  O_8
REMARK    3  A    between atoms: O_8  and  C_9
REMARK    4  A    between atoms: C_17  and  O_19
REMARK    5  A    between atoms: C_18  and  O_29
REMARK    6  A    between atoms: O_19  and  C_20
REMARK    7  A    between atoms: C_21  and  C_22
REMARK    8  A    between atoms: C_22  and  N_23
REMARK    9  A    between atoms: C_32  and  C_35
REMARK   10  A    between atoms: C_35  and  C_38
REMARK   11  A    between atoms: N_40  and  C_42
REMARK                            x       y       z     vdW  Elec       q    Type
REMARK                         _______ _______ _______ _____ _____    ______ ____
ROOT
ATOM      1  F   UNL     1      55.801  33.451  66.101  0.00  0.00    +0.000 F 
ATOM      2  C   UNL     1      54.190  35.401  63.500  0.00  0.00    +0.000 A 
ATOM      3  C   UNL     1      54.455  34.370  64.402  0.00  0.00    +0.000 A 
ATOM      4  C   UNL     1      55.025  36.520  63.467  0.00  0.00    +0.000 A 
ATOM      5  C   UNL     1      55.543  34.467  65.264  0.00  0.00    +0.000 A 
ATOM      6  C   UNL     1      56.116  36.615  64.330  0.00  0.00    +0.000 A 
ATOM      7  C   UNL     1      56.361  35.596  65.248  0.00  0.00    +0.000 A 
ENDROOT
BRANCH   2   8
ATOM      8  N   UNL     1      53.109  35.368  62.600  0.00  0.00    +0.000 N 
ATOM      9  C   UNL     1      52.896  34.398  61.634  0.00  0.00    +0.000 C 
ATOM     10  O   UNL     1      53.622  33.441  61.397  0.00  0.00    +0.000 OA
ATOM     11  H   UNL     1      52.456  36.146  62.642  0.00  0.00    +0.000 HD
BRANCH   9  12
ATOM     12  C   UNL     1      51.675  34.617  60.790  0.00  0.00    +0.000 C 
ATOM     13  C   UNL     1      51.034  35.926  60.849  0.00  0.00    +0.000 C 
ATOM     14  C   UNL     1      50.395  34.741  61.478  0.00  0.00    +0.000 C 
BRANCH  12  15
ATOM     15  C   UNL     1      51.699  33.924  59.460  0.00  0.00    +0.000 C 
ATOM     16  O   UNL     1      50.738  33.236  59.135  0.00  0.00    +0.000 OA
ATOM     17  N   UNL     1      52.820  34.184  58.690  0.00  0.00    +0.000 N 
ATOM     18  H   UNL     1      53.517  34.821  59.064  0.00  0.00    +0.000 HD
BRANCH  17  19
ATOM     19  C   UNL     1      53.067  33.665  57.406  0.00  0.00    +0.000 A 
ATOM     20  C   UNL     1      52.587  34.386  56.311  0.00  0.00    +0.000 A 
ATOM     21  C   UNL     1      52.799  33.924  55.014  0.00  0.00    +0.000 A 
ATOM     22  C   UNL     1      53.496  32.737  54.821  0.00  0.00    +0.000 A 
ATOM     23  F   UNL     1      53.703  32.291  53.575  0.00  0.00    +0.000 F 
ATOM     24  C   UNL     1      53.983  32.006  55.899  0.00  0.00    +0.000 A 
ATOM     25  C   UNL     1      53.765  32.475  57.192  0.00  0.00    +0.000 A 
ENDBRANCH  17  19
ENDBRANCH  12  15
ENDBRANCH   9  12
ENDBRANCH   2   8
BRANCH   7  26
ATOM     26  O   UNL     1      57.485  35.713  66.028  0.00  0.00    +0.000 OA
BRANCH  26  27
ATOM     27  C   UNL     1      57.452  36.644  67.048  0.00  0.00    +0.000 A 
ATOM     28  C   UNL     1      58.518  37.551  67.150  0.00  0.00    +0.000 A 
ATOM     29  C   UNL     1      58.451  38.531  68.155  0.00  0.00    +0.000 A 
ATOM     30  C   UNL     1      59.633  37.503  66.298  0.00  0.00    +0.000 A 
ATOM     31  N   UNL     1      57.408  38.628  68.995  0.00  0.00    +0.000 NA
ATOM     32  C   UNL     1      59.505  39.425  68.266  0.00  0.00    +0.000 A 
ATOM     33  C   UNL     1      56.395  37.744  68.855  0.00  0.00    +0.000 A 
ATOM     34  C   UNL     1      56.359  36.747  67.902  0.00  0.00    +0.000 A 
ATOM     35  C   UNL     1      60.619  39.384  67.418  0.00  0.00    +0.000 A 
ATOM     36  C   UNL     1      60.687  38.410  66.421  0.00  0.00    +0.000 A 
BRANCH  36  37
ATOM     37  O   UNL     1      61.804  38.406  65.620  0.00  0.00    +0.000 OA
ATOM     38  C   UNL     1      62.732  37.389  65.878  0.00  0.00    +0.000 C 
ENDBRANCH  36  37
BRANCH  35  39
ATOM     39  O   UNL     1      61.675  40.260  67.518  0.00  0.00    +0.000 OA
BRANCH  39  40
ATOM     40  C   UNL     1      62.471  40.065  68.567  0.00  0.00    +0.000 C 
ATOM     41  C   UNL     1      63.387  39.824  69.772  0.00  0.00    +0.000 C 
BRANCH  41  42
ATOM     42  C   UNL     1      64.306  39.578  70.973  0.00  0.00    +0.000 C 
BRANCH  42  43
ATOM     43  N   UNL     1      65.178  39.344  72.115  0.00  0.00    +0.000 N 
ATOM     44  C   UNL     1      66.125  40.500  72.178  0.00  0.00    +0.000 C 
ATOM     45  C   UNL     1      66.194  41.654  73.229  0.00  0.00    +0.000 C 
ATOM     46  O   UNL     1      65.486  41.977  74.334  0.00  0.00    +0.000 OA
ATOM     47  C   UNL     1      64.628  40.938  74.275  0.00  0.00    +0.000 C 
ATOM     48  C   UNL     1      64.400  39.716  73.334  0.00  0.00    +0.000 C 
ENDBRANCH  42  43
ENDBRANCH  41  42
ENDBRANCH  39  40
ENDBRANCH  35  39
ENDBRANCH  26  27
ENDBRANCH   7  26
TORSDOF 11
ENDMDL
MODEL 4
REMARK VINA RESULT:      -7.0      7.651      9.762
REMARK  Name = Foretinib.pdbqt.pdb
REMARK  11 active torsions:
REMARK  status: ('A' for Active; 'I' for Inactive)
REMARK    1  A    between atoms: C_2  and  N_31
REMARK    2  A    between atoms: C_7  and  O_8
REMARK    3  A    between atoms: O_8  and  C_9
REMARK    4  A    between atoms: C_17  and  O_19
REMARK    5  A    between atoms: C_18  and  O_29
REMARK    6  A    between atoms: O_19  and  C_20
REMARK    7  A    between atoms: C_21  and  C_22
REMARK    8  A    between atoms: C_22  and  N_23
REMARK    9  A    between atoms: C_32  and  C_35
REMARK   10  A    between atoms: C_35  and  C_38
REMARK   11  A    between atoms: N_40  and  C_42
REMARK                            x       y       z     vdW  Elec       q    Type
REMARK                         _______ _______ _______ _____ _____    ______ ____
ROOT
ATOM      1  F   UNL     1      61.418  39.529  70.904  0.00  0.00    +0.000 F 
ATOM      2  C   UNL     1      57.843  38.996  70.594  0.00  0.00    +0.000 A 
ATOM      3  C   UNL     1      59.116  39.103  71.154  0.00  0.00    +0.000 A 
ATOM      4  C   UNL     1      57.666  39.248  69.232  0.00  0.00    +0.000 A 
ATOM      5  C   UNL     1      60.196  39.464  70.355  0.00  0.00    +0.000 A 
ATOM      6  C   UNL     1      58.749  39.608  68.432  0.00  0.00    +0.000 A 
ATOM      7  C   UNL     1      60.014  39.740  69.000  0.00  0.00    +0.000 A 
ENDROOT
BRANCH   2   8
ATOM      8  N   UNL     1      56.708  38.635  71.343  0.00  0.00    +0.000 N 
ATOM      9  C   UNL     1      55.677  39.488  71.704  0.00  0.00    +0.000 C 
ATOM     10  O   UNL     1      55.606  40.684  71.451  0.00  0.00    +0.000 OA
ATOM     11  H   UNL     1      56.668  37.676  71.678  0.00  0.00    +0.000 HD
BRANCH   9  12
ATOM     12  C   UNL     1      54.597  38.848  72.526  0.00  0.00    +0.000 C 
ATOM     13  C   UNL     1      54.892  38.554  73.924  0.00  0.00    +0.000 C 
ATOM     14  C   UNL     1      54.791  37.458  72.925  0.00  0.00    +0.000 C 
BRANCH  12  15
ATOM     15  C   UNL     1      53.207  39.303  72.199  0.00  0.00    +0.000 C 
ATOM     16  O   UNL     1      52.451  38.528  71.624  0.00  0.00    +0.000 OA
ATOM     17  N   UNL     1      52.894  40.577  72.641  0.00  0.00    +0.000 N 
ATOM     18  H   UNL     1      53.604  41.089  73.156  0.00  0.00    +0.000 HD
BRANCH  17  19
ATOM     19  C   UNL     1      51.654  41.219  72.469  0.00  0.00    +0.000 A 
ATOM     20  C   UNL     1      50.656  40.969  73.413  0.00  0.00    +0.000 A 
ATOM     21  C   UNL     1      49.407  41.574  73.297  0.00  0.00    +0.000 A 
ATOM     22  C   UNL     1      49.165  42.434  72.232  0.00  0.00    +0.000 A 
ATOM     23  F   UNL     1      47.965  43.020  72.119  0.00  0.00    +0.000 F 
ATOM     24  C   UNL     1      50.147  42.698  71.284  0.00  0.00    +0.000 A 
ATOM     25  C   UNL     1      51.392  42.087  71.407  0.00  0.00    +0.000 A 
ENDBRANCH  17  19
ENDBRANCH  12  15
ENDBRANCH   9  12
ENDBRANCH   2   8
BRANCH   7  26
ATOM     26  O   UNL     1      61.054  40.034  68.152  0.00  0.00    +0.000 OA
BRANCH  26  27
ATOM     27  C   UNL     1      61.830  38.978  67.717  0.00  0.00    +0.000 A 
ATOM     28  C   UNL     1      63.178  38.943  68.107  0.00  0.00    +0.000 A 
ATOM     29  C   UNL     1      63.948  37.837  67.708  0.00  0.00    +0.000 A 
ATOM     30  C   UNL     1      63.770  39.966  68.865  0.00  0.00    +0.000 A 
ATOM     31  N   UNL     1      63.435  36.828  66.987  0.00  0.00    +0.000 NA
ATOM     32  C   UNL     1      65.282  37.801  68.084  0.00  0.00    +0.000 A 
ATOM     33  C   UNL     1      62.129  36.892  66.642  0.00  0.00    +0.000 A 
ATOM     34  C   UNL     1      61.285  37.929  66.985  0.00  0.00    +0.000 A 
ATOM     35  C   UNL     1      65.878  38.818  68.842  0.00  0.00    +0.000 A 
ATOM     36  C   UNL     1      65.114  39.916  69.237  0.00  0.00    +0.000 A 
BRANCH  36  37
ATOM     37  O   UNL     1      65.747  40.890  69.973  0.00  0.00    +0.000 OA
ATOM     38  C   UNL     1      65.137  41.224  71.189  0.00  0.00    +0.000 C 
ENDBRANCH  36  37
BRANCH  35  39
ATOM     39  O   UNL     1      67.200  38.800  69.219  0.00  0.00    +0.000 OA
BRANCH  39  40
ATOM     40  C   UNL     1      68.072  38.779  68.214  0.00  0.00    +0.000 C 
ATOM     41  C   UNL     1      69.068  38.769  67.048  0.00  0.00    +0.000 C 
BRANCH  41  42
ATOM     42  C   UNL     1      70.064  38.765  65.884  0.00  0.00    +0.000 C 
BRANCH  42  43
ATOM     43  N   UNL     1      71.011  38.762  64.778  0.00  0.00    +0.000 N 
ATOM     44  C   UNL     1      70.234  38.425  63.546  0.00  0.00    +0.000 C 
ATOM     45  C   UNL     1      69.869  39.342  62.334  0.00  0.00    +0.000 C 
ATOM     46  O   UNL     1      70.102  40.635  62.017  0.00  0.00    +0.000 OA
ATOM     47  C   UNL     1      70.798  40.942  63.131  0.00  0.00    +0.000 C 
ATOM     48  C   UNL     1      71.257  40.191  64.418  0.00  0.00    +0.000 C 
ENDBRANCH  42  43
ENDBRANCH  41  42
ENDBRANCH  39  40
ENDBRANCH  35  39
ENDBRANCH  26  27
ENDBRANCH   7  26
TORSDOF 11
ENDMDL
MODEL 5
REMARK VINA RESULT:      -7.0     10.345     17.021
REMARK  Name = Foretinib.pdbqt.pdb
REMARK  11 active torsions:
REMARK  status: ('A' for Active; 'I' for Inactive)
REMARK    1  A    between atoms: C_2  and  N_31
REMARK    2  A    between atoms: C_7  and  O_8
REMARK    3  A    between atoms: O_8  and  C_9
REMARK    4  A    between atoms: C_17  and  O_19
REMARK    5  A    between atoms: C_18  and  O_29
REMARK    6  A    between atoms: O_19  and  C_20
REMARK    7  A    between atoms: C_21  and  C_22
REMARK    8  A    between atoms: C_22  and  N_23
REMARK    9  A    between atoms: C_32  and  C_35
REMARK   10  A    between atoms: C_35  and  C_38
REMARK   11  A    between atoms: N_40  and  C_42
REMARK                            x       y       z     vdW  Elec       q    Type
REMARK                         _______ _______ _______ _____ _____    ______ ____
ROOT
ATOM      1  F   UNL     1      48.748  39.987  71.154  0.00  0.00    +0.000 F 
ATOM      2  C   UNL     1      52.235  40.471  72.033  0.00  0.00    +0.000 A 
ATOM      3  C   UNL     1      51.016  39.845  71.772  0.00  0.00    +0.000 A 
ATOM      4  C   UNL     1      52.342  41.856  71.890  0.00  0.00    +0.000 A 
ATOM      5  C   UNL     1      49.920  40.602  71.368  0.00  0.00    +0.000 A 
ATOM      6  C   UNL     1      51.244  42.614  71.487  0.00  0.00    +0.000 A 
ATOM      7  C   UNL     1      50.036  41.982  71.201  0.00  0.00    +0.000 A 
ENDROOT
BRANCH   2   8
ATOM      8  N   UNL     1      53.381  39.767  72.446  0.00  0.00    +0.000 N 
ATOM      9  C   UNL     1      54.423  39.374  71.622  0.00  0.00    +0.000 C 
ATOM     10  O   UNL     1      54.497  39.553  70.413  0.00  0.00    +0.000 OA
ATOM     11  H   UNL     1      53.421  39.493  73.423  0.00  0.00    +0.000 HD
BRANCH   9  12
ATOM     12  C   UNL     1      55.514  38.613  72.317  0.00  0.00    +0.000 C 
ATOM     13  C   UNL     1      55.121  37.580  73.269  0.00  0.00    +0.000 C 
ATOM     14  C   UNL     1      55.704  38.862  73.742  0.00  0.00    +0.000 C 
BRANCH  12  15
ATOM     15  C   UNL     1      56.726  38.346  71.477  0.00  0.00    +0.000 C 
ATOM     16  O   UNL     1      56.974  37.192  71.147  0.00  0.00    +0.000 OA
ATOM     17  N   UNL     1      57.436  39.476  71.106  0.00  0.00    +0.000 N 
ATOM     18  H   UNL     1      57.082  40.379  71.406  0.00  0.00    +0.000 HD
BRANCH  17  19
ATOM     19  C   UNL     1      58.596  39.486  70.311  0.00  0.00    +0.000 A 
ATOM     20  C   UNL     1      59.826  39.333  70.954  0.00  0.00    +0.000 A 
ATOM     21  C   UNL     1      61.011  39.335  70.222  0.00  0.00    +0.000 A 
ATOM     22  C   UNL     1      60.957  39.490  68.841  0.00  0.00    +0.000 A 
ATOM     23  F   UNL     1      62.094  39.490  68.134  0.00  0.00    +0.000 F 
ATOM     24  C   UNL     1      59.742  39.641  68.183  0.00  0.00    +0.000 A 
ATOM     25  C   UNL     1      58.562  39.639  68.923  0.00  0.00    +0.000 A 
ENDBRANCH  17  19
ENDBRANCH  12  15
ENDBRANCH   9  12
ENDBRANCH   2   8
BRANCH   7  26
ATOM     26  O   UNL     1      48.972  42.785  70.871  0.00  0.00    +0.000 OA
BRANCH  26  27
ATOM     27  C   UNL     1      47.978  42.937  71.818  0.00  0.00    +0.000 A 
ATOM     28  C   UNL     1      46.643  42.838  71.397  0.00  0.00    +0.000 A 
ATOM     29  C   UNL     1      45.638  42.938  72.376  0.00  0.00    +0.000 A 
ATOM     30  C   UNL     1      46.288  42.653  70.052  0.00  0.00    +0.000 A 
ATOM     31  N   UNL     1      45.918  43.110  73.677  0.00  0.00    +0.000 NA
ATOM     32  C   UNL     1      44.317  42.848  71.965  0.00  0.00    +0.000 A 
ATOM     33  C   UNL     1      47.217  43.187  74.043  0.00  0.00    +0.000 A 
ATOM     34  C   UNL     1      48.278  43.097  73.166  0.00  0.00    +0.000 A 
ATOM     35  C   UNL     1      43.956  42.662  70.624  0.00  0.00    +0.000 A 
ATOM     36  C   UNL     1      44.954  42.564  69.653  0.00  0.00    +0.000 A 
BRANCH  36  37
ATOM     37  O   UNL     1      44.548  42.389  68.351  0.00  0.00    +0.000 OA
ATOM     38  C   UNL     1      45.153  41.328  67.665  0.00  0.00    +0.000 C 
ENDBRANCH  36  37
BRANCH  35  39
ATOM     39  O   UNL     1      42.651  42.576  70.199  0.00  0.00    +0.000 OA
BRANCH  39  40
ATOM     40  C   UNL     1      41.818  43.449  70.761  0.00  0.00    +0.000 C 
ATOM     41  C   UNL     1      40.867  44.467  71.400  0.00  0.00    +0.000 C 
BRANCH  41  42
ATOM     42  C   UNL     1      39.916  45.489  72.032  0.00  0.00    +0.000 C 
BRANCH  42  43
ATOM     43  N   UNL     1      39.013  46.460  72.634  0.00  0.00    +0.000 N 
ATOM     44  C   UNL     1      39.508  47.813  72.235  0.00  0.00    +0.000 C 
ATOM     45  C   UNL     1      38.862  48.843  71.253  0.00  0.00    +0.000 C 
ATOM     46  O   UNL     1      37.745  48.860  70.494  0.00  0.00    +0.000 OA
ATOM     47  C   UNL     1      37.300  47.637  70.848  0.00  0.00    +0.000 C 
ATOM     48  C   UNL     1      37.784  46.489  71.785  0.00  0.00    +0.000 C 
ENDBRANCH  42  43
ENDBRANCH  41  42
ENDBRANCH  39  40
ENDBRANCH  35  39
ENDBRANCH  26  27
ENDBRANCH   7  26
TORSDOF 11
ENDMDL
MODEL 6
REMARK VINA RESULT:      -7.0     22.193     25.682
REMARK  Name = Foretinib.pdbqt.pdb
REMARK  11 active torsions:
REMARK  status: ('A' for Active; 'I' for Inactive)
REMARK    1  A    between atoms: C_2  and  N_31
REMARK    2  A    between atoms: C_7  and  O_8
REMARK    3  A    between atoms: O_8  and  C_9
REMARK    4  A    between atoms: C_17  and  O_19
REMARK    5  A    between atoms: C_18  and  O_29
REMARK    6  A    between atoms: O_19  and  C_20
REMARK    7  A    between atoms: C_21  and  C_22
REMARK    8  A    between atoms: C_22  and  N_23
REMARK    9  A    between atoms: C_32  and  C_35
REMARK   10  A    between atoms: C_35  and  C_38
REMARK   11  A    between atoms: N_40  and  C_42
REMARK                            x       y       z     vdW  Elec       q    Type
REMARK                         _______ _______ _______ _____ _____    ______ ____
ROOT
ATOM      1  F   UNL     1      46.492  51.293  82.072  0.00  0.00    +0.000 F 
ATOM      2  C   UNL     1      49.772  51.103  83.613  0.00  0.00    +0.000 A 
ATOM      3  C   UNL     1      48.480  50.757  83.216  0.00  0.00    +0.000 A 
ATOM      4  C   UNL     1      50.314  52.324  83.206  0.00  0.00    +0.000 A 
ATOM      5  C   UNL     1      47.745  51.627  82.416  0.00  0.00    +0.000 A 
ATOM      6  C   UNL     1      49.577  53.195  82.406  0.00  0.00    +0.000 A 
ATOM      7  C   UNL     1      48.297  52.834  81.989  0.00  0.00    +0.000 A 
ENDROOT
BRANCH   2   8
ATOM      8  N   UNL     1      50.569  50.272  84.422  0.00  0.00    +0.000 N 
ATOM      9  C   UNL     1      51.387  49.252  83.966  0.00  0.00    +0.000 C 
ATOM     10  O   UNL     1      51.523  48.899  82.801  0.00  0.00    +0.000 OA
ATOM     11  H   UNL     1      50.503  50.413  85.426  0.00  0.00    +0.000 HD
BRANCH   9  12
ATOM     12  C   UNL     1      52.112  48.504  85.047  0.00  0.00    +0.000 C 
ATOM     13  C   UNL     1      51.846  47.076  85.180  0.00  0.00    +0.000 C 
ATOM     14  C   UNL     1      51.327  48.040  86.185  0.00  0.00    +0.000 C 
BRANCH  12  15
ATOM     15  C   UNL     1      53.516  48.967  85.297  0.00  0.00    +0.000 C 
ATOM     16  O   UNL     1      54.149  48.464  86.218  0.00  0.00    +0.000 OA
ATOM     17  N   UNL     1      53.985  49.910  84.399  0.00  0.00    +0.000 N 
ATOM     18  H   UNL     1      53.367  50.199  83.646  0.00  0.00    +0.000 HD
BRANCH  17  19
ATOM     19  C   UNL     1      55.269  50.486  84.415  0.00  0.00    +0.000 A 
ATOM     20  C   UNL     1      55.357  51.878  84.356  0.00  0.00    +0.000 A 
ATOM     21  C   UNL     1      56.600  52.508  84.369  0.00  0.00    +0.000 A 
ATOM     22  C   UNL     1      57.753  51.734  84.442  0.00  0.00    +0.000 A 
ATOM     23  F   UNL     1      58.949  52.337  84.457  0.00  0.00    +0.000 F 
ATOM     24  C   UNL     1      57.684  50.347  84.504  0.00  0.00    +0.000 A 
ATOM     25  C   UNL     1      56.438  49.726  84.490  0.00  0.00    +0.000 A 
ENDBRANCH  17  19
ENDBRANCH  12  15
ENDBRANCH   9  12
ENDBRANCH   2   8
BRANCH   7  26
ATOM     26  O   UNL     1      47.593  53.758  81.257  0.00  0.00    +0.000 OA
BRANCH  26  27
ATOM     27  C   UNL     1      47.972  53.942  79.941  0.00  0.00    +0.000 A 
ATOM     28  C   UNL     1      48.576  55.160  79.591  0.00  0.00    +0.000 A 
ATOM     29  C   UNL     1      49.010  55.318  78.263  0.00  0.00    +0.000 A 
ATOM     30  C   UNL     1      48.748  56.207  80.509  0.00  0.00    +0.000 A 
ATOM     31  N   UNL     1      48.876  54.350  77.344  0.00  0.00    +0.000 NA
ATOM     32  C   UNL     1      49.600  56.522  77.910  0.00  0.00    +0.000 A 
ATOM     33  C   UNL     1      48.302  53.186  77.725  0.00  0.00    +0.000 A 
ATOM     34  C   UNL     1      47.845  52.926  79.000  0.00  0.00    +0.000 A 
ATOM     35  C   UNL     1      49.777  57.571  78.822  0.00  0.00    +0.000 A 
ATOM     36  C   UNL     1      49.344  57.414  80.139  0.00  0.00    +0.000 A 
BRANCH  36  37
ATOM     37  O   UNL     1      49.533  58.474  80.993  0.00  0.00    +0.000 OA
ATOM     38  C   UNL     1      48.386  58.934  81.654  0.00  0.00    +0.000 C 
ENDBRANCH  36  37
BRANCH  35  39
ATOM     39  O   UNL     1      50.355  58.772  78.486  0.00  0.00    +0.000 OA
BRANCH  39  40
ATOM     40  C   UNL     1      51.545  58.997  79.037  0.00  0.00    +0.000 C 
ATOM     41  C   UNL     1      52.919  59.239  79.673  0.00  0.00    +0.000 C 
BRANCH  41  42
ATOM     42  C   UNL     1      54.295  59.476  80.305  0.00  0.00    +0.000 C 
BRANCH  42  43
ATOM     43  N   UNL     1      55.601  59.700  80.907  0.00  0.00    +0.000 N 
ATOM     44  C   UNL     1      55.360  60.336  82.238  0.00  0.00    +0.000 C 
ATOM     45  C   UNL     1      55.566  59.732  83.665  0.00  0.00    +0.000 C 
ATOM     46  O   UNL     1      55.987  58.539  84.140  0.00  0.00    +0.000 OA
ATOM     47  C   UNL     1      56.199  57.962  82.940  0.00  0.00    +0.000 C 
ATOM     48  C   UNL     1      56.059  58.384  81.445  0.00  0.00    +0.000 C 
ENDBRANCH  42  43
ENDBRANCH  41  42
ENDBRANCH  39  40
ENDBRANCH  35  39
ENDBRANCH  26  27
ENDBRANCH   7  26
TORSDOF 11
ENDMDL
MODEL 7
REMARK VINA RESULT:      -6.8      8.981     13.227
REMARK  Name = Foretinib.pdbqt.pdb
REMARK  11 active torsions:
REMARK  status: ('A' for Active; 'I' for Inactive)
REMARK    1  A    between atoms: C_2  and  N_31
REMARK    2  A    between atoms: C_7  and  O_8
REMARK    3  A    between atoms: O_8  and  C_9
REMARK    4  A    between atoms: C_17  and  O_19
REMARK    5  A    between atoms: C_18  and  O_29
REMARK    6  A    between atoms: O_19  and  C_20
REMARK    7  A    between atoms: C_21  and  C_22
REMARK    8  A    between atoms: C_22  and  N_23
REMARK    9  A    between atoms: C_32  and  C_35
REMARK   10  A    between atoms: C_35  and  C_38
REMARK   11  A    between atoms: N_40  and  C_42
REMARK                            x       y       z     vdW  Elec       q    Type
REMARK                         _______ _______ _______ _____ _____    ______ ____
ROOT
ATOM      1  F   UNL     1      44.810  33.744  63.852  0.00  0.00    +0.000 F 
ATOM      2  C   UNL     1      47.776  35.744  63.246  0.00  0.00    +0.000 A 
ATOM      3  C   UNL     1      46.925  34.642  63.339  0.00  0.00    +0.000 A 
ATOM      4  C   UNL     1      47.292  37.016  63.558  0.00  0.00    +0.000 A 
ATOM      5  C   UNL     1      45.604  34.819  63.736  0.00  0.00    +0.000 A 
ATOM      6  C   UNL     1      45.969  37.192  63.958  0.00  0.00    +0.000 A 
ATOM      7  C   UNL     1      45.115  36.093  64.023  0.00  0.00    +0.000 A 
ENDROOT
BRANCH   2   8
ATOM      8  N   UNL     1      49.123  35.636  62.852  0.00  0.00    +0.000 N 
ATOM      9  C   UNL     1      50.195  35.430  63.704  0.00  0.00    +0.000 C 
ATOM     10  O   UNL     1      50.143  35.335  64.923  0.00  0.00    +0.000 OA
ATOM     11  H   UNL     1      49.321  35.762  61.863  0.00  0.00    +0.000 HD
BRANCH   9  12
ATOM     12  C   UNL     1      51.531  35.379  63.022  0.00  0.00    +0.000 C 
ATOM     13  C   UNL     1      52.674  34.913  63.801  0.00  0.00    +0.000 C 
ATOM     14  C   UNL     1      52.537  36.349  63.441  0.00  0.00    +0.000 C 
BRANCH  12  15
ATOM     15  C   UNL     1      51.483  34.989  61.575  0.00  0.00    +0.000 C 
ATOM     16  O   UNL     1      50.833  34.002  61.251  0.00  0.00    +0.000 OA
ATOM     17  N   UNL     1      52.159  35.843  60.721  0.00  0.00    +0.000 N 
ATOM     18  H   UNL     1      52.611  36.659  61.123  0.00  0.00    +0.000 HD
BRANCH  17  19
ATOM     19  C   UNL     1      52.248  35.699  59.324  0.00  0.00    +0.000 A 
ATOM     20  C   UNL     1      53.171  34.779  58.823  0.00  0.00    +0.000 A 
ATOM     21  C   UNL     1      53.306  34.591  57.450  0.00  0.00    +0.000 A 
ATOM     22  C   UNL     1      52.509  35.329  56.581  0.00  0.00    +0.000 A 
ATOM     23  F   UNL     1      52.635  35.149  55.260  0.00  0.00    +0.000 F 
ATOM     24  C   UNL     1      51.583  36.248  57.062  0.00  0.00    +0.000 A 
ATOM     25  C   UNL     1      51.456  36.430  58.436  0.00  0.00    +0.000 A 
ENDBRANCH  17  19
ENDBRANCH  12  15
ENDBRANCH   9  12
ENDBRANCH   2   8
BRANCH   7  26
ATOM     26  O   UNL     1      43.841  36.316  64.485  0.00  0.00    +0.000 OA
BRANCH  26  27
ATOM     27  C   UNL     1      43.673  36.419  65.852  0.00  0.00    +0.000 A 
ATOM     28  C   UNL     1      43.332  37.672  66.384  0.00  0.00    +0.000 A 
ATOM     29  C   UNL     1      43.107  37.757  67.769  0.00  0.00    +0.000 A 
ATOM     30  C   UNL     1      43.217  38.823  65.588  0.00  0.00    +0.000 A 
ATOM     31  N   UNL     1      43.197  36.690  68.577  0.00  0.00    +0.000 NA
ATOM     32  C   UNL     1      42.777  38.995  68.301  0.00  0.00    +0.000 A 
ATOM     33  C   UNL     1      43.516  35.498  68.024  0.00  0.00    +0.000 A 
ATOM     34  C   UNL     1      43.752  35.304  66.679  0.00  0.00    +0.000 A 
ATOM     35  C   UNL     1      42.659  40.146  67.512  0.00  0.00    +0.000 A 
ATOM     36  C   UNL     1      42.883  40.062  66.137  0.00  0.00    +0.000 A 
BRANCH  36  37
ATOM     37  O   UNL     1      42.763  41.221  65.408  0.00  0.00    +0.000 OA
ATOM     38  C   UNL     1      41.905  41.156  64.302  0.00  0.00    +0.000 C 
ENDBRANCH  36  37
BRANCH  35  39
ATOM     39  O   UNL     1      42.337  41.381  68.025  0.00  0.00    +0.000 OA
BRANCH  39  40
ATOM     40  C   UNL     1      43.319  41.990  68.685  0.00  0.00    +0.000 C 
ATOM     41  C   UNL     1      44.446  42.682  69.459  0.00  0.00    +0.000 C 
BRANCH  41  42
ATOM     42  C   UNL     1      45.574  43.368  70.237  0.00  0.00    +0.000 C 
BRANCH  42  43
ATOM     43  N   UNL     1      46.648  44.019  70.975  0.00  0.00    +0.000 N 
ATOM     44  C   UNL     1      46.113  44.318  72.338  0.00  0.00    +0.000 C 
ATOM     45  C   UNL     1      46.495  43.664  73.706  0.00  0.00    +0.000 C 
ATOM     46  O   UNL     1      47.352  42.691  74.088  0.00  0.00    +0.000 OA
ATOM     47  C   UNL     1      47.830  42.417  72.857  0.00  0.00    +0.000 C 
ATOM     48  C   UNL     1      47.587  42.942  71.409  0.00  0.00    +0.000 C 
ENDBRANCH  42  43
ENDBRANCH  41  42
ENDBRANCH  39  40
ENDBRANCH  35  39
ENDBRANCH  26  27
ENDBRANCH   7  26
TORSDOF 11
ENDMDL
MODEL 8
REMARK VINA RESULT:      -6.7     18.914     25.407
REMARK  Name = Foretinib.pdbqt.pdb
REMARK  11 active torsions:
REMARK  status: ('A' for Active; 'I' for Inactive)
REMARK    1  A    between atoms: C_2  and  N_31
REMARK    2  A    between atoms: C_7  and  O_8
REMARK    3  A    between atoms: O_8  and  C_9
REMARK    4  A    between atoms: C_17  and  O_19
REMARK    5  A    between atoms: C_18  and  O_29
REMARK    6  A    between atoms: O_19  and  C_20
REMARK    7  A    between atoms: C_21  and  C_22
REMARK    8  A    between atoms: C_22  and  N_23
REMARK    9  A    between atoms: C_32  and  C_35
REMARK   10  A    between atoms: C_35  and  C_38
REMARK   11  A    between atoms: N_40  and  C_42
REMARK                            x       y       z     vdW  Elec       q    Type
REMARK                         _______ _______ _______ _____ _____    ______ ____
ROOT
ATOM      1  F   UNL     1      64.620  60.244  58.341  0.00  0.00    +0.000 F 
ATOM      2  C   UNL     1      66.493  59.380  61.326  0.00  0.00    +0.000 A 
ATOM      3  C   UNL     1      66.010  60.106  60.237  0.00  0.00    +0.000 A 
ATOM      4  C   UNL     1      66.009  58.092  61.565  0.00  0.00    +0.000 A 
ATOM      5  C   UNL     1      65.049  59.545  59.402  0.00  0.00    +0.000 A 
ATOM      6  C   UNL     1      65.047  57.530  60.727  0.00  0.00    +0.000 A 
ATOM      7  C   UNL     1      64.547  58.268  59.657  0.00  0.00    +0.000 A 
ENDROOT
BRANCH   2   8
ATOM      8  N   UNL     1      67.466  59.885  62.208  0.00  0.00    +0.000 N 
ATOM      9  C   UNL     1      67.219  60.378  63.479  0.00  0.00    +0.000 C 
ATOM     10  O   UNL     1      66.124  60.475  64.018  0.00  0.00    +0.000 OA
ATOM     11  H   UNL     1      68.420  59.925  61.862  0.00  0.00    +0.000 HD
BRANCH   9  12
ATOM     12  C   UNL     1      68.437  60.879  64.200  0.00  0.00    +0.000 C 
ATOM     13  C   UNL     1      68.269  61.998  65.120  0.00  0.00    +0.000 C 
ATOM     14  C   UNL     1      68.956  62.186  63.816  0.00  0.00    +0.000 C 
BRANCH  12  15
ATOM     15  C   UNL     1      69.418  59.813  64.588  0.00  0.00    +0.000 C 
ATOM     16  O   UNL     1      70.121  59.313  63.717  0.00  0.00    +0.000 OA
ATOM     17  N   UNL     1      69.465  59.532  65.942  0.00  0.00    +0.000 N 
ATOM     18  H   UNL     1      68.862  60.066  66.560  0.00  0.00    +0.000 HD
BRANCH  17  19
ATOM     19  C   UNL     1      70.311  58.586  66.551  0.00  0.00    +0.000 A 
ATOM     20  C   UNL     1      71.487  59.052  67.143  0.00  0.00    +0.000 A 
ATOM     21  C   UNL     1      72.365  58.165  67.761  0.00  0.00    +0.000 A 
ATOM     22  C   UNL     1      72.057  56.809  67.784  0.00  0.00    +0.000 A 
ATOM     23  F   UNL     1      72.898  55.954  68.380  0.00  0.00    +0.000 F 
ATOM     24  C   UNL     1      70.890  56.328  67.203  0.00  0.00    +0.000 A 
ATOM     25  C   UNL     1      70.019  57.222  66.586  0.00  0.00    +0.000 A 
ENDBRANCH  17  19
ENDBRANCH  12  15
ENDBRANCH   9  12
ENDBRANCH   2   8
BRANCH   7  26
ATOM     26  O   UNL     1      63.649  57.641  58.829  0.00  0.00    +0.000 OA
BRANCH  26  27
ATOM     27  C   UNL     1      62.401  57.359  59.349  0.00  0.00    +0.000 A 
ATOM     28  C   UNL     1      62.023  56.012  59.466  0.00  0.00    +0.000 A 
ATOM     29  C   UNL     1      60.775  55.731  60.049  0.00  0.00    +0.000 A 
ATOM     30  C   UNL     1      62.836  54.959  59.020  0.00  0.00    +0.000 A 
ATOM     31  N   UNL     1      59.958  56.696  60.498  0.00  0.00    +0.000 NA
ATOM     32  C   UNL     1      60.393  54.402  60.160  0.00  0.00    +0.000 A 
ATOM     33  C   UNL     1      60.364  57.980  60.379  0.00  0.00    +0.000 A 
ATOM     34  C   UNL     1      61.569  58.365  59.827  0.00  0.00    +0.000 A 
ATOM     35  C   UNL     1      61.201  53.347  59.718  0.00  0.00    +0.000 A 
ATOM     36  C   UNL     1      62.439  53.627  59.139  0.00  0.00    +0.000 A 
BRANCH  36  37
ATOM     37  O   UNL     1      63.191  52.557  58.715  0.00  0.00    +0.000 OA
ATOM     38  C   UNL     1      64.449  52.423  59.318  0.00  0.00    +0.000 C 
ENDBRANCH  36  37
BRANCH  35  39
ATOM     39  O   UNL     1      60.834  52.025  59.817  0.00  0.00    +0.000 OA
BRANCH  39  40
ATOM     40  C   UNL     1      59.819  51.662  59.036  0.00  0.00    +0.000 C 
ATOM     41  C   UNL     1      58.659  51.250  58.123  0.00  0.00    +0.000 C 
BRANCH  41  42
ATOM     42  C   UNL     1      57.504  50.836  57.206  0.00  0.00    +0.000 C 
BRANCH  42  43
ATOM     43  N   UNL     1      56.407  50.442  56.333  0.00  0.00    +0.000 N 
ATOM     44  C   UNL     1      56.709  49.056  55.861  0.00  0.00    +0.000 C 
ATOM     45  C   UNL     1      55.993  47.716  56.229  0.00  0.00    +0.000 C 
ATOM     46  O   UNL     1      54.958  47.381  57.030  0.00  0.00    +0.000 OA
ATOM     47  C   UNL     1      54.688  48.630  57.462  0.00  0.00    +0.000 C 
ATOM     48  C   UNL     1      55.268  50.057  57.220  0.00  0.00    +0.000 C 
ENDBRANCH  42  43
ENDBRANCH  41  42
ENDBRANCH  39  40
ENDBRANCH  35  39
ENDBRANCH  26  27
ENDBRANCH   7  26
TORSDOF 11
ENDMDL
MODEL 9
REMARK VINA RESULT:      -6.5     41.594     47.320
REMARK  Name = Foretinib.pdbqt.pdb
REMARK  11 active torsions:
REMARK  status: ('A' for Active; 'I' for Inactive)
REMARK    1  A    between atoms: C_2  and  N_31
REMARK    2  A    between atoms: C_7  and  O_8
REMARK    3  A    between atoms: O_8  and  C_9
REMARK    4  A    between atoms: C_17  and  O_19
REMARK    5  A    between atoms: C_18  and  O_29
REMARK    6  A    between atoms: O_19  and  C_20
REMARK    7  A    between atoms: C_21  and  C_22
REMARK    8  A    between atoms: C_22  and  N_23
REMARK    9  A    between atoms: C_32  and  C_35
REMARK   10  A    between atoms: C_35  and  C_38
REMARK   11  A    between atoms: N_40  and  C_42
REMARK                            x       y       z     vdW  Elec       q    Type
REMARK                         _______ _______ _______ _____ _____    ______ ____
ROOT
ATOM      1  F   UNL     1      61.722  78.134  95.216  0.00  0.00    +0.000 F 
ATOM      2  C   UNL     1      61.073  76.442  92.072  0.00  0.00    +0.000 A 
ATOM      3  C   UNL     1      61.016  77.387  93.097  0.00  0.00    +0.000 A 
ATOM      4  C   UNL     1      61.929  75.345  92.194  0.00  0.00    +0.000 A 
ATOM      5  C   UNL     1      61.814  77.233  94.226  0.00  0.00    +0.000 A 
ATOM      6  C   UNL     1      62.727  75.191  93.326  0.00  0.00    +0.000 A 
ATOM      7  C   UNL     1      62.688  76.151  94.334  0.00  0.00    +0.000 A 
ENDROOT
BRANCH   2   8
ATOM      8  N   UNL     1      60.293  76.535  90.905  0.00  0.00    +0.000 N 
ATOM      9  C   UNL     1      60.478  77.455  89.886  0.00  0.00    +0.000 C 
ATOM     10  O   UNL     1      61.325  78.339  89.854  0.00  0.00    +0.000 OA
ATOM     11  H   UNL     1      59.506  75.897  90.830  0.00  0.00    +0.000 HD
BRANCH   9  12
ATOM     12  C   UNL     1      59.487  77.349  88.764  0.00  0.00    +0.000 C 
ATOM     13  C   UNL     1      59.720  78.160  87.574  0.00  0.00    +0.000 C 
ATOM     14  C   UNL     1      58.624  78.499  88.518  0.00  0.00    +0.000 C 
BRANCH  12  15
ATOM     15  C   UNL     1      58.915  75.978  88.559  0.00  0.00    +0.000 C 
ATOM     16  O   UNL     1      57.867  75.685  89.123  0.00  0.00    +0.000 OA
ATOM     17  N   UNL     1      59.628  75.176  87.684  0.00  0.00    +0.000 N 
ATOM     18  H   UNL     1      60.453  75.570  87.243  0.00  0.00    +0.000 HD
BRANCH  17  19
ATOM     19  C   UNL     1      59.287  73.860  87.321  0.00  0.00    +0.000 A 
ATOM     20  C   UNL     1      59.775  72.820  88.114  0.00  0.00    +0.000 A 
ATOM     21  C   UNL     1      59.472  71.496  87.806  0.00  0.00    +0.000 A 
ATOM     22  C   UNL     1      58.676  71.220  86.700  0.00  0.00    +0.000 A 
ATOM     23  F   UNL     1      58.382  69.948  86.402  0.00  0.00    +0.000 F 
ATOM     24  C   UNL     1      58.179  72.243  85.900  0.00  0.00    +0.000 A 
ATOM     25  C   UNL     1      58.488  73.564  86.215  0.00  0.00    +0.000 A 
ENDBRANCH  17  19
ENDBRANCH  12  15
ENDBRANCH   9  12
ENDBRANCH   2   8
BRANCH   7  26
ATOM     26  O   UNL     1      63.447  75.915  95.454  0.00  0.00    +0.000 OA
BRANCH  26  27
ATOM     27  C   UNL     1      64.755  76.357  95.434  0.00  0.00    +0.000 A 
ATOM     28  C   UNL     1      65.778  75.399  95.519  0.00  0.00    +0.000 A 
ATOM     29  C   UNL     1      67.107  75.851  95.441  0.00  0.00    +0.000 A 
ATOM     30  C   UNL     1      65.517  74.030  95.683  0.00  0.00    +0.000 A 
ATOM     31  N   UNL     1      67.417  77.147  95.280  0.00  0.00    +0.000 NA
ATOM     32  C   UNL     1      68.122  74.910  95.532  0.00  0.00    +0.000 A 
ATOM     33  C   UNL     1      66.402  78.036  95.189  0.00  0.00    +0.000 A 
ATOM     34  C   UNL     1      65.066  77.699  95.249  0.00  0.00    +0.000 A 
ATOM     35  C   UNL     1      67.868  73.542  95.693  0.00  0.00    +0.000 A 
ATOM     36  C   UNL     1      66.548  73.094  95.771  0.00  0.00    +0.000 A 
BRANCH  36  37
ATOM     37  O   UNL     1      66.352  71.743  95.937  0.00  0.00    +0.000 OA
ATOM     38  C   UNL     1      65.072  71.364  96.364  0.00  0.00    +0.000 C 
ENDBRANCH  36  37
BRANCH  35  39
ATOM     39  O   UNL     1      68.862  72.597  95.789  0.00  0.00    +0.000 OA
BRANCH  39  40
ATOM     40  C   UNL     1      70.079  73.082  96.025  0.00  0.00    +0.000 C 
ATOM     41  C   UNL     1      71.473  73.657  96.297  0.00  0.00    +0.000 C 
BRANCH  41  42
ATOM     42  C   UNL     1      72.865  74.236  96.574  0.00  0.00    +0.000 C 
BRANCH  42  43
ATOM     43  N   UNL     1      74.186  74.787  96.838  0.00  0.00    +0.000 N 
ATOM     44  C   UNL     1      75.052  73.645  97.263  0.00  0.00    +0.000 C 
ATOM     45  C   UNL     1      76.236  72.973  96.496  0.00  0.00    +0.000 C 
ATOM     46  O   UNL     1      76.824  73.170  95.295  0.00  0.00    +0.000 OA
ATOM     47  C   UNL     1      76.040  74.196  94.908  0.00  0.00    +0.000 C 
ATOM     48  C   UNL     1      74.841  74.990  95.511  0.00  0.00    +0.000 C 
ENDBRANCH  42  43
ENDBRANCH  41  42
ENDBRANCH  39  40
ENDBRANCH  35  39
ENDBRANCH  26  27
ENDBRANCH   7  26
TORSDOF 11
ENDMDL
