MODEL 1
REMARK VINA RESULT:      -5.0      0.000      0.000
REMARK  Name = 
REMARK  7 active torsions:
REMARK  status: ('A' for Active; 'I' for Inactive)
REMARK    1  A    between atoms: S_1  and  O_3
REMARK    2  A    between atoms: S_1  and  O_6
REMARK    3  A    between atoms: O_3  and  C_9
REMARK    4  A    between atoms: O_4  and  C_10
REMARK    5  A    between atoms: O_5  and  C_11
REMARK    6  A    between atoms: C_12  and  C_14
REMARK    7  A    between atoms: C_13  and  C_15
REMARK                            x       y       z     vdW  Elec       q    Type
REMARK                         _______ _______ _______ _____ _____    ______ ____
ROOT
ATOM      1  O   UNL     1      63.295  39.565  52.983  0.00  0.00    +0.000 OA
ATOM      2  C   UNL     1      61.939  38.405  54.664  0.00  0.00    +0.000 C 
ATOM      3  C   UNL     1      61.397  39.760  55.139  0.00  0.00    +0.000 C 
ATOM      4  C   UNL     1      62.389  40.891  54.830  0.00  0.00    +0.000 C 
ATOM      5  C   UNL     1      62.343  38.512  53.182  0.00  0.00    +0.000 C 
ATOM      6  C   UNL     1      62.787  40.856  53.348  0.00  0.00    +0.000 C 
ATOM      7  C   UNL     1      62.980  37.225  52.670  0.00  0.00    +0.000 C 
ATOM      8  C   UNL     1      63.872  41.881  53.036  0.00  0.00    +0.000 C 
ENDROOT
BRANCH   3   9
ATOM      9  O   UNL     1      61.121  39.793  56.548  0.00  0.00    +0.000 OA
ATOM     10  H   UNL     1      61.548  40.583  56.940  0.00  0.00    +0.000 HD
ENDBRANCH   3   9
BRANCH   4  11
ATOM     11  O   UNL     1      61.779  42.141  55.167  0.00  0.00    +0.000 OA
ATOM     12  H   UNL     1      62.522  42.717  55.441  0.00  0.00    +0.000 HD
ENDBRANCH   4  11
BRANCH   2  13
ATOM     13  O   UNL     1      63.080  38.046  55.447  0.00  0.00    +0.000 OA
BRANCH  13  14
ATOM     14  S   UNL     1      62.916  36.885  56.566  0.00  0.00    +0.000 S 
ATOM     15  O   UNL     1      61.539  36.865  56.999  0.00  0.00    +0.000 OA
ATOM     16  O   UNL     1      63.608  35.698  56.114  0.00  0.00    +0.000 OA
BRANCH  14  17
ATOM     17  O   UNL     1      63.746  37.499  57.800  0.00  0.00    +0.000 OA
ATOM     18  H   UNL     1      63.343  37.146  58.620  0.00  0.00    +0.000 HD
ENDBRANCH  14  17
ENDBRANCH  13  14
ENDBRANCH   2  13
TORSDOF 5
ENDMDL
MODEL 2
REMARK VINA RESULT:      -4.8     14.143     15.088
REMARK  Name = 
REMARK  7 active torsions:
REMARK  status: ('A' for Active; 'I' for Inactive)
REMARK    1  A    between atoms: S_1  and  O_3
REMARK    2  A    between atoms: S_1  and  O_6
REMARK    3  A    between atoms: O_3  and  C_9
REMARK    4  A    between atoms: O_4  and  C_10
REMARK    5  A    between atoms: O_5  and  C_11
REMARK    6  A    between atoms: C_12  and  C_14
REMARK    7  A    between atoms: C_13  and  C_15
REMARK                            x       y       z     vdW  Elec       q    Type
REMARK                         _______ _______ _______ _____ _____    ______ ____
ROOT
ATOM      1  O   UNL     1      64.005  37.734  68.844  0.00  0.00    +0.000 OA
ATOM      2  C   UNL     1      62.140  39.293  69.161  0.00  0.00    +0.000 C 
ATOM      3  C   UNL     1      63.097  40.466  68.907  0.00  0.00    +0.000 C 
ATOM      4  C   UNL     1      64.542  40.086  69.260  0.00  0.00    +0.000 C 
ATOM      5  C   UNL     1      62.666  38.042  68.434  0.00  0.00    +0.000 C 
ATOM      6  C   UNL     1      64.937  38.784  68.548  0.00  0.00    +0.000 C 
ATOM      7  C   UNL     1      61.812  36.812  68.722  0.00  0.00    +0.000 C 
ATOM      8  C   UNL     1      66.318  38.307  68.981  0.00  0.00    +0.000 C 
ENDROOT
BRANCH   3   9
ATOM      9  O   UNL     1      62.758  41.641  69.657  0.00  0.00    +0.000 OA
ATOM     10  H   UNL     1      62.702  41.410  70.608  0.00  0.00    +0.000 HD
ENDBRANCH   3   9
BRANCH   4  11
ATOM     11  O   UNL     1      65.406  41.161  68.877  0.00  0.00    +0.000 OA
ATOM     12  H   UNL     1      65.527  41.689  69.693  0.00  0.00    +0.000 HD
ENDBRANCH   4  11
BRANCH   2  13
ATOM     13  O   UNL     1      62.063  39.035  70.565  0.00  0.00    +0.000 OA
BRANCH  13  14
ATOM     14  S   UNL     1      60.672  39.348  71.334  0.00  0.00    +0.000 S 
ATOM     15  O   UNL     1      60.126  40.574  70.802  0.00  0.00    +0.000 OA
ATOM     16  O   UNL     1      59.901  38.127  71.424  0.00  0.00    +0.000 OA
BRANCH  14  17
ATOM     17  O   UNL     1      61.190  39.714  72.813  0.00  0.00    +0.000 OA
ATOM     18  H   UNL     1      61.704  38.944  73.135  0.00  0.00    +0.000 HD
ENDBRANCH  14  17
ENDBRANCH  13  14
ENDBRANCH   2  13
TORSDOF 5
ENDMDL
MODEL 3
REMARK VINA RESULT:      -4.6     12.363     13.927
REMARK  Name = 
REMARK  7 active torsions:
REMARK  status: ('A' for Active; 'I' for Inactive)
REMARK    1  A    between atoms: S_1  and  O_3
REMARK    2  A    between atoms: S_1  and  O_6
REMARK    3  A    between atoms: O_3  and  C_9
REMARK    4  A    between atoms: O_4  and  C_10
REMARK    5  A    between atoms: O_5  and  C_11
REMARK    6  A    between atoms: C_12  and  C_14
REMARK    7  A    between atoms: C_13  and  C_15
REMARK                            x       y       z     vdW  Elec       q    Type
REMARK                         _______ _______ _______ _____ _____    ______ ____
ROOT
ATOM      1  O   UNL     1      60.641  36.610  67.744  0.00  0.00    +0.000 OA
ATOM      2  C   UNL     1      60.408  38.936  68.485  0.00  0.00    +0.000 C 
ATOM      3  C   UNL     1      60.904  39.407  67.111  0.00  0.00    +0.000 C 
ATOM      4  C   UNL     1      61.789  38.341  66.448  0.00  0.00    +0.000 C 
ATOM      5  C   UNL     1      59.741  37.556  68.337  0.00  0.00    +0.000 C 
ATOM      6  C   UNL     1      61.062  36.989  66.426  0.00  0.00    +0.000 C 
ATOM      7  C   UNL     1      59.308  36.984  69.682  0.00  0.00    +0.000 C 
ATOM      8  C   UNL     1      61.963  35.880  65.896  0.00  0.00    +0.000 C 
ENDROOT
BRANCH   3   9
ATOM      9  O   UNL     1      61.660  40.626  67.174  0.00  0.00    +0.000 OA
ATOM     10  H   UNL     1      61.428  41.188  66.406  0.00  0.00    +0.000 HD
ENDBRANCH   3   9
BRANCH   4  11
ATOM     11  O   UNL     1      62.110  38.772  65.121  0.00  0.00    +0.000 OA
ATOM     12  H   UNL     1      61.732  39.673  65.052  0.00  0.00    +0.000 HD
ENDBRANCH   4  11
BRANCH   2  13
ATOM     13  O   UNL     1      61.514  38.841  69.385  0.00  0.00    +0.000 OA
BRANCH  13  14
ATOM     14  S   UNL     1      61.698  39.993  70.509  0.00  0.00    +0.000 S 
ATOM     15  O   UNL     1      62.126  39.363  71.736  0.00  0.00    +0.000 OA
ATOM     16  O   UNL     1      62.401  41.113  69.922  0.00  0.00    +0.000 OA
BRANCH  14  17
ATOM     17  O   UNL     1      60.176  40.446  70.767  0.00  0.00    +0.000 OA
ATOM     18  H   UNL     1      60.160  41.426  70.739  0.00  0.00    +0.000 HD
ENDBRANCH  14  17
ENDBRANCH  13  14
ENDBRANCH   2  13
TORSDOF 5
ENDMDL
MODEL 4
REMARK VINA RESULT:      -4.2      1.798      2.609
REMARK  Name = 
REMARK  7 active torsions:
REMARK  status: ('A' for Active; 'I' for Inactive)
REMARK    1  A    between atoms: S_1  and  O_3
REMARK    2  A    between atoms: S_1  and  O_6
REMARK    3  A    between atoms: O_3  and  C_9
REMARK    4  A    between atoms: O_4  and  C_10
REMARK    5  A    between atoms: O_5  and  C_11
REMARK    6  A    between atoms: C_12  and  C_14
REMARK    7  A    between atoms: C_13  and  C_15
REMARK                            x       y       z     vdW  Elec       q    Type
REMARK                         _______ _______ _______ _____ _____    ______ ____
ROOT
ATOM      1  O   UNL     1      65.112  40.137  53.309  0.00  0.00    +0.000 OA
ATOM      2  C   UNL     1      62.677  40.114  53.600  0.00  0.00    +0.000 C 
ATOM      3  C   UNL     1      62.696  41.641  53.754  0.00  0.00    +0.000 C 
ATOM      4  C   UNL     1      64.058  42.127  54.271  0.00  0.00    +0.000 C 
ATOM      5  C   UNL     1      63.878  39.676  52.742  0.00  0.00    +0.000 C 
ATOM      6  C   UNL     1      65.187  41.567  53.395  0.00  0.00    +0.000 C 
ATOM      7  C   UNL     1      63.975  38.159  52.627  0.00  0.00    +0.000 C 
ATOM      8  C   UNL     1      66.559  41.920  53.959  0.00  0.00    +0.000 C 
ENDROOT
BRANCH   3   9
ATOM      9  O   UNL     1      61.688  42.128  54.653  0.00  0.00    +0.000 OA
ATOM     10  H   UNL     1      61.969  42.996  55.011  0.00  0.00    +0.000 HD
ENDBRANCH   3   9
BRANCH   4  11
ATOM     11  O   UNL     1      64.067  43.558  54.266  0.00  0.00    +0.000 OA
ATOM     12  H   UNL     1      64.553  43.809  55.078  0.00  0.00    +0.000 HD
ENDBRANCH   4  11
BRANCH   2  13
ATOM     13  O   UNL     1      62.760  39.503  54.890  0.00  0.00    +0.000 OA
BRANCH  13  14
ATOM     14  S   UNL     1      61.392  38.999  55.597  0.00  0.00    +0.000 S 
ATOM     15  O   UNL     1      60.290  39.291  54.711  0.00  0.00    +0.000 OA
ATOM     16  O   UNL     1      61.612  37.684  56.158  0.00  0.00    +0.000 OA
BRANCH  14  17
ATOM     17  O   UNL     1      61.251  40.038  56.816  0.00  0.00    +0.000 OA
ATOM     18  H   UNL     1      60.734  40.801  56.485  0.00  0.00    +0.000 HD
ENDBRANCH  14  17
ENDBRANCH  13  14
ENDBRANCH   2  13
TORSDOF 5
ENDMDL
MODEL 5
REMARK VINA RESULT:      -4.0     25.343     27.203
REMARK  Name = 
REMARK  7 active torsions:
REMARK  status: ('A' for Active; 'I' for Inactive)
REMARK    1  A    between atoms: S_1  and  O_3
REMARK    2  A    between atoms: S_1  and  O_6
REMARK    3  A    between atoms: O_3  and  C_9
REMARK    4  A    between atoms: O_4  and  C_10
REMARK    5  A    between atoms: O_5  and  C_11
REMARK    6  A    between atoms: C_12  and  C_14
REMARK    7  A    between atoms: C_13  and  C_15
REMARK                            x       y       z     vdW  Elec       q    Type
REMARK                         _______ _______ _______ _____ _____    ______ ____
ROOT
ATOM      1  O   UNL     1      58.060  62.569  65.268  0.00  0.00    +0.000 OA
ATOM      2  C   UNL     1      55.653  62.781  65.684  0.00  0.00    +0.000 C 
ATOM      3  C   UNL     1      55.888  64.195  66.233  0.00  0.00    +0.000 C 
ATOM      4  C   UNL     1      57.315  64.345  66.779  0.00  0.00    +0.000 C 
ATOM      5  C   UNL     1      56.763  62.439  64.673  0.00  0.00    +0.000 C 
ATOM      6  C   UNL     1      58.336  63.901  65.723  0.00  0.00    +0.000 C 
ATOM      7  C   UNL     1      56.644  61.009  64.157  0.00  0.00    +0.000 C 
ATOM      8  C   UNL     1      59.756  63.911  66.278  0.00  0.00    +0.000 C 
ENDROOT
BRANCH   3   9
ATOM      9  O   UNL     1      54.978  64.548  67.285  0.00  0.00    +0.000 OA
ATOM     10  H   UNL     1      55.330  65.324  67.768  0.00  0.00    +0.000 HD
ENDBRANCH   3   9
BRANCH   4  11
ATOM     11  O   UNL     1      57.523  65.712  67.151  0.00  0.00    +0.000 OA
ATOM     12  H   UNL     1      57.574  65.701  68.129  0.00  0.00    +0.000 HD
ENDBRANCH   4  11
BRANCH   2  13
ATOM     13  O   UNL     1      55.679  61.840  66.760  0.00  0.00    +0.000 OA
BRANCH  13  14
ATOM     14  S   UNL     1      54.303  61.084  67.160  0.00  0.00    +0.000 S 
ATOM     15  O   UNL     1      53.630  61.870  68.166  0.00  0.00    +0.000 OA
ATOM     16  O   UNL     1      53.645  60.639  65.950  0.00  0.00    +0.000 OA
BRANCH  14  17
ATOM     17  O   UNL     1      54.855  59.783  67.928  0.00  0.00    +0.000 OA
ATOM     18  H   UNL     1      55.716  60.029  68.326  0.00  0.00    +0.000 HD
ENDBRANCH  14  17
ENDBRANCH  13  14
ENDBRANCH   2  13
TORSDOF 5
ENDMDL
MODEL 6
REMARK VINA RESULT:      -3.9     12.105     13.892
REMARK  Name = 
REMARK  7 active torsions:
REMARK  status: ('A' for Active; 'I' for Inactive)
REMARK    1  A    between atoms: S_1  and  O_3
REMARK    2  A    between atoms: S_1  and  O_6
REMARK    3  A    between atoms: O_3  and  C_9
REMARK    4  A    between atoms: O_4  and  C_10
REMARK    5  A    between atoms: O_5  and  C_11
REMARK    6  A    between atoms: C_12  and  C_14
REMARK    7  A    between atoms: C_13  and  C_15
REMARK                            x       y       z     vdW  Elec       q    Type
REMARK                         _______ _______ _______ _____ _____    ______ ____
ROOT
ATOM      1  O   UNL     1      60.921  36.222  68.961  0.00  0.00    +0.000 OA
ATOM      2  C   UNL     1      61.172  38.419  67.901  0.00  0.00    +0.000 C 
ATOM      3  C   UNL     1      61.596  37.725  66.599  0.00  0.00    +0.000 C 
ATOM      4  C   UNL     1      62.209  36.346  66.883  0.00  0.00    +0.000 C 
ATOM      5  C   UNL     1      60.265  37.471  68.708  0.00  0.00    +0.000 C 
ATOM      6  C   UNL     1      61.261  35.515  67.760  0.00  0.00    +0.000 C 
ATOM      7  C   UNL     1      59.882  38.062  70.061  0.00  0.00    +0.000 C 
ATOM      8  C   UNL     1      61.896  34.192  68.171  0.00  0.00    +0.000 C 
ENDROOT
BRANCH   3   9
ATOM      9  O   UNL     1      62.554  38.482  65.845  0.00  0.00    +0.000 OA
ATOM     10  H   UNL     1      63.173  37.866  65.401  0.00  0.00    +0.000 HD
ENDBRANCH   3   9
BRANCH   4  11
ATOM     11  O   UNL     1      62.459  35.690  65.636  0.00  0.00    +0.000 OA
ATOM     12  H   UNL     1      61.722  35.053  65.534  0.00  0.00    +0.000 HD
ENDBRANCH   4  11
BRANCH   2  13
ATOM     13  O   UNL     1      62.332  38.742  68.670  0.00  0.00    +0.000 OA
BRANCH  13  14
ATOM     14  S   UNL     1      62.739  40.301  68.839  0.00  0.00    +0.000 S 
ATOM     15  O   UNL     1      62.069  40.820  70.008  0.00  0.00    +0.000 OA
ATOM     16  O   UNL     1      64.164  40.439  68.633  0.00  0.00    +0.000 OA
BRANCH  14  17
ATOM     17  O   UNL     1      61.992  40.973  67.582  0.00  0.00    +0.000 OA
ATOM     18  H   UNL     1      62.657  41.061  66.867  0.00  0.00    +0.000 HD
ENDBRANCH  14  17
ENDBRANCH  13  14
ENDBRANCH   2  13
TORSDOF 5
ENDMDL
MODEL 7
REMARK VINA RESULT:      -3.9     28.753     30.968
REMARK  Name = 
REMARK  7 active torsions:
REMARK  status: ('A' for Active; 'I' for Inactive)
REMARK    1  A    between atoms: S_1  and  O_3
REMARK    2  A    between atoms: S_1  and  O_6
REMARK    3  A    between atoms: O_3  and  C_9
REMARK    4  A    between atoms: O_4  and  C_10
REMARK    5  A    between atoms: O_5  and  C_11
REMARK    6  A    between atoms: C_12  and  C_14
REMARK    7  A    between atoms: C_13  and  C_15
REMARK                            x       y       z     vdW  Elec       q    Type
REMARK                         _______ _______ _______ _____ _____    ______ ____
ROOT
ATOM      1  O   UNL     1      60.045  64.712  67.797  0.00  0.00    +0.000 OA
ATOM      2  C   UNL     1      58.745  65.869  69.524  0.00  0.00    +0.000 C 
ATOM      3  C   UNL     1      57.454  65.330  68.891  0.00  0.00    +0.000 C 
ATOM      4  C   UNL     1      57.652  65.037  67.397  0.00  0.00    +0.000 C 
ATOM      5  C   UNL     1      59.904  64.905  69.210  0.00  0.00    +0.000 C 
ATOM      6  C   UNL     1      58.879  64.138  67.191  0.00  0.00    +0.000 C 
ATOM      7  C   UNL     1      61.238  65.429  69.730  0.00  0.00    +0.000 C 
ATOM      8  C   UNL     1      59.182  63.937  65.711  0.00  0.00    +0.000 C 
ENDROOT
BRANCH   3   9
ATOM      9  O   UNL     1      56.346  66.234  69.017  0.00  0.00    +0.000 OA
ATOM     10  H   UNL     1      55.625  65.790  69.510  0.00  0.00    +0.000 HD
ENDBRANCH   3   9
BRANCH   4  11
ATOM     11  O   UNL     1      56.468  64.413  66.891  0.00  0.00    +0.000 OA
ATOM     12  H   UNL     1      56.032  65.103  66.350  0.00  0.00    +0.000 HD
ENDBRANCH   4  11
BRANCH   2  13
ATOM     13  O   UNL     1      59.036  67.161  68.986  0.00  0.00    +0.000 OA
BRANCH  13  14
ATOM     14  S   UNL     1      58.963  68.444  69.973  0.00  0.00    +0.000 S 
ATOM     15  O   UNL     1      60.128  69.264  69.735  0.00  0.00    +0.000 OA
ATOM     16  O   UNL     1      57.618  68.976  69.951  0.00  0.00    +0.000 OA
BRANCH  14  17
ATOM     17  O   UNL     1      59.202  67.765  71.412  0.00  0.00    +0.000 OA
ATOM     18  H   UNL     1      60.087  67.345  71.388  0.00  0.00    +0.000 HD
ENDBRANCH  14  17
ENDBRANCH  13  14
ENDBRANCH   2  13
TORSDOF 5
ENDMDL
MODEL 8
REMARK VINA RESULT:      -3.9     53.497     54.811
REMARK  Name = 
REMARK  7 active torsions:
REMARK  status: ('A' for Active; 'I' for Inactive)
REMARK    1  A    between atoms: S_1  and  O_3
REMARK    2  A    between atoms: S_1  and  O_6
REMARK    3  A    between atoms: O_3  and  C_9
REMARK    4  A    between atoms: O_4  and  C_10
REMARK    5  A    between atoms: O_5  and  C_11
REMARK    6  A    between atoms: C_12  and  C_14
REMARK    7  A    between atoms: C_13  and  C_15
REMARK                            x       y       z     vdW  Elec       q    Type
REMARK                         _______ _______ _______ _____ _____    ______ ____
ROOT
ATOM      1  O   UNL     1      65.771  76.457  95.070  0.00  0.00    +0.000 OA
ATOM      2  C   UNL     1      63.680  77.640  94.578  0.00  0.00    +0.000 C 
ATOM      3  C   UNL     1      62.901  76.532  95.301  0.00  0.00    +0.000 C 
ATOM      4  C   UNL     1      63.676  75.207  95.277  0.00  0.00    +0.000 C 
ATOM      5  C   UNL     1      65.103  77.723  95.161  0.00  0.00    +0.000 C 
ATOM      6  C   UNL     1      65.103  75.419  95.801  0.00  0.00    +0.000 C 
ATOM      7  C   UNL     1      65.964  78.741  94.423  0.00  0.00    +0.000 C 
ATOM      8  C   UNL     1      65.941  74.152  95.666  0.00  0.00    +0.000 C 
ENDROOT
BRANCH   3   9
ATOM      9  O   UNL     1      61.606  76.293  94.730  0.00  0.00    +0.000 OA
ATOM     10  H   UNL     1      61.688  76.251  93.755  0.00  0.00    +0.000 HD
ENDBRANCH   3   9
BRANCH   4  11
ATOM     11  O   UNL     1      62.973  74.251  96.077  0.00  0.00    +0.000 OA
ATOM     12  H   UNL     1      63.432  74.261  96.942  0.00  0.00    +0.000 HD
ENDBRANCH   4  11
BRANCH   2  13
ATOM     13  O   UNL     1      63.750  77.342  93.182  0.00  0.00    +0.000 OA
BRANCH  13  14
ATOM     14  S   UNL     1      62.820  78.189  92.161  0.00  0.00    +0.000 S 
ATOM     15  O   UNL     1      62.729  77.459  90.919  0.00  0.00    +0.000 OA
ATOM     16  O   UNL     1      61.653  78.662  92.874  0.00  0.00    +0.000 OA
BRANCH  14  17
ATOM     17  O   UNL     1      63.753  79.461  91.846  0.00  0.00    +0.000 OA
ATOM     18  H   UNL     1      63.734  80.035  92.640  0.00  0.00    +0.000 HD
ENDBRANCH  14  17
ENDBRANCH  13  14
ENDBRANCH   2  13
TORSDOF 5
ENDMDL
MODEL 9
REMARK VINA RESULT:      -3.8     28.875     30.612
REMARK  Name = 
REMARK  7 active torsions:
REMARK  status: ('A' for Active; 'I' for Inactive)
REMARK    1  A    between atoms: S_1  and  O_3
REMARK    2  A    between atoms: S_1  and  O_6
REMARK    3  A    between atoms: O_3  and  C_9
REMARK    4  A    between atoms: O_4  and  C_10
REMARK    5  A    between atoms: O_5  and  C_11
REMARK    6  A    between atoms: C_12  and  C_14
REMARK    7  A    between atoms: C_13  and  C_15
REMARK                            x       y       z     vdW  Elec       q    Type
REMARK                         _______ _______ _______ _____ _____    ______ ____
ROOT
ATOM      1  O   UNL     1      58.362  67.442  70.032  0.00  0.00    +0.000 OA
ATOM      2  C   UNL     1      58.170  65.115  69.285  0.00  0.00    +0.000 C 
ATOM      3  C   UNL     1      59.702  65.010  69.267  0.00  0.00    +0.000 C 
ATOM      4  C   UNL     1      60.347  66.388  69.060  0.00  0.00    +0.000 C 
ATOM      5  C   UNL     1      57.747  66.179  70.314  0.00  0.00    +0.000 C 
ATOM      6  C   UNL     1      59.795  67.390  70.083  0.00  0.00    +0.000 C 
ATOM      7  C   UNL     1      56.239  66.402  70.316  0.00  0.00    +0.000 C 
ATOM      8  C   UNL     1      60.315  68.800  69.821  0.00  0.00    +0.000 C 
ENDROOT
BRANCH   3   9
ATOM      9  O   UNL     1      60.194  64.137  68.239  0.00  0.00    +0.000 OA
ATOM     10  H   UNL     1      59.437  63.798  67.717  0.00  0.00    +0.000 HD
ENDBRANCH   3   9
BRANCH   4  11
ATOM     11  O   UNL     1      61.766  66.254  69.188  0.00  0.00    +0.000 OA
ATOM     12  H   UNL     1      61.892  65.527  69.833  0.00  0.00    +0.000 HD
ENDBRANCH   4  11
BRANCH   2  13
ATOM     13  O   UNL     1      57.702  65.489  67.988  0.00  0.00    +0.000 OA
BRANCH  13  14
ATOM     14  S   UNL     1      56.814  64.426  67.148  0.00  0.00    +0.000 S 
ATOM     15  O   UNL     1      56.014  63.668  68.081  0.00  0.00    +0.000 OA
ATOM     16  O   UNL     1      56.245  65.095  65.998  0.00  0.00    +0.000 OA
BRANCH  14  17
ATOM     17  O   UNL     1      57.938  63.405  66.618  0.00  0.00    +0.000 OA
ATOM     18  H   UNL     1      58.577  63.930  66.091  0.00  0.00    +0.000 HD
ENDBRANCH  14  17
ENDBRANCH  13  14
ENDBRANCH   2  13
TORSDOF 5
ENDMDL
