MODEL 1
REMARK VINA RESULT:      -6.7      0.000      0.000
REMARK  Name = Fulvestrant.pdbqt.pdb
REMARK  12 active torsions:
REMARK  status: ('A' for Active; 'I' for Inactive)
REMARK    1  A    between atoms: C_6  and  O_40
REMARK    2  A    between atoms: C_8  and  C_19
REMARK    3  A    between atoms: C_18  and  O_42
REMARK    4  A    between atoms: C_20  and  C_21
REMARK    5  A    between atoms: C_22  and  C_23
REMARK    6  A    between atoms: C_23  and  C_24
REMARK    7  A    between atoms: C_25  and  C_26
REMARK    8  A    between atoms: C_27  and  S_28
REMARK    9  A    between atoms: S_28  and  C_30
REMARK   10  A    between atoms: C_30  and  C_31
REMARK   11  A    between atoms: C_32  and  C_33
REMARK   12  A    between atoms: C_33  and  C_36
REMARK                            x       y       z     vdW  Elec       q    Type
REMARK                         _______ _______ _______ _____ _____    ______ ____
ROOT
ATOM      1  C   UNL     1      66.295  52.801  59.024  0.00  0.00    +0.000 C 
ATOM      2  C   UNL     1      67.617  53.216  59.831  0.00  0.00    +0.000 C 
ATOM      3  C   UNL     1      64.908  53.178  59.448  0.00  0.00    +0.000 A 
ATOM      4  C   UNL     1      64.657  54.323  60.451  0.00  0.00    +0.000 A 
ATOM      5  C   UNL     1      67.236  54.356  60.658  0.00  0.00    +0.000 C 
ATOM      6  C   UNL     1      68.610  53.578  58.704  0.00  0.00    +0.000 C 
ATOM      7  C   UNL     1      66.639  52.823  57.633  0.00  0.00    +0.000 C 
ATOM      8  C   UNL     1      63.706  52.483  58.915  0.00  0.00    +0.000 A 
ATOM      9  C   UNL     1      65.857  54.873  60.961  0.00  0.00    +0.000 C 
ATOM     10  C   UNL     1      68.046  53.320  57.426  0.00  0.00    +0.000 C 
ATOM     11  C   UNL     1      68.119  51.986  60.630  0.00  0.00    +0.000 C 
ATOM     12  C   UNL     1      63.298  54.764  60.874  0.00  0.00    +0.000 A 
ATOM     13  C   UNL     1      62.517  53.054  59.429  0.00  0.00    +0.000 A 
ATOM     14  C   UNL     1      62.176  54.094  60.332  0.00  0.00    +0.000 A 
ATOM     15  C   UNL     1      63.086  55.802  61.778  0.00  0.00    +0.000 A 
ATOM     16  C   UNL     1      60.877  54.436  60.671  0.00  0.00    +0.000 A 
ATOM     17  C   UNL     1      61.782  56.159  62.129  0.00  0.00    +0.000 A 
ATOM     18  C   UNL     1      60.697  55.477  61.577  0.00  0.00    +0.000 A 
ENDROOT
BRANCH   8  19
ATOM     19  C   UNL     1      63.762  51.295  58.148  0.00  0.00    +0.000 C 
ATOM     20  C   UNL     1      63.822  50.021  57.300  0.00  0.00    +0.000 C 
BRANCH  20  21
ATOM     21  C   UNL     1      63.880  48.763  56.428  0.00  0.00    +0.000 C 
ATOM     22  C   UNL     1      63.960  47.493  55.576  0.00  0.00    +0.000 C 
BRANCH  22  23
ATOM     23  C   UNL     1      64.065  46.211  54.745  0.00  0.00    +0.000 C 
BRANCH  23  24
ATOM     24  C   UNL     1      64.176  44.910  53.943  0.00  0.00    +0.000 C 
ATOM     25  C   UNL     1      64.286  43.591  53.172  0.00  0.00    +0.000 C 
BRANCH  25  26
ATOM     26  C   UNL     1      64.397  42.254  52.431  0.00  0.00    +0.000 C 
ATOM     27  C   UNL     1      64.472  40.918  51.686  0.00  0.00    +0.000 C 
BRANCH  27  28
ATOM     28  S   UNL     1      64.523  39.381  50.830  0.00  0.00    +0.000 S 
ATOM     29  O   UNL     1      65.971  39.177  51.164  0.00  0.00    +0.000 OA
BRANCH  28  30
ATOM     30  C   UNL     1      64.004  38.451  52.233  0.00  0.00    +0.000 C 
BRANCH  30  31
ATOM     31  C   UNL     1      63.564  37.623  53.445  0.00  0.00    +0.000 C 
ATOM     32  C   UNL     1      63.142  36.787  54.658  0.00  0.00    +0.000 C 
BRANCH  32  33
ATOM     33  C   UNL     1      62.747  35.983  55.818  0.00  0.00    +0.000 C 
ATOM     34  F   UNL     1      61.452  36.287  56.117  0.00  0.00    +0.000 F 
ATOM     35  F   UNL     1      63.485  36.400  56.884  0.00  0.00    +0.000 F 
BRANCH  33  36
ATOM     36  C   UNL     1      62.915  34.476  55.596  0.00  0.00    +0.000 C 
ATOM     37  F   UNL     1      61.721  33.829  55.571  0.00  0.00    +0.000 F 
ATOM     38  F   UNL     1      63.658  33.895  56.570  0.00  0.00    +0.000 F 
ATOM     39  F   UNL     1      63.532  34.206  54.417  0.00  0.00    +0.000 F 
ENDBRANCH  33  36
ENDBRANCH  32  33
ENDBRANCH  30  31
ENDBRANCH  28  30
ENDBRANCH  27  28
ENDBRANCH  25  26
ENDBRANCH  23  24
ENDBRANCH  22  23
ENDBRANCH  20  21
ENDBRANCH   8  19
BRANCH   6  40
ATOM     40  O   UNL     1      69.653  54.463  58.884  0.00  0.00    +0.000 OA
ATOM     41  H   UNL     1      69.335  55.352  59.125  0.00  0.00    +0.000 HD
ENDBRANCH   6  40
BRANCH  18  42
ATOM     42  O   UNL     1      59.440  55.860  61.951  0.00  0.00    +0.000 OA
ATOM     43  H   UNL     1      59.276  56.755  61.604  0.00  0.00    +0.000 HD
ENDBRANCH  18  42
TORSDOF 12
ENDMDL
MODEL 2
REMARK VINA RESULT:      -6.7     12.716     18.558
REMARK  Name = Fulvestrant.pdbqt.pdb
REMARK  12 active torsions:
REMARK  status: ('A' for Active; 'I' for Inactive)
REMARK    1  A    between atoms: C_6  and  O_40
REMARK    2  A    between atoms: C_8  and  C_19
REMARK    3  A    between atoms: C_18  and  O_42
REMARK    4  A    between atoms: C_20  and  C_21
REMARK    5  A    between atoms: C_22  and  C_23
REMARK    6  A    between atoms: C_23  and  C_24
REMARK    7  A    between atoms: C_25  and  C_26
REMARK    8  A    between atoms: C_27  and  S_28
REMARK    9  A    between atoms: S_28  and  C_30
REMARK   10  A    between atoms: C_30  and  C_31
REMARK   11  A    between atoms: C_32  and  C_33
REMARK   12  A    between atoms: C_33  and  C_36
REMARK                            x       y       z     vdW  Elec       q    Type
REMARK                         _______ _______ _______ _____ _____    ______ ____
ROOT
ATOM      1  C   UNL     1      64.261  51.814  58.583  0.00  0.00    +0.000 C 
ATOM      2  C   UNL     1      63.735  50.322  58.319  0.00  0.00    +0.000 C 
ATOM      3  C   UNL     1      65.505  52.134  59.355  0.00  0.00    +0.000 A 
ATOM      4  C   UNL     1      66.591  51.067  59.606  0.00  0.00    +0.000 A 
ATOM      5  C   UNL     1      64.892  49.454  58.509  0.00  0.00    +0.000 C 
ATOM      6  C   UNL     1      63.246  50.382  56.855  0.00  0.00    +0.000 C 
ATOM      7  C   UNL     1      63.940  52.575  57.412  0.00  0.00    +0.000 C 
ATOM      8  C   UNL     1      65.766  53.492  59.900  0.00  0.00    +0.000 A 
ATOM      9  C   UNL     1      66.224  49.790  59.119  0.00  0.00    +0.000 C 
ATOM     10  C   UNL     1      63.341  51.703  56.340  0.00  0.00    +0.000 C 
ATOM     11  C   UNL     1      62.553  50.034  59.280  0.00  0.00    +0.000 C 
ATOM     12  C   UNL     1      67.864  51.343  60.331  0.00  0.00    +0.000 A 
ATOM     13  C   UNL     1      67.026  53.551  60.543  0.00  0.00    +0.000 A 
ATOM     14  C   UNL     1      68.088  52.652  60.820  0.00  0.00    +0.000 A 
ATOM     15  C   UNL     1      68.838  50.371  60.549  0.00  0.00    +0.000 A 
ATOM     16  C   UNL     1      69.241  52.997  61.507  0.00  0.00    +0.000 A 
ATOM     17  C   UNL     1      70.005  50.703  61.239  0.00  0.00    +0.000 A 
ATOM     18  C   UNL     1      70.195  52.004  61.709  0.00  0.00    +0.000 A 
ENDROOT
BRANCH   8  19
ATOM     19  C   UNL     1      64.798  54.524  59.932  0.00  0.00    +0.000 C 
ATOM     20  C   UNL     1      63.750  55.641  59.988  0.00  0.00    +0.000 C 
BRANCH  20  21
ATOM     21  C   UNL     1      62.704  56.755  60.073  0.00  0.00    +0.000 C 
ATOM     22  C   UNL     1      61.653  57.864  60.190  0.00  0.00    +0.000 C 
BRANCH  22  23
ATOM     23  C   UNL     1      60.599  58.964  60.340  0.00  0.00    +0.000 C 
BRANCH  23  24
ATOM     24  C   UNL     1      59.563  60.080  60.515  0.00  0.00    +0.000 C 
ATOM     25  C   UNL     1      58.513  61.177  60.718  0.00  0.00    +0.000 C 
BRANCH  25  26
ATOM     26  C   UNL     1      57.447  62.254  60.945  0.00  0.00    +0.000 C 
ATOM     27  C   UNL     1      56.374  63.315  61.206  0.00  0.00    +0.000 C 
BRANCH  27  28
ATOM     28  S   UNL     1      55.132  64.519  61.534  0.00  0.00    +0.000 S 
ATOM     29  O   UNL     1      54.035  63.583  61.120  0.00  0.00    +0.000 OA
BRANCH  28  30
ATOM     30  C   UNL     1      54.972  64.058  63.226  0.00  0.00    +0.000 C 
BRANCH  30  31
ATOM     31  C   UNL     1      54.818  63.640  64.693  0.00  0.00    +0.000 C 
ATOM     32  C   UNL     1      54.679  63.210  66.157  0.00  0.00    +0.000 C 
BRANCH  32  33
ATOM     33  C   UNL     1      54.553  62.793  67.557  0.00  0.00    +0.000 C 
ATOM     34  F   UNL     1      53.569  63.540  68.130  0.00  0.00    +0.000 F 
ATOM     35  F   UNL     1      55.705  63.136  68.198  0.00  0.00    +0.000 F 
BRANCH  33  36
ATOM     36  C   UNL     1      54.266  61.297  67.719  0.00  0.00    +0.000 C 
ATOM     37  F   UNL     1      54.735  60.571  66.672  0.00  0.00    +0.000 F 
ATOM     38  F   UNL     1      52.938  61.038  67.814  0.00  0.00    +0.000 F 
ATOM     39  F   UNL     1      54.845  60.791  68.838  0.00  0.00    +0.000 F 
ENDBRANCH  33  36
ENDBRANCH  32  33
ENDBRANCH  30  31
ENDBRANCH  28  30
ENDBRANCH  27  28
ENDBRANCH  25  26
ENDBRANCH  23  24
ENDBRANCH  22  23
ENDBRANCH  20  21
ENDBRANCH   8  19
BRANCH   6  40
ATOM     40  O   UNL     1      63.207  49.274  56.035  0.00  0.00    +0.000 OA
ATOM     41  H   UNL     1      64.068  48.822  55.996  0.00  0.00    +0.000 HD
ENDBRANCH   6  40
BRANCH  18  42
ATOM     42  O   UNL     1      71.352  52.282  62.380  0.00  0.00    +0.000 OA
ATOM     43  H   UNL     1      71.385  53.240  62.552  0.00  0.00    +0.000 HD
ENDBRANCH  18  42
TORSDOF 12
ENDMDL
MODEL 3
REMARK VINA RESULT:      -6.7      2.354      4.687
REMARK  Name = Fulvestrant.pdbqt.pdb
REMARK  12 active torsions:
REMARK  status: ('A' for Active; 'I' for Inactive)
REMARK    1  A    between atoms: C_6  and  O_40
REMARK    2  A    between atoms: C_8  and  C_19
REMARK    3  A    between atoms: C_18  and  O_42
REMARK    4  A    between atoms: C_20  and  C_21
REMARK    5  A    between atoms: C_22  and  C_23
REMARK    6  A    between atoms: C_23  and  C_24
REMARK    7  A    between atoms: C_25  and  C_26
REMARK    8  A    between atoms: C_27  and  S_28
REMARK    9  A    between atoms: S_28  and  C_30
REMARK   10  A    between atoms: C_30  and  C_31
REMARK   11  A    between atoms: C_32  and  C_33
REMARK   12  A    between atoms: C_33  and  C_36
REMARK                            x       y       z     vdW  Elec       q    Type
REMARK                         _______ _______ _______ _____ _____    ______ ____
ROOT
ATOM      1  C   UNL     1      63.863  51.090  58.722  0.00  0.00    +0.000 C 
ATOM      2  C   UNL     1      62.484  51.885  58.519  0.00  0.00    +0.000 C 
ATOM      3  C   UNL     1      65.161  51.753  59.071  0.00  0.00    +0.000 A 
ATOM      4  C   UNL     1      65.204  53.178  59.660  0.00  0.00    +0.000 A 
ATOM      5  C   UNL     1      62.657  53.162  59.203  0.00  0.00    +0.000 C 
ATOM      6  C   UNL     1      61.450  50.959  59.198  0.00  0.00    +0.000 C 
ATOM      7  C   UNL     1      63.527  49.833  59.320  0.00  0.00    +0.000 C 
ATOM      8  C   UNL     1      66.468  51.068  58.886  0.00  0.00    +0.000 A 
ATOM      9  C   UNL     1      63.924  53.777  59.729  0.00  0.00    +0.000 C 
ATOM     10  C   UNL     1      62.057  49.752  59.637  0.00  0.00    +0.000 C 
ATOM     11  C   UNL     1      62.198  52.005  57.000  0.00  0.00    +0.000 C 
ATOM     12  C   UNL     1      66.464  53.865  60.061  0.00  0.00    +0.000 A 
ATOM     13  C   UNL     1      67.537  51.881  59.334  0.00  0.00    +0.000 A 
ATOM     14  C   UNL     1      67.688  53.177  59.889  0.00  0.00    +0.000 A 
ATOM     15  C   UNL     1      66.488  55.152  60.594  0.00  0.00    +0.000 A 
ATOM     16  C   UNL     1      68.907  53.740  60.233  0.00  0.00    +0.000 A 
ATOM     17  C   UNL     1      67.708  55.733  60.946  0.00  0.00    +0.000 A 
ATOM     18  C   UNL     1      68.898  55.027  60.762  0.00  0.00    +0.000 A 
ENDROOT
BRANCH   8  19
ATOM     19  C   UNL     1      66.623  49.850  58.182  0.00  0.00    +0.000 C 
ATOM     20  C   UNL     1      66.779  48.540  57.403  0.00  0.00    +0.000 C 
BRANCH  20  21
ATOM     21  C   UNL     1      66.917  47.240  56.605  0.00  0.00    +0.000 C 
ATOM     22  C   UNL     1      67.029  45.928  55.823  0.00  0.00    +0.000 C 
BRANCH  22  23
ATOM     23  C   UNL     1      67.117  44.603  55.060  0.00  0.00    +0.000 C 
BRANCH  23  24
ATOM     24  C   UNL     1      67.173  43.267  54.311  0.00  0.00    +0.000 C 
ATOM     25  C   UNL     1      67.246  41.918  53.590  0.00  0.00    +0.000 C 
BRANCH  25  26
ATOM     26  C   UNL     1      67.339  40.555  52.895  0.00  0.00    +0.000 C 
ATOM     27  C   UNL     1      67.419  39.177  52.232  0.00  0.00    +0.000 C 
BRANCH  27  28
ATOM     28  S   UNL     1      67.501  37.578  51.499  0.00  0.00    +0.000 S 
ATOM     29  O   UNL     1      68.660  37.179  52.364  0.00  0.00    +0.000 OA
BRANCH  28  30
ATOM     30  C   UNL     1      66.341  36.878  52.624  0.00  0.00    +0.000 C 
BRANCH  30  31
ATOM     31  C   UNL     1      65.338  36.247  53.596  0.00  0.00    +0.000 C 
ATOM     32  C   UNL     1      64.349  35.602  54.573  0.00  0.00    +0.000 C 
BRANCH  32  33
ATOM     33  C   UNL     1      63.409  34.978  55.509  0.00  0.00    +0.000 C 
ATOM     34  F   UNL     1      62.327  35.798  55.626  0.00  0.00    +0.000 F 
ATOM     35  F   UNL     1      63.997  34.956  56.737  0.00  0.00    +0.000 F 
BRANCH  33  36
ATOM     36  C   UNL     1      62.980  33.569  55.087  0.00  0.00    +0.000 C 
ATOM     37  F   UNL     1      63.713  32.607  55.706  0.00  0.00    +0.000 F 
ATOM     38  F   UNL     1      63.116  33.370  53.752  0.00  0.00    +0.000 F 
ATOM     39  F   UNL     1      61.679  33.326  55.389  0.00  0.00    +0.000 F 
ENDBRANCH  33  36
ENDBRANCH  32  33
ENDBRANCH  30  31
ENDBRANCH  28  30
ENDBRANCH  27  28
ENDBRANCH  25  26
ENDBRANCH  23  24
ENDBRANCH  22  23
ENDBRANCH  20  21
ENDBRANCH   8  19
BRANCH   6  40
ATOM     40  O   UNL     1      60.269  51.427  59.735  0.00  0.00    +0.000 OA
ATOM     41  H   UNL     1      60.261  51.358  60.707  0.00  0.00    +0.000 HD
ENDBRANCH   6  40
BRANCH  18  42
ATOM     42  O   UNL     1      70.068  55.636  61.120  0.00  0.00    +0.000 OA
ATOM     43  H   UNL     1      70.427  56.094  60.340  0.00  0.00    +0.000 HD
ENDBRANCH  18  42
TORSDOF 12
ENDMDL
MODEL 4
REMARK VINA RESULT:      -6.7     30.571     34.916
REMARK  Name = Fulvestrant.pdbqt.pdb
REMARK  12 active torsions:
REMARK  status: ('A' for Active; 'I' for Inactive)
REMARK    1  A    between atoms: C_6  and  O_40
REMARK    2  A    between atoms: C_8  and  C_19
REMARK    3  A    between atoms: C_18  and  O_42
REMARK    4  A    between atoms: C_20  and  C_21
REMARK    5  A    between atoms: C_22  and  C_23
REMARK    6  A    between atoms: C_23  and  C_24
REMARK    7  A    between atoms: C_25  and  C_26
REMARK    8  A    between atoms: C_27  and  S_28
REMARK    9  A    between atoms: S_28  and  C_30
REMARK   10  A    between atoms: C_30  and  C_31
REMARK   11  A    between atoms: C_32  and  C_33
REMARK   12  A    between atoms: C_33  and  C_36
REMARK                            x       y       z     vdW  Elec       q    Type
REMARK                         _______ _______ _______ _____ _____    ______ ____
ROOT
ATOM      1  C   UNL     1      49.908  56.981  80.419  0.00  0.00    +0.000 C 
ATOM      2  C   UNL     1      48.511  56.990  79.630  0.00  0.00    +0.000 C 
ATOM      3  C   UNL     1      50.326  55.891  81.359  0.00  0.00    +0.000 A 
ATOM      4  C   UNL     1      49.647  54.505  81.336  0.00  0.00    +0.000 A 
ATOM      5  C   UNL     1      48.052  55.605  79.621  0.00  0.00    +0.000 C 
ATOM      6  C   UNL     1      48.909  57.514  78.232  0.00  0.00    +0.000 C 
ATOM      7  C   UNL     1      50.877  57.571  79.545  0.00  0.00    +0.000 C 
ATOM      8  C   UNL     1      51.422  56.080  82.346  0.00  0.00    +0.000 A 
ATOM      9  C   UNL     1      48.569  54.442  80.422  0.00  0.00    +0.000 C 
ATOM     10  C   UNL     1      50.281  57.879  78.196  0.00  0.00    +0.000 C 
ATOM     11  C   UNL     1      47.548  57.979  80.334  0.00  0.00    +0.000 C 
ATOM     12  C   UNL     1      50.052  53.376  82.219  0.00  0.00    +0.000 A 
ATOM     13  C   UNL     1      51.659  54.892  83.079  0.00  0.00    +0.000 A 
ATOM     14  C   UNL     1      51.113  53.585  83.133  0.00  0.00    +0.000 A 
ATOM     15  C   UNL     1      49.433  52.128  82.186  0.00  0.00    +0.000 A 
ATOM     16  C   UNL     1      51.553  52.592  83.993  0.00  0.00    +0.000 A 
ATOM     17  C   UNL     1      49.866  51.118  83.046  0.00  0.00    +0.000 A 
ATOM     18  C   UNL     1      50.915  51.357  83.936  0.00  0.00    +0.000 A 
ENDROOT
BRANCH   8  19
ATOM     19  C   UNL     1      52.011  57.335  82.634  0.00  0.00    +0.000 C 
ATOM     20  C   UNL     1      52.666  58.687  82.935  0.00  0.00    +0.000 C 
BRANCH  20  21
ATOM     21  C   UNL     1      53.344  60.029  83.222  0.00  0.00    +0.000 C 
ATOM     22  C   UNL     1      54.037  61.359  83.535  0.00  0.00    +0.000 C 
BRANCH  22  23
ATOM     23  C   UNL     1      54.743  62.674  83.876  0.00  0.00    +0.000 C 
BRANCH  23  24
ATOM     24  C   UNL     1      55.428  63.994  84.246  0.00  0.00    +0.000 C 
ATOM     25  C   UNL     1      56.109  65.305  84.650  0.00  0.00    +0.000 C 
BRANCH  25  26
ATOM     26  C   UNL     1      56.784  66.609  85.089  0.00  0.00    +0.000 C 
ATOM     27  C   UNL     1      57.430  67.931  85.515  0.00  0.00    +0.000 C 
BRANCH  27  28
ATOM     28  S   UNL     1      58.145  69.468  85.990  0.00  0.00    +0.000 S 
ATOM     29  O   UNL     1      59.537  68.953  85.772  0.00  0.00    +0.000 OA
BRANCH  28  30
ATOM     30  C   UNL     1      58.069  70.136  84.363  0.00  0.00    +0.000 C 
BRANCH  30  31
ATOM     31  C   UNL     1      57.979  70.719  82.949  0.00  0.00    +0.000 C 
ATOM     32  C   UNL     1      57.906  71.295  81.530  0.00  0.00    +0.000 C 
BRANCH  32  33
ATOM     33  C   UNL     1      57.845  71.843  80.172  0.00  0.00    +0.000 C 
ATOM     34  F   UNL     1      56.871  71.175  79.493  0.00  0.00    +0.000 F 
ATOM     35  F   UNL     1      59.016  71.534  79.546  0.00  0.00    +0.000 F 
BRANCH  33  36
ATOM     36  C   UNL     1      57.594  73.354  80.139  0.00  0.00    +0.000 C 
ATOM     37  F   UNL     1      57.338  73.800  78.882  0.00  0.00    +0.000 F 
ATOM     38  F   UNL     1      58.656  74.060  80.599  0.00  0.00    +0.000 F 
ATOM     39  F   UNL     1      56.528  73.704  80.904  0.00  0.00    +0.000 F 
ENDBRANCH  33  36
ENDBRANCH  32  33
ENDBRANCH  30  31
ENDBRANCH  28  30
ENDBRANCH  27  28
ENDBRANCH  25  26
ENDBRANCH  23  24
ENDBRANCH  22  23
ENDBRANCH  20  21
ENDBRANCH   8  19
BRANCH   6  40
ATOM     40  O   UNL     1      48.198  57.208  77.090  0.00  0.00    +0.000 OA
ATOM     41  H   UNL     1      47.288  57.553  77.128  0.00  0.00    +0.000 HD
ENDBRANCH   6  40
BRANCH  18  42
ATOM     42  O   UNL     1      51.303  50.337  84.759  0.00  0.00    +0.000 OA
ATOM     43  H   UNL     1      50.862  49.521  84.466  0.00  0.00    +0.000 HD
ENDBRANCH  18  42
TORSDOF 12
ENDMDL
MODEL 5
REMARK VINA RESULT:      -6.7      3.546      5.905
REMARK  Name = Fulvestrant.pdbqt.pdb
REMARK  12 active torsions:
REMARK  status: ('A' for Active; 'I' for Inactive)
REMARK    1  A    between atoms: C_6  and  O_40
REMARK    2  A    between atoms: C_8  and  C_19
REMARK    3  A    between atoms: C_18  and  O_42
REMARK    4  A    between atoms: C_20  and  C_21
REMARK    5  A    between atoms: C_22  and  C_23
REMARK    6  A    between atoms: C_23  and  C_24
REMARK    7  A    between atoms: C_25  and  C_26
REMARK    8  A    between atoms: C_27  and  S_28
REMARK    9  A    between atoms: S_28  and  C_30
REMARK   10  A    between atoms: C_30  and  C_31
REMARK   11  A    between atoms: C_32  and  C_33
REMARK   12  A    between atoms: C_33  and  C_36
REMARK                            x       y       z     vdW  Elec       q    Type
REMARK                         _______ _______ _______ _____ _____    ______ ____
ROOT
ATOM      1  C   UNL     1      68.112  55.210  60.859  0.00  0.00    +0.000 C 
ATOM      2  C   UNL     1      68.348  56.737  60.425  0.00  0.00    +0.000 C 
ATOM      3  C   UNL     1      68.855  54.538  61.974  0.00  0.00    +0.000 A 
ATOM      4  C   UNL     1      69.600  55.355  63.051  0.00  0.00    +0.000 A 
ATOM      5  C   UNL     1      68.973  57.384  61.574  0.00  0.00    +0.000 C 
ATOM      6  C   UNL     1      66.915  57.239  60.141  0.00  0.00    +0.000 C 
ATOM      7  C   UNL     1      66.717  54.942  60.677  0.00  0.00    +0.000 C 
ATOM      8  C   UNL     1      68.898  53.058  62.111  0.00  0.00    +0.000 A 
ATOM      9  C   UNL     1      69.569  56.746  62.797  0.00  0.00    +0.000 C 
ATOM     10  C   UNL     1      65.971  56.184  60.260  0.00  0.00    +0.000 C 
ATOM     11  C   UNL     1      69.204  56.760  59.133  0.00  0.00    +0.000 C 
ATOM     12  C   UNL     1      70.318  54.737  64.201  0.00  0.00    +0.000 A 
ATOM     13  C   UNL     1      69.617  52.674  63.269  0.00  0.00    +0.000 A 
ATOM     14  C   UNL     1      70.322  53.326  64.312  0.00  0.00    +0.000 A 
ATOM     15  C   UNL     1      70.985  55.486  65.168  0.00  0.00    +0.000 A 
ATOM     16  C   UNL     1      70.966  52.668  65.347  0.00  0.00    +0.000 A 
ATOM     17  C   UNL     1      71.638  54.837  66.218  0.00  0.00    +0.000 A 
ATOM     18  C   UNL     1      71.624  53.444  66.297  0.00  0.00    +0.000 A 
ENDROOT
BRANCH   8  19
ATOM     19  C   UNL     1      68.441  52.164  61.114  0.00  0.00    +0.000 C 
ATOM     20  C   UNL     1      67.967  51.188  60.032  0.00  0.00    +0.000 C 
BRANCH  20  21
ATOM     21  C   UNL     1      67.520  50.203  58.948  0.00  0.00    +0.000 C 
ATOM     22  C   UNL     1      67.060  49.200  57.886  0.00  0.00    +0.000 C 
BRANCH  22  23
ATOM     23  C   UNL     1      66.589  48.175  56.849  0.00  0.00    +0.000 C 
BRANCH  23  24
ATOM     24  C   UNL     1      66.105  47.130  55.839  0.00  0.00    +0.000 C 
ATOM     25  C   UNL     1      65.590  46.087  54.843  0.00  0.00    +0.000 C 
BRANCH  25  26
ATOM     26  C   UNL     1      65.042  45.043  53.864  0.00  0.00    +0.000 C 
ATOM     27  C   UNL     1      64.518  44.013  52.859  0.00  0.00    +0.000 C 
BRANCH  27  28
ATOM     28  S   UNL     1      63.934  42.845  51.679  0.00  0.00    +0.000 S 
ATOM     29  O   UNL     1      65.260  42.145  51.630  0.00  0.00    +0.000 OA
BRANCH  28  30
ATOM     30  C   UNL     1      63.324  41.739  52.906  0.00  0.00    +0.000 C 
BRANCH  30  31
ATOM     31  C   UNL     1      62.798  40.793  53.991  0.00  0.00    +0.000 C 
ATOM     32  C   UNL     1      62.261  39.838  55.062  0.00  0.00    +0.000 C 
BRANCH  32  33
ATOM     33  C   UNL     1      61.741  38.921  56.081  0.00  0.00    +0.000 C 
ATOM     34  F   UNL     1      60.380  38.968  56.033  0.00  0.00    +0.000 F 
ATOM     35  F   UNL     1      62.089  39.416  57.302  0.00  0.00    +0.000 F 
BRANCH  33  36
ATOM     36  C   UNL     1      62.242  37.483  55.914  0.00  0.00    +0.000 C 
ATOM     37  F   UNL     1      63.396  37.264  56.597  0.00  0.00    +0.000 F 
ATOM     38  F   UNL     1      62.487  37.173  54.617  0.00  0.00    +0.000 F 
ATOM     39  F   UNL     1      61.339  36.578  56.370  0.00  0.00    +0.000 F 
ENDBRANCH  33  36
ENDBRANCH  32  33
ENDBRANCH  30  31
ENDBRANCH  28  30
ENDBRANCH  27  28
ENDBRANCH  25  26
ENDBRANCH  23  24
ENDBRANCH  22  23
ENDBRANCH  20  21
ENDBRANCH   8  19
BRANCH   6  40
ATOM     40  O   UNL     1      66.553  58.565  60.252  0.00  0.00    +0.000 OA
ATOM     41  H   UNL     1      66.385  58.968  59.381  0.00  0.00    +0.000 HD
ENDBRANCH   6  40
BRANCH  18  42
ATOM     42  O   UNL     1      72.277  52.853  67.341  0.00  0.00    +0.000 OA
ATOM     43  H   UNL     1      71.679  52.204  67.751  0.00  0.00    +0.000 HD
ENDBRANCH  18  42
TORSDOF 12
ENDMDL
MODEL 6
REMARK VINA RESULT:      -6.6     30.684     35.250
REMARK  Name = Fulvestrant.pdbqt.pdb
REMARK  12 active torsions:
REMARK  status: ('A' for Active; 'I' for Inactive)
REMARK    1  A    between atoms: C_6  and  O_40
REMARK    2  A    between atoms: C_8  and  C_19
REMARK    3  A    between atoms: C_18  and  O_42
REMARK    4  A    between atoms: C_20  and  C_21
REMARK    5  A    between atoms: C_22  and  C_23
REMARK    6  A    between atoms: C_23  and  C_24
REMARK    7  A    between atoms: C_25  and  C_26
REMARK    8  A    between atoms: C_27  and  S_28
REMARK    9  A    between atoms: S_28  and  C_30
REMARK   10  A    between atoms: C_30  and  C_31
REMARK   11  A    between atoms: C_32  and  C_33
REMARK   12  A    between atoms: C_33  and  C_36
REMARK                            x       y       z     vdW  Elec       q    Type
REMARK                         _______ _______ _______ _____ _____    ______ ____
ROOT
ATOM      1  C   UNL     1      49.508  56.692  79.814  0.00  0.00    +0.000 C 
ATOM      2  C   UNL     1      48.110  56.357  79.103  0.00  0.00    +0.000 C 
ATOM      3  C   UNL     1      50.089  55.879  80.932  0.00  0.00    +0.000 A 
ATOM      4  C   UNL     1      49.607  54.441  81.214  0.00  0.00    +0.000 A 
ATOM      5  C   UNL     1      47.845  54.952  79.389  0.00  0.00    +0.000 C 
ATOM      6  C   UNL     1      48.406  56.636  77.612  0.00  0.00    +0.000 C 
ATOM      7  C   UNL     1      50.371  57.215  78.798  0.00  0.00    +0.000 C 
ATOM      8  C   UNL     1      51.166  56.406  81.811  0.00  0.00    +0.000 A 
ATOM      9  C   UNL     1      48.531  54.053  80.380  0.00  0.00    +0.000 C 
ATOM     10  C   UNL     1      49.715  57.162  77.442  0.00  0.00    +0.000 C 
ATOM     11  C   UNL     1      47.032  57.334  79.639  0.00  0.00    +0.000 C 
ATOM     12  C   UNL     1      50.179  53.577  82.284  0.00  0.00    +0.000 A 
ATOM     13  C   UNL     1      51.577  55.433  82.753  0.00  0.00    +0.000 A 
ATOM     14  C   UNL     1      51.217  54.103  83.090  0.00  0.00    +0.000 A 
ATOM     15  C   UNL     1      49.737  52.278  82.527  0.00  0.00    +0.000 A 
ATOM     16  C   UNL     1      51.805  53.371  84.109  0.00  0.00    +0.000 A 
ATOM     17  C   UNL     1      50.320  51.528  83.550  0.00  0.00    +0.000 A 
ATOM     18  C   UNL     1      51.341  52.078  84.327  0.00  0.00    +0.000 A 
ENDROOT
BRANCH   8  19
ATOM     19  C   UNL     1      51.582  57.759  81.818  0.00  0.00    +0.000 C 
ATOM     20  C   UNL     1      52.045  59.219  81.809  0.00  0.00    +0.000 C 
BRANCH  20  21
ATOM     21  C   UNL     1      52.528  60.672  81.781  0.00  0.00    +0.000 C 
ATOM     22  C   UNL     1      53.035  62.118  81.773  0.00  0.00    +0.000 C 
BRANCH  22  23
ATOM     23  C   UNL     1      53.563  63.555  81.791  0.00  0.00    +0.000 C 
BRANCH  23  24
ATOM     24  C   UNL     1      54.058  65.005  81.810  0.00  0.00    +0.000 C 
ATOM     25  C   UNL     1      54.585  66.443  81.838  0.00  0.00    +0.000 C 
BRANCH  25  26
ATOM     26  C   UNL     1      55.144  67.869  81.877  0.00  0.00    +0.000 C 
ATOM     27  C   UNL     1      55.714  69.291  81.881  0.00  0.00    +0.000 C 
BRANCH  27  28
ATOM     28  S   UNL     1      56.382  70.919  81.854  0.00  0.00    +0.000 S 
ATOM     29  O   UNL     1      55.185  71.484  82.560  0.00  0.00    +0.000 OA
BRANCH  28  30
ATOM     30  C   UNL     1      57.256  70.709  83.368  0.00  0.00    +0.000 C 
BRANCH  30  31
ATOM     31  C   UNL     1      57.996  70.514  84.696  0.00  0.00    +0.000 C 
ATOM     32  C   UNL     1      58.736  70.338  86.027  0.00  0.00    +0.000 C 
BRANCH  32  33
ATOM     33  C   UNL     1      59.443  70.179  87.300  0.00  0.00    +0.000 C 
ATOM     34  F   UNL     1      59.839  71.414  87.717  0.00  0.00    +0.000 F 
ATOM     35  F   UNL     1      60.588  69.482  87.056  0.00  0.00    +0.000 F 
BRANCH  33  36
ATOM     36  C   UNL     1      58.603  69.485  88.377  0.00  0.00    +0.000 C 
ATOM     37  F   UNL     1      57.709  68.614  87.842  0.00  0.00    +0.000 F 
ATOM     38  F   UNL     1      57.895  70.368  89.123  0.00  0.00    +0.000 F 
ATOM     39  F   UNL     1      59.375  68.774  89.238  0.00  0.00    +0.000 F 
ENDBRANCH  33  36
ENDBRANCH  32  33
ENDBRANCH  30  31
ENDBRANCH  28  30
ENDBRANCH  27  28
ENDBRANCH  25  26
ENDBRANCH  23  24
ENDBRANCH  22  23
ENDBRANCH  20  21
ENDBRANCH   8  19
BRANCH   6  40
ATOM     40  O   UNL     1      47.725  56.014  76.587  0.00  0.00    +0.000 OA
ATOM     41  H   UNL     1      47.761  56.532  75.763  0.00  0.00    +0.000 HD
ENDBRANCH   6  40
BRANCH  18  42
ATOM     42  O   UNL     1      51.880  51.306  85.317  0.00  0.00    +0.000 OA
ATOM     43  H   UNL     1      51.379  50.473  85.365  0.00  0.00    +0.000 HD
ENDBRANCH  18  42
TORSDOF 12
ENDMDL
MODEL 7
REMARK VINA RESULT:      -6.6     30.813     34.960
REMARK  Name = Fulvestrant.pdbqt.pdb
REMARK  12 active torsions:
REMARK  status: ('A' for Active; 'I' for Inactive)
REMARK    1  A    between atoms: C_6  and  O_40
REMARK    2  A    between atoms: C_8  and  C_19
REMARK    3  A    between atoms: C_18  and  O_42
REMARK    4  A    between atoms: C_20  and  C_21
REMARK    5  A    between atoms: C_22  and  C_23
REMARK    6  A    between atoms: C_23  and  C_24
REMARK    7  A    between atoms: C_25  and  C_26
REMARK    8  A    between atoms: C_27  and  S_28
REMARK    9  A    between atoms: S_28  and  C_30
REMARK   10  A    between atoms: C_30  and  C_31
REMARK   11  A    between atoms: C_32  and  C_33
REMARK   12  A    between atoms: C_33  and  C_36
REMARK                            x       y       z     vdW  Elec       q    Type
REMARK                         _______ _______ _______ _____ _____    ______ ____
ROOT
ATOM      1  C   UNL     1      48.763  54.663  80.525  0.00  0.00    +0.000 C 
ATOM      2  C   UNL     1      47.282  54.233  80.082  0.00  0.00    +0.000 C 
ATOM      3  C   UNL     1      49.553  53.954  81.583  0.00  0.00    +0.000 A 
ATOM      4  C   UNL     1      49.186  52.527  82.040  0.00  0.00    +0.000 A 
ATOM      5  C   UNL     1      47.128  52.845  80.505  0.00  0.00    +0.000 C 
ATOM      6  C   UNL     1      47.317  54.407  78.547  0.00  0.00    +0.000 C 
ATOM      7  C   UNL     1      49.424  55.133  79.344  0.00  0.00    +0.000 C 
ATOM      8  C   UNL     1      50.738  54.578  82.230  0.00  0.00    +0.000 A 
ATOM      9  C   UNL     1      48.005  52.045  81.427  0.00  0.00    +0.000 C 
ATOM     10  C   UNL     1      48.556  54.959  78.125  0.00  0.00    +0.000 C 
ATOM     11  C   UNL     1      46.267  55.214  80.722  0.00  0.00    +0.000 C 
ATOM     12  C   UNL     1      49.963  51.764  83.057  0.00  0.00    +0.000 A 
ATOM     13  C   UNL     1      51.339  53.691  83.156  0.00  0.00    +0.000 A 
ATOM     14  C   UNL     1      51.095  52.381  83.639  0.00  0.00    +0.000 A 
ATOM     15  C   UNL     1      49.622  50.474  83.460  0.00  0.00    +0.000 A 
ATOM     16  C   UNL     1      51.874  51.746  84.594  0.00  0.00    +0.000 A 
ATOM     17  C   UNL     1      50.396  49.821  84.421  0.00  0.00    +0.000 A 
ATOM     18  C   UNL     1      51.507  50.459  84.976  0.00  0.00    +0.000 A 
ENDROOT
BRANCH   8  19
ATOM     19  C   UNL     1      51.091  55.940  82.074  0.00  0.00    +0.000 C 
ATOM     20  C   UNL     1      51.462  57.418  81.924  0.00  0.00    +0.000 C 
BRANCH  20  21
ATOM     21  C   UNL     1      51.817  58.902  81.796  0.00  0.00    +0.000 C 
ATOM     22  C   UNL     1      52.202  60.379  81.659  0.00  0.00    +0.000 C 
BRANCH  22  23
ATOM     23  C   UNL     1      52.618  61.845  81.513  0.00  0.00    +0.000 C 
BRANCH  23  24
ATOM     24  C   UNL     1      53.041  63.314  81.404  0.00  0.00    +0.000 C 
ATOM     25  C   UNL     1      53.451  64.783  81.260  0.00  0.00    +0.000 C 
BRANCH  25  26
ATOM     26  C   UNL     1      53.852  66.251  81.083  0.00  0.00    +0.000 C 
ATOM     27  C   UNL     1      54.241  67.726  80.941  0.00  0.00    +0.000 C 
BRANCH  27  28
ATOM     28  S   UNL     1      54.676  69.427  80.809  0.00  0.00    +0.000 S 
ATOM     29  O   UNL     1      53.538  69.845  81.692  0.00  0.00    +0.000 OA
BRANCH  28  30
ATOM     30  C   UNL     1      55.792  69.365  82.170  0.00  0.00    +0.000 C 
BRANCH  30  31
ATOM     31  C   UNL     1      56.779  69.301  83.340  0.00  0.00    +0.000 C 
ATOM     32  C   UNL     1      57.766  69.255  84.513  0.00  0.00    +0.000 C 
BRANCH  32  33
ATOM     33  C   UNL     1      58.709  69.222  85.634  0.00  0.00    +0.000 C 
ATOM     34  F   UNL     1      59.939  68.906  85.138  0.00  0.00    +0.000 F 
ATOM     35  F   UNL     1      58.355  68.185  86.444  0.00  0.00    +0.000 F 
BRANCH  33  36
ATOM     36  C   UNL     1      58.760  70.534  86.422  0.00  0.00    +0.000 C 
ATOM     37  F   UNL     1      59.921  70.668  87.114  0.00  0.00    +0.000 F 
ATOM     38  F   UNL     1      57.751  70.630  87.324  0.00  0.00    +0.000 F 
ATOM     39  F   UNL     1      58.663  71.616  85.608  0.00  0.00    +0.000 F 
ENDBRANCH  33  36
ENDBRANCH  32  33
ENDBRANCH  30  31
ENDBRANCH  28  30
ENDBRANCH  27  28
ENDBRANCH  25  26
ENDBRANCH  23  24
ENDBRANCH  22  23
ENDBRANCH  20  21
ENDBRANCH   8  19
BRANCH   6  40
ATOM     40  O   UNL     1      46.503  53.690  77.696  0.00  0.00    +0.000 OA
ATOM     41  H   UNL     1      45.607  53.578  78.062  0.00  0.00    +0.000 HD
ENDBRANCH   6  40
BRANCH  18  42
ATOM     42  O   UNL     1      52.235  49.781  85.913  0.00  0.00    +0.000 OA
ATOM     43  H   UNL     1      53.179  49.880  85.700  0.00  0.00    +0.000 HD
ENDBRANCH  18  42
TORSDOF 12
ENDMDL
MODEL 8
REMARK VINA RESULT:      -6.4     13.793     18.553
REMARK  Name = Fulvestrant.pdbqt.pdb
REMARK  12 active torsions:
REMARK  status: ('A' for Active; 'I' for Inactive)
REMARK    1  A    between atoms: C_6  and  O_40
REMARK    2  A    between atoms: C_8  and  C_19
REMARK    3  A    between atoms: C_18  and  O_42
REMARK    4  A    between atoms: C_20  and  C_21
REMARK    5  A    between atoms: C_22  and  C_23
REMARK    6  A    between atoms: C_23  and  C_24
REMARK    7  A    between atoms: C_25  and  C_26
REMARK    8  A    between atoms: C_27  and  S_28
REMARK    9  A    between atoms: S_28  and  C_30
REMARK   10  A    between atoms: C_30  and  C_31
REMARK   11  A    between atoms: C_32  and  C_33
REMARK   12  A    between atoms: C_33  and  C_36
REMARK                            x       y       z     vdW  Elec       q    Type
REMARK                         _______ _______ _______ _____ _____    ______ ____
ROOT
ATOM      1  C   UNL     1      67.641  69.450  66.914  0.00  0.00    +0.000 C 
ATOM      2  C   UNL     1      68.641  70.540  67.536  0.00  0.00    +0.000 C 
ATOM      3  C   UNL     1      66.178  69.386  67.231  0.00  0.00    +0.000 A 
ATOM      4  C   UNL     1      65.435  70.589  67.848  0.00  0.00    +0.000 A 
ATOM      5  C   UNL     1      67.796  71.640  67.989  0.00  0.00    +0.000 C 
ATOM      6  C   UNL     1      69.539  70.909  66.335  0.00  0.00    +0.000 C 
ATOM      7  C   UNL     1      68.086  69.202  65.575  0.00  0.00    +0.000 C 
ATOM      8  C   UNL     1      65.365  68.172  66.952  0.00  0.00    +0.000 A 
ATOM      9  C   UNL     1      66.301  71.668  68.148  0.00  0.00    +0.000 C 
ATOM     10  C   UNL     1      69.232  70.107  65.203  0.00  0.00    +0.000 C 
ATOM     11  C   UNL     1      69.473  69.868  68.658  0.00  0.00    +0.000 C 
ATOM     12  C   UNL     1      63.975  70.592  68.143  0.00  0.00    +0.000 A 
ATOM     13  C   UNL     1      64.006  68.379  67.293  0.00  0.00    +0.000 A 
ATOM     14  C   UNL     1      63.228  69.427  67.847  0.00  0.00    +0.000 A 
ATOM     15  C   UNL     1      63.316  71.687  68.698  0.00  0.00    +0.000 A 
ATOM     16  C   UNL     1      61.867  69.341  68.092  0.00  0.00    +0.000 A 
ATOM     17  C   UNL     1      61.945  71.615  68.949  0.00  0.00    +0.000 A 
ATOM     18  C   UNL     1      61.237  70.450  68.647  0.00  0.00    +0.000 A 
ENDROOT
BRANCH   8  19
ATOM     19  C   UNL     1      65.919  66.925  66.576  0.00  0.00    +0.000 C 
ATOM     20  C   UNL     1      66.512  65.567  66.188  0.00  0.00    +0.000 C 
BRANCH  20  21
ATOM     21  C   UNL     1      67.095  64.199  65.826  0.00  0.00    +0.000 C 
ATOM     22  C   UNL     1      67.651  62.816  65.470  0.00  0.00    +0.000 C 
BRANCH  22  23
ATOM     23  C   UNL     1      68.177  61.420  65.125  0.00  0.00    +0.000 C 
BRANCH  23  24
ATOM     24  C   UNL     1      68.691  60.011  64.811  0.00  0.00    +0.000 C 
ATOM     25  C   UNL     1      69.192  58.606  64.464  0.00  0.00    +0.000 C 
BRANCH  25  26
ATOM     26  C   UNL     1      69.678  57.203  64.086  0.00  0.00    +0.000 C 
ATOM     27  C   UNL     1      70.141  55.801  63.677  0.00  0.00    +0.000 C 
BRANCH  27  28
ATOM     28  S   UNL     1      70.649  54.190  63.183  0.00  0.00    +0.000 S 
ATOM     29  O   UNL     1      69.986  53.554  64.369  0.00  0.00    +0.000 OA
BRANCH  28  30
ATOM     30  C   UNL     1      69.232  53.929  62.171  0.00  0.00    +0.000 C 
BRANCH  30  31
ATOM     31  C   UNL     1      68.013  53.698  61.271  0.00  0.00    +0.000 C 
ATOM     32  C   UNL     1      66.782  53.471  60.386  0.00  0.00    +0.000 C 
BRANCH  32  33
ATOM     33  C   UNL     1      65.600  53.254  59.548  0.00  0.00    +0.000 C 
ATOM     34  F   UNL     1      65.262  51.937  59.632  0.00  0.00    +0.000 F 
ATOM     35  F   UNL     1      65.965  53.464  58.252  0.00  0.00    +0.000 F 
BRANCH  33  36
ATOM     36  C   UNL     1      64.414  54.146  59.930  0.00  0.00    +0.000 C 
ATOM     37  F   UNL     1      63.226  53.592  59.576  0.00  0.00    +0.000 F 
ATOM     38  F   UNL     1      64.475  55.362  59.332  0.00  0.00    +0.000 F 
ATOM     39  F   UNL     1      64.361  54.368  61.268  0.00  0.00    +0.000 F 
ENDBRANCH  33  36
ENDBRANCH  32  33
ENDBRANCH  30  31
ENDBRANCH  28  30
ENDBRANCH  27  28
ENDBRANCH  25  26
ENDBRANCH  23  24
ENDBRANCH  22  23
ENDBRANCH  20  21
ENDBRANCH   8  19
BRANCH   6  40
ATOM     40  O   UNL     1      70.169  72.131  66.222  0.00  0.00    +0.000 OA
ATOM     41  H   UNL     1      70.971  72.176  66.772  0.00  0.00    +0.000 HD
ENDBRANCH   6  40
BRANCH  18  42
ATOM     42  O   UNL     1      59.897  70.426  68.911  0.00  0.00    +0.000 OA
ATOM     43  H   UNL     1      59.418  70.640  68.091  0.00  0.00    +0.000 HD
ENDBRANCH  18  42
TORSDOF 12
ENDMDL
MODEL 9
REMARK VINA RESULT:      -6.4      2.053      4.863
REMARK  Name = Fulvestrant.pdbqt.pdb
REMARK  12 active torsions:
REMARK  status: ('A' for Active; 'I' for Inactive)
REMARK    1  A    between atoms: C_6  and  O_40
REMARK    2  A    between atoms: C_8  and  C_19
REMARK    3  A    between atoms: C_18  and  O_42
REMARK    4  A    between atoms: C_20  and  C_21
REMARK    5  A    between atoms: C_22  and  C_23
REMARK    6  A    between atoms: C_23  and  C_24
REMARK    7  A    between atoms: C_25  and  C_26
REMARK    8  A    between atoms: C_27  and  S_28
REMARK    9  A    between atoms: S_28  and  C_30
REMARK   10  A    between atoms: C_30  and  C_31
REMARK   11  A    between atoms: C_32  and  C_33
REMARK   12  A    between atoms: C_33  and  C_36
REMARK                            x       y       z     vdW  Elec       q    Type
REMARK                         _______ _______ _______ _____ _____    ______ ____
ROOT
ATOM      1  C   UNL     1      62.797  55.250  59.682  0.00  0.00    +0.000 C 
ATOM      2  C   UNL     1      61.669  56.381  59.533  0.00  0.00    +0.000 C 
ATOM      3  C   UNL     1      64.237  55.544  59.974  0.00  0.00    +0.000 A 
ATOM      4  C   UNL     1      64.679  56.904  60.555  0.00  0.00    +0.000 A 
ATOM      5  C   UNL     1      62.201  57.563  60.204  0.00  0.00    +0.000 C 
ATOM      6  C   UNL     1      60.457  55.756  60.258  0.00  0.00    +0.000 C 
ATOM      7  C   UNL     1      62.167  54.121  60.299  0.00  0.00    +0.000 C 
ATOM      8  C   UNL     1      65.309  54.541  59.738  0.00  0.00    +0.000 A 
ATOM      9  C   UNL     1      63.606  57.819  60.674  0.00  0.00    +0.000 C 
ATOM     10  C   UNL     1      60.741  54.429  60.677  0.00  0.00    +0.000 C 
ATOM     11  C   UNL     1      61.364  56.583  58.027  0.00  0.00    +0.000 C 
ATOM     12  C   UNL     1      66.090  57.232  60.901  0.00  0.00    +0.000 A 
ATOM     13  C   UNL     1      66.572  55.040  60.138  0.00  0.00    +0.000 A 
ATOM     14  C   UNL     1      67.082  56.246  60.681  0.00  0.00    +0.000 A 
ATOM     15  C   UNL     1      66.475  58.463  61.427  0.00  0.00    +0.000 A 
ATOM     16  C   UNL     1      68.419  56.466  60.971  0.00  0.00    +0.000 A 
ATOM     17  C   UNL     1      67.818  58.699  61.725  0.00  0.00    +0.000 A 
ATOM     18  C   UNL     1      68.772  57.706  61.496  0.00  0.00    +0.000 A 
ENDROOT
BRANCH   8  19
ATOM     19  C   UNL     1      65.109  53.330  59.033  0.00  0.00    +0.000 C 
ATOM     20  C   UNL     1      64.912  52.019  58.264  0.00  0.00    +0.000 C 
BRANCH  20  21
ATOM     21  C   UNL     1      64.744  50.712  57.486  0.00  0.00    +0.000 C 
ATOM     22  C   UNL     1      64.598  49.413  56.687  0.00  0.00    +0.000 C 
BRANCH  22  23
ATOM     23  C   UNL     1      64.474  48.126  55.865  0.00  0.00    +0.000 C 
BRANCH  23  24
ATOM     24  C   UNL     1      64.384  46.831  55.051  0.00  0.00    +0.000 C 
ATOM     25  C   UNL     1      64.287  45.555  54.209  0.00  0.00    +0.000 C 
BRANCH  25  26
ATOM     26  C   UNL     1      64.178  44.298  53.339  0.00  0.00    +0.000 C 
ATOM     27  C   UNL     1      64.077  43.063  52.440  0.00  0.00    +0.000 C 
BRANCH  27  28
ATOM     28  S   UNL     1      63.966  41.663  51.378  0.00  0.00    +0.000 S 
ATOM     29  O   UNL     1      65.425  41.352  51.542  0.00  0.00    +0.000 OA
BRANCH  28  30
ATOM     30  C   UNL     1      63.521  40.566  52.682  0.00  0.00    +0.000 C 
BRANCH  30  31
ATOM     31  C   UNL     1      63.138  39.630  53.833  0.00  0.00    +0.000 C 
ATOM     32  C   UNL     1      62.773  38.687  54.985  0.00  0.00    +0.000 C 
BRANCH  32  33
ATOM     33  C   UNL     1      62.432  37.781  56.085  0.00  0.00    +0.000 C 
ATOM     34  F   UNL     1      61.136  37.392  55.923  0.00  0.00    +0.000 F 
ATOM     35  F   UNL     1      62.464  38.501  57.242  0.00  0.00    +0.000 F 
BRANCH  33  36
ATOM     36  C   UNL     1      63.358  36.564  56.177  0.00  0.00    +0.000 C 
ATOM     37  F   UNL     1      62.817  35.569  56.927  0.00  0.00    +0.000 F 
ATOM     38  F   UNL     1      64.555  36.872  56.735  0.00  0.00    +0.000 F 
ATOM     39  F   UNL     1      63.619  36.035  54.954  0.00  0.00    +0.000 F 
ENDBRANCH  33  36
ENDBRANCH  32  33
ENDBRANCH  30  31
ENDBRANCH  28  30
ENDBRANCH  27  28
ENDBRANCH  25  26
ENDBRANCH  23  24
ENDBRANCH  22  23
ENDBRANCH  20  21
ENDBRANCH   8  19
BRANCH   6  40
ATOM     40  O   UNL     1      59.464  56.515  60.842  0.00  0.00    +0.000 OA
ATOM     41  H   UNL     1      59.736  56.859  61.712  0.00  0.00    +0.000 HD
ENDBRANCH   6  40
BRANCH  18  42
ATOM     42  O   UNL     1      70.074  57.983  61.802  0.00  0.00    +0.000 OA
ATOM     43  H   UNL     1      70.625  57.236  61.507  0.00  0.00    +0.000 HD
ENDBRANCH  18  42
TORSDOF 12
ENDMDL
