MODEL 1
REMARK VINA RESULT:      -5.9      0.000      0.000
REMARK  Name = Gefitinib.pdbqt.pdb
REMARK  6 active torsions:
REMARK  status: ('A' for Active; 'I' for Inactive)
REMARK    1  A    between atoms: C_3  and  O_11
REMARK    2  A    between atoms: C_6  and  O_21
REMARK    3  A    between atoms: O_11  and  C_12
REMARK    4  A    between atoms: C_13  and  C_14
REMARK    5  A    between atoms: C_14  and  N_15
REMARK    6  A    between atoms: N_23  and  C_25
REMARK                            x       y       z     vdW  Elec       q    Type
REMARK                         _______ _______ _______ _____ _____    ______ ____
ROOT
ATOM      1  N   UNL     1      50.338  36.531  65.300  0.00  0.00    +0.000 NA
ATOM      2  N   UNL     1      52.696  36.210  65.196  0.00  0.00    +0.000 NA
ATOM      3  C   UNL     1      49.991  35.936  61.197  0.00  0.00    +0.000 A 
ATOM      4  C   UNL     1      51.383  36.050  63.203  0.00  0.00    +0.000 A 
ATOM      5  C   UNL     1      51.238  35.860  61.818  0.00  0.00    +0.000 A 
ATOM      6  C   UNL     1      48.865  36.204  61.976  0.00  0.00    +0.000 A 
ATOM      7  C   UNL     1      50.259  36.329  63.984  0.00  0.00    +0.000 A 
ATOM      8  C   UNL     1      49.023  36.396  63.354  0.00  0.00    +0.000 A 
ATOM      9  C   UNL     1      52.612  35.990  63.874  0.00  0.00    +0.000 A 
ATOM     10  C   UNL     1      51.557  36.468  65.849  0.00  0.00    +0.000 A 
ATOM     11  N   UNL     1      53.791  35.733  63.129  0.00  0.00    +0.000 N 
ATOM     12  H   UNL     1      53.656  34.957  62.487  0.00  0.00    +0.000 HD
ENDROOT
BRANCH  11  13
ATOM     13  C   UNL     1      55.131  35.829  63.564  0.00  0.00    +0.000 A 
ATOM     14  C   UNL     1      55.875  34.655  63.730  0.00  0.00    +0.000 A 
ATOM     15  C   UNL     1      57.229  34.704  64.056  0.00  0.00    +0.000 A 
ATOM     16 CL   UNL     1      58.081  33.230  64.278  0.00  0.00    +0.000 Cl
ATOM     17  C   UNL     1      57.863  35.934  64.193  0.00  0.00    +0.000 A 
ATOM     18  F   UNL     1      59.165  36.002  64.506  0.00  0.00    +0.000 F 
ATOM     19  C   UNL     1      57.156  37.113  63.996  0.00  0.00    +0.000 A 
ATOM     20  C   UNL     1      55.804  37.052  63.667  0.00  0.00    +0.000 A 
ENDBRANCH  11  13
BRANCH   6  21
ATOM     21  O   UNL     1      47.656  36.272  61.324  0.00  0.00    +0.000 OA
ATOM     22  C   UNL     1      46.873  37.395  61.614  0.00  0.00    +0.000 C 
ENDBRANCH   6  21
BRANCH   3  23
ATOM     23  O   UNL     1      49.808  35.756  59.847  0.00  0.00    +0.000 OA
BRANCH  23  24
ATOM     24  C   UNL     1      50.722  34.987  59.260  0.00  0.00    +0.000 C 
ATOM     25  C   UNL     1      51.777  34.113  58.572  0.00  0.00    +0.000 C 
BRANCH  25  26
ATOM     26  C   UNL     1      52.839  33.267  57.862  0.00  0.00    +0.000 C 
BRANCH  26  27
ATOM     27  N   UNL     1      53.839  32.454  57.183  0.00  0.00    +0.000 N 
ATOM     28  C   UNL     1      53.174  31.161  56.837  0.00  0.00    +0.000 C 
ATOM     29  C   UNL     1      52.759  30.617  55.432  0.00  0.00    +0.000 C 
ATOM     30  O   UNL     1      52.844  31.088  54.168  0.00  0.00    +0.000 OA
ATOM     31  C   UNL     1      53.443  32.255  54.479  0.00  0.00    +0.000 C 
ATOM     32  C   UNL     1      53.925  32.963  55.781  0.00  0.00    +0.000 C 
ENDBRANCH  26  27
ENDBRANCH  25  26
ENDBRANCH  23  24
ENDBRANCH   3  23
TORSDOF 6
ENDMDL
MODEL 2
REMARK VINA RESULT:      -5.5      8.183     11.617
REMARK  Name = Gefitinib.pdbqt.pdb
REMARK  6 active torsions:
REMARK  status: ('A' for Active; 'I' for Inactive)
REMARK    1  A    between atoms: C_3  and  O_11
REMARK    2  A    between atoms: C_6  and  O_21
REMARK    3  A    between atoms: O_11  and  C_12
REMARK    4  A    between atoms: C_13  and  C_14
REMARK    5  A    between atoms: C_14  and  N_15
REMARK    6  A    between atoms: N_23  and  C_25
REMARK                            x       y       z     vdW  Elec       q    Type
REMARK                         _______ _______ _______ _____ _____    ______ ____
ROOT
ATOM      1  N   UNL     1      55.686  38.270  74.022  0.00  0.00    +0.000 NA
ATOM      2  N   UNL     1      53.831  39.566  73.275  0.00  0.00    +0.000 NA
ATOM      3  C   UNL     1      57.912  39.377  70.687  0.00  0.00    +0.000 A 
ATOM      4  C   UNL     1      55.842  39.508  71.981  0.00  0.00    +0.000 A 
ATOM      5  C   UNL     1      56.615  39.861  70.861  0.00  0.00    +0.000 A 
ATOM      6  C   UNL     1      58.451  38.528  71.653  0.00  0.00    +0.000 A 
ATOM      7  C   UNL     1      56.376  38.649  72.946  0.00  0.00    +0.000 A 
ATOM      8  C   UNL     1      57.670  38.180  72.762  0.00  0.00    +0.000 A 
ATOM      9  C   UNL     1      54.534  39.959  72.201  0.00  0.00    +0.000 A 
ATOM     10  C   UNL     1      54.438  38.742  74.137  0.00  0.00    +0.000 A 
ATOM     11  N   UNL     1      53.932  40.816  71.243  0.00  0.00    +0.000 N 
ATOM     12  H   UNL     1      54.565  41.563  70.972  0.00  0.00    +0.000 HD
ENDROOT
BRANCH  11  13
ATOM     13  C   UNL     1      52.580  41.217  71.166  0.00  0.00    +0.000 A 
ATOM     14  C   UNL     1      51.640  40.330  70.629  0.00  0.00    +0.000 A 
ATOM     15  C   UNL     1      50.282  40.639  70.629  0.00  0.00    +0.000 A 
ATOM     16 CL   UNL     1      49.180  39.525  69.926  0.00  0.00    +0.000 Cl
ATOM     17  C   UNL     1      49.844  41.831  71.193  0.00  0.00    +0.000 A 
ATOM     18  F   UNL     1      48.541  42.147  71.202  0.00  0.00    +0.000 F 
ATOM     19  C   UNL     1      50.752  42.712  71.767  0.00  0.00    +0.000 A 
ATOM     20  C   UNL     1      52.108  42.391  71.765  0.00  0.00    +0.000 A 
ENDBRANCH  11  13
BRANCH   6  21
ATOM     21  O   UNL     1      59.732  38.074  71.442  0.00  0.00    +0.000 OA
ATOM     22  C   UNL     1      60.708  38.592  72.302  0.00  0.00    +0.000 C 
ENDBRANCH   6  21
BRANCH   3  23
ATOM     23  O   UNL     1      58.698  39.699  69.606  0.00  0.00    +0.000 OA
BRANCH  23  24
ATOM     24  C   UNL     1      58.658  38.819  68.608  0.00  0.00    +0.000 C 
ATOM     25  C   UNL     1      58.607  37.819  67.448  0.00  0.00    +0.000 C 
BRANCH  25  26
ATOM     26  C   UNL     1      58.550  36.846  66.266  0.00  0.00    +0.000 C 
BRANCH  26  27
ATOM     27  N   UNL     1      58.489  35.911  65.151  0.00  0.00    +0.000 N 
ATOM     28  C   UNL     1      57.266  35.078  65.357  0.00  0.00    +0.000 C 
ATOM     29  C   UNL     1      55.929  35.081  64.546  0.00  0.00    +0.000 C 
ATOM     30  O   UNL     1      55.464  35.778  63.486  0.00  0.00    +0.000 OA
ATOM     31  C   UNL     1      56.567  36.530  63.299  0.00  0.00    +0.000 C 
ATOM     32  C   UNL     1      57.962  36.674  63.980  0.00  0.00    +0.000 C 
ENDBRANCH  26  27
ENDBRANCH  25  26
ENDBRANCH  23  24
ENDBRANCH   3  23
TORSDOF 6
ENDMDL
MODEL 3
REMARK VINA RESULT:      -5.4     16.175     19.849
REMARK  Name = Gefitinib.pdbqt.pdb
REMARK  6 active torsions:
REMARK  status: ('A' for Active; 'I' for Inactive)
REMARK    1  A    between atoms: C_3  and  O_11
REMARK    2  A    between atoms: C_6  and  O_21
REMARK    3  A    between atoms: O_11  and  C_12
REMARK    4  A    between atoms: C_13  and  C_14
REMARK    5  A    between atoms: C_14  and  N_15
REMARK    6  A    between atoms: N_23  and  C_25
REMARK                            x       y       z     vdW  Elec       q    Type
REMARK                         _______ _______ _______ _____ _____    ______ ____
ROOT
ATOM      1  N   UNL     1      73.028  39.938  60.927  0.00  0.00    +0.000 NA
ATOM      2  N   UNL     1      72.721  41.823  62.352  0.00  0.00    +0.000 NA
ATOM      3  C   UNL     1      69.645  38.094  62.495  0.00  0.00    +0.000 A 
ATOM      4  C   UNL     1      71.171  40.002  62.433  0.00  0.00    +0.000 A 
ATOM      5  C   UNL     1      70.037  39.354  62.950  0.00  0.00    +0.000 A 
ATOM      6  C   UNL     1      70.400  37.471  61.501  0.00  0.00    +0.000 A 
ATOM      7  C   UNL     1      71.936  39.377  61.445  0.00  0.00    +0.000 A 
ATOM      8  C   UNL     1      71.531  38.125  60.998  0.00  0.00    +0.000 A 
ATOM      9  C   UNL     1      71.611  41.263  62.859  0.00  0.00    +0.000 A 
ATOM     10  C   UNL     1      73.377  41.138  61.408  0.00  0.00    +0.000 A 
ATOM     11  N   UNL     1      70.887  41.937  63.876  0.00  0.00    +0.000 N 
ATOM     12  H   UNL     1      69.888  41.910  63.693  0.00  0.00    +0.000 HD
ENDROOT
BRANCH  11  13
ATOM     13  C   UNL     1      71.262  43.101  64.583  0.00  0.00    +0.000 A 
ATOM     14  C   UNL     1      72.152  42.983  65.657  0.00  0.00    +0.000 A 
ATOM     15  C   UNL     1      72.632  44.112  66.316  0.00  0.00    +0.000 A 
ATOM     16 CL   UNL     1      73.696  43.904  67.649  0.00  0.00    +0.000 Cl
ATOM     17  C   UNL     1      72.248  45.378  65.889  0.00  0.00    +0.000 A 
ATOM     18  F   UNL     1      72.699  46.478  66.511  0.00  0.00    +0.000 F 
ATOM     19  C   UNL     1      71.397  45.524  64.801  0.00  0.00    +0.000 A 
ATOM     20  C   UNL     1      70.925  44.387  64.147  0.00  0.00    +0.000 A 
ENDBRANCH  11  13
BRANCH   6  21
ATOM     21  O   UNL     1      69.981  36.230  61.083  0.00  0.00    +0.000 OA
ATOM     22  C   UNL     1      70.930  35.471  60.388  0.00  0.00    +0.000 C 
ENDBRANCH   6  21
BRANCH   3  23
ATOM     23  O   UNL     1      68.543  37.428  62.975  0.00  0.00    +0.000 OA
BRANCH  23  24
ATOM     24  C   UNL     1      68.275  37.648  64.260  0.00  0.00    +0.000 C 
ATOM     25  C   UNL     1      67.978  37.916  65.739  0.00  0.00    +0.000 C 
BRANCH  25  26
ATOM     26  C   UNL     1      67.697  38.215  67.216  0.00  0.00    +0.000 C 
BRANCH  26  27
ATOM     27  N   UNL     1      67.444  38.495  68.622  0.00  0.00    +0.000 N 
ATOM     28  C   UNL     1      67.130  39.954  68.718  0.00  0.00    +0.000 C 
ATOM     29  C   UNL     1      65.763  40.643  69.033  0.00  0.00    +0.000 C 
ATOM     30  O   UNL     1      64.514  40.199  69.294  0.00  0.00    +0.000 OA
ATOM     31  C   UNL     1      64.796  38.884  69.207  0.00  0.00    +0.000 C 
ATOM     32  C   UNL     1      66.059  38.019  68.912  0.00  0.00    +0.000 C 
ENDBRANCH  26  27
ENDBRANCH  25  26
ENDBRANCH  23  24
ENDBRANCH   3  23
TORSDOF 6
ENDMDL
MODEL 4
REMARK VINA RESULT:      -5.3     11.061     14.293
REMARK  Name = Gefitinib.pdbqt.pdb
REMARK  6 active torsions:
REMARK  status: ('A' for Active; 'I' for Inactive)
REMARK    1  A    between atoms: C_3  and  O_11
REMARK    2  A    between atoms: C_6  and  O_21
REMARK    3  A    between atoms: O_11  and  C_12
REMARK    4  A    between atoms: C_13  and  C_14
REMARK    5  A    between atoms: C_14  and  N_15
REMARK    6  A    between atoms: N_23  and  C_25
REMARK                            x       y       z     vdW  Elec       q    Type
REMARK                         _______ _______ _______ _____ _____    ______ ____
ROOT
ATOM      1  N   UNL     1      55.360  37.286  77.148  0.00  0.00    +0.000 NA
ATOM      2  N   UNL     1      54.011  38.392  75.525  0.00  0.00    +0.000 NA
ATOM      3  C   UNL     1      58.735  37.701  74.752  0.00  0.00    +0.000 A 
ATOM      4  C   UNL     1      56.348  38.082  75.121  0.00  0.00    +0.000 A 
ATOM      5  C   UNL     1      57.503  38.203  74.329  0.00  0.00    +0.000 A 
ATOM      6  C   UNL     1      58.815  37.070  75.993  0.00  0.00    +0.000 A 
ATOM      7  C   UNL     1      56.424  37.441  76.360  0.00  0.00    +0.000 A 
ATOM      8  C   UNL     1      57.657  36.952  76.771  0.00  0.00    +0.000 A 
ATOM      9  C   UNL     1      55.087  38.562  74.741  0.00  0.00    +0.000 A 
ATOM     10  C   UNL     1      54.195  37.765  76.692  0.00  0.00    +0.000 A 
ATOM     11  N   UNL     1      54.946  39.202  73.482  0.00  0.00    +0.000 N 
ATOM     12  H   UNL     1      55.686  39.881  73.332  0.00  0.00    +0.000 HD
ENDROOT
BRANCH  11  13
ATOM     13  C   UNL     1      53.751  39.571  72.827  0.00  0.00    +0.000 A 
ATOM     14  C   UNL     1      53.451  40.931  72.680  0.00  0.00    +0.000 A 
ATOM     15  C   UNL     1      52.340  41.345  71.951  0.00  0.00    +0.000 A 
ATOM     16 CL   UNL     1      52.005  43.026  71.834  0.00  0.00    +0.000 Cl
ATOM     17  C   UNL     1      51.527  40.401  71.333  0.00  0.00    +0.000 A 
ATOM     18  F   UNL     1      50.452  40.780  70.627  0.00  0.00    +0.000 F 
ATOM     19  C   UNL     1      51.823  39.048  71.431  0.00  0.00    +0.000 A 
ATOM     20  C   UNL     1      52.940  38.645  72.160  0.00  0.00    +0.000 A 
ENDBRANCH  11  13
BRANCH   6  21
ATOM     21  O   UNL     1      60.047  36.590  76.371  0.00  0.00    +0.000 OA
ATOM     22  C   UNL     1      60.187  36.278  77.729  0.00  0.00    +0.000 C 
ENDBRANCH   6  21
BRANCH   3  23
ATOM     23  O   UNL     1      59.885  37.800  74.007  0.00  0.00    +0.000 OA
BRANCH  23  24
ATOM     24  C   UNL     1      59.693  38.097  72.724  0.00  0.00    +0.000 C 
ATOM     25  C   UNL     1      59.456  38.445  71.250  0.00  0.00    +0.000 C 
BRANCH  25  26
ATOM     26  C   UNL     1      59.189  38.810  69.786  0.00  0.00    +0.000 C 
BRANCH  26  27
ATOM     27  N   UNL     1      58.926  39.167  68.399  0.00  0.00    +0.000 N 
ATOM     28  C   UNL     1      59.853  40.290  68.064  0.00  0.00    +0.000 C 
ATOM     29  C   UNL     1      61.099  40.285  67.118  0.00  0.00    +0.000 C 
ATOM     30  O   UNL     1      61.709  39.349  66.358  0.00  0.00    +0.000 OA
ATOM     31  C   UNL     1      60.874  38.335  66.661  0.00  0.00    +0.000 C 
ATOM     32  C   UNL     1      59.612  38.143  67.555  0.00  0.00    +0.000 C 
ENDBRANCH  26  27
ENDBRANCH  25  26
ENDBRANCH  23  24
ENDBRANCH   3  23
TORSDOF 6
ENDMDL
MODEL 5
REMARK VINA RESULT:      -5.3     34.836     37.672
REMARK  Name = Gefitinib.pdbqt.pdb
REMARK  6 active torsions:
REMARK  status: ('A' for Active; 'I' for Inactive)
REMARK    1  A    between atoms: C_3  and  O_11
REMARK    2  A    between atoms: C_6  and  O_21
REMARK    3  A    between atoms: O_11  and  C_12
REMARK    4  A    between atoms: C_13  and  C_14
REMARK    5  A    between atoms: C_14  and  N_15
REMARK    6  A    between atoms: N_23  and  C_25
REMARK                            x       y       z     vdW  Elec       q    Type
REMARK                         _______ _______ _______ _____ _____    ______ ____
ROOT
ATOM      1  N   UNL     1      59.116  72.868  68.714  0.00  0.00    +0.000 NA
ATOM      2  N   UNL     1      59.328  70.511  68.437  0.00  0.00    +0.000 NA
ATOM      3  C   UNL     1      63.185  73.226  69.505  0.00  0.00    +0.000 A 
ATOM      4  C   UNL     1      61.258  71.829  68.947  0.00  0.00    +0.000 A 
ATOM      5  C   UNL     1      62.628  71.978  69.223  0.00  0.00    +0.000 A 
ATOM      6  C   UNL     1      62.357  74.349  69.505  0.00  0.00    +0.000 A 
ATOM      7  C   UNL     1      60.425  72.950  68.957  0.00  0.00    +0.000 A 
ATOM      8  C   UNL     1      60.993  74.187  69.233  0.00  0.00    +0.000 A 
ATOM      9  C   UNL     1      60.648  70.599  68.664  0.00  0.00    +0.000 A 
ATOM     10  C   UNL     1      58.623  71.648  68.469  0.00  0.00    +0.000 A 
ATOM     11  N   UNL     1      61.441  69.422  68.662  0.00  0.00    +0.000 N 
ATOM     12  H   UNL     1      62.301  69.562  68.142  0.00  0.00    +0.000 HD
ENDROOT
BRANCH  11  13
ATOM     13  C   UNL     1      61.002  68.081  68.605  0.00  0.00    +0.000 A 
ATOM     14  C   UNL     1      60.861  67.468  67.354  0.00  0.00    +0.000 A 
ATOM     15  C   UNL     1      60.534  66.118  67.251  0.00  0.00    +0.000 A 
ATOM     16 CL   UNL     1      60.342  65.430  65.689  0.00  0.00    +0.000 Cl
ATOM     17  C   UNL     1      60.370  65.356  68.402  0.00  0.00    +0.000 A 
ATOM     18  F   UNL     1      60.054  64.055  68.323  0.00  0.00    +0.000 F 
ATOM     19  C   UNL     1      60.542  65.931  69.655  0.00  0.00    +0.000 A 
ATOM     20  C   UNL     1      60.873  67.281  69.746  0.00  0.00    +0.000 A 
ENDBRANCH  11  13
BRANCH   6  21
ATOM     21  O   UNL     1      62.946  75.559  69.789  0.00  0.00    +0.000 OA
ATOM     22  C   UNL     1      63.027  76.459  68.720  0.00  0.00    +0.000 C 
ENDBRANCH   6  21
BRANCH   3  23
ATOM     23  O   UNL     1      64.518  73.412  69.780  0.00  0.00    +0.000 OA
BRANCH  23  24
ATOM     24  C   UNL     1      65.334  72.536  69.198  0.00  0.00    +0.000 C 
ATOM     25  C   UNL     1      66.279  71.540  68.517  0.00  0.00    +0.000 C 
BRANCH  25  26
ATOM     26  C   UNL     1      67.239  70.571  67.818  0.00  0.00    +0.000 C 
BRANCH  26  27
ATOM     27  N   UNL     1      68.161  69.661  67.153  0.00  0.00    +0.000 N 
ATOM     28  C   UNL     1      67.804  68.282  67.608  0.00  0.00    +0.000 C 
ATOM     29  C   UNL     1      67.139  67.124  66.795  0.00  0.00    +0.000 C 
ATOM     30  O   UNL     1      66.696  66.987  65.526  0.00  0.00    +0.000 OA
ATOM     31  C   UNL     1      67.017  68.230  65.116  0.00  0.00    +0.000 C 
ATOM     32  C   UNL     1      67.666  69.495  65.754  0.00  0.00    +0.000 C 
ENDBRANCH  26  27
ENDBRANCH  25  26
ENDBRANCH  23  24
ENDBRANCH   3  23
TORSDOF 6
ENDMDL
MODEL 6
REMARK VINA RESULT:      -5.3     14.129     15.733
REMARK  Name = Gefitinib.pdbqt.pdb
REMARK  6 active torsions:
REMARK  status: ('A' for Active; 'I' for Inactive)
REMARK    1  A    between atoms: C_3  and  O_11
REMARK    2  A    between atoms: C_6  and  O_21
REMARK    3  A    between atoms: O_11  and  C_12
REMARK    4  A    between atoms: C_13  and  C_14
REMARK    5  A    between atoms: C_14  and  N_15
REMARK    6  A    between atoms: N_23  and  C_25
REMARK                            x       y       z     vdW  Elec       q    Type
REMARK                         _______ _______ _______ _____ _____    ______ ____
ROOT
ATOM      1  N   UNL     1      56.467  51.494  57.712  0.00  0.00    +0.000 NA
ATOM      2  N   UNL     1      56.542  49.439  56.510  0.00  0.00    +0.000 NA
ATOM      3  C   UNL     1      52.482  50.858  58.721  0.00  0.00    +0.000 A 
ATOM      4  C   UNL     1      54.524  50.104  57.609  0.00  0.00    +0.000 A 
ATOM      5  C   UNL     1      53.176  49.917  57.959  0.00  0.00    +0.000 A 
ATOM      6  C   UNL     1      53.150  52.006  59.147  0.00  0.00    +0.000 A 
ATOM      7  C   UNL     1      55.193  51.258  58.024  0.00  0.00    +0.000 A 
ATOM      8  C   UNL     1      54.492  52.183  58.787  0.00  0.00    +0.000 A 
ATOM      9  C   UNL     1      55.264  49.195  56.840  0.00  0.00    +0.000 A 
ATOM     10  C   UNL     1      57.087  50.575  56.962  0.00  0.00    +0.000 A 
ATOM     11  N   UNL     1      54.630  48.015  56.371  0.00  0.00    +0.000 N 
ATOM     12  H   UNL     1      54.102  47.565  57.112  0.00  0.00    +0.000 HD
ENDROOT
BRANCH  11  13
ATOM     13  C   UNL     1      55.121  47.083  55.431  0.00  0.00    +0.000 A 
ATOM     14  C   UNL     1      54.465  46.952  54.201  0.00  0.00    +0.000 A 
ATOM     15  C   UNL     1      54.972  46.123  53.203  0.00  0.00    +0.000 A 
ATOM     16 CL   UNL     1      54.105  45.977  51.728  0.00  0.00    +0.000 Cl
ATOM     17  C   UNL     1      56.161  45.434  53.414  0.00  0.00    +0.000 A 
ATOM     18  F   UNL     1      56.665  44.631  52.466  0.00  0.00    +0.000 F 
ATOM     19  C   UNL     1      56.852  45.576  54.611  0.00  0.00    +0.000 A 
ATOM     20  C   UNL     1      56.337  46.411  55.601  0.00  0.00    +0.000 A 
ENDBRANCH  11  13
BRANCH   6  21
ATOM     21  O   UNL     1      52.430  52.907  59.895  0.00  0.00    +0.000 OA
ATOM     22  C   UNL     1      52.997  54.181  60.023  0.00  0.00    +0.000 C 
ENDBRANCH   6  21
BRANCH   3  23
ATOM     23  O   UNL     1      51.165  50.711  59.084  0.00  0.00    +0.000 OA
BRANCH  23  24
ATOM     24  C   UNL     1      50.429  50.003  58.230  0.00  0.00    +0.000 C 
ATOM     25  C   UNL     1      49.567  49.196  57.253  0.00  0.00    +0.000 C 
BRANCH  25  26
ATOM     26  C   UNL     1      48.677  48.409  56.285  0.00  0.00    +0.000 C 
BRANCH  26  27
ATOM     27  N   UNL     1      47.820  47.670  55.368  0.00  0.00    +0.000 N 
ATOM     28  C   UNL     1      48.434  46.316  55.207  0.00  0.00    +0.000 C 
ATOM     29  C   UNL     1      47.917  44.937  55.732  0.00  0.00    +0.000 C 
ATOM     30  O   UNL     1      46.844  44.535  56.449  0.00  0.00    +0.000 OA
ATOM     31  C   UNL     1      46.291  45.756  56.595  0.00  0.00    +0.000 C 
ATOM     32  C   UNL     1      46.640  47.212  56.160  0.00  0.00    +0.000 C 
ENDBRANCH  26  27
ENDBRANCH  25  26
ENDBRANCH  23  24
ENDBRANCH   3  23
TORSDOF 6
ENDMDL
MODEL 7
REMARK VINA RESULT:      -5.2      3.755      8.236
REMARK  Name = Gefitinib.pdbqt.pdb
REMARK  6 active torsions:
REMARK  status: ('A' for Active; 'I' for Inactive)
REMARK    1  A    between atoms: C_3  and  O_11
REMARK    2  A    between atoms: C_6  and  O_21
REMARK    3  A    between atoms: O_11  and  C_12
REMARK    4  A    between atoms: C_13  and  C_14
REMARK    5  A    between atoms: C_14  and  N_15
REMARK    6  A    between atoms: N_23  and  C_25
REMARK                            x       y       z     vdW  Elec       q    Type
REMARK                         _______ _______ _______ _____ _____    ______ ____
ROOT
ATOM      1  N   UNL     1      53.221  33.304  55.517  0.00  0.00    +0.000 NA
ATOM      2  N   UNL     1      54.312  31.396  56.436  0.00  0.00    +0.000 NA
ATOM      3  C   UNL     1      51.749  34.371  59.259  0.00  0.00    +0.000 A 
ATOM      4  C   UNL     1      53.067  32.859  57.861  0.00  0.00    +0.000 A 
ATOM      5  C   UNL     1      52.551  33.239  59.113  0.00  0.00    +0.000 A 
ATOM      6  C   UNL     1      51.459  35.142  58.132  0.00  0.00    +0.000 A 
ATOM      7  C   UNL     1      52.770  33.623  56.730  0.00  0.00    +0.000 A 
ATOM      8  C   UNL     1      51.975  34.750  56.891  0.00  0.00    +0.000 A 
ATOM      9  C   UNL     1      53.871  31.729  57.660  0.00  0.00    +0.000 A 
ATOM     10  C   UNL     1      53.969  32.199  55.421  0.00  0.00    +0.000 A 
ATOM     11  N   UNL     1      54.186  30.902  58.769  0.00  0.00    +0.000 N 
ATOM     12  H   UNL     1      54.483  31.457  59.566  0.00  0.00    +0.000 HD
ENDROOT
BRANCH  11  13
ATOM     13  C   UNL     1      54.800  29.630  58.755  0.00  0.00    +0.000 A 
ATOM     14  C   UNL     1      56.159  29.531  59.075  0.00  0.00    +0.000 A 
ATOM     15  C   UNL     1      56.782  28.289  59.178  0.00  0.00    +0.000 A 
ATOM     16 CL   UNL     1      58.460  28.232  59.540  0.00  0.00    +0.000 Cl
ATOM     17  C   UNL     1      56.043  27.127  58.989  0.00  0.00    +0.000 A 
ATOM     18  F   UNL     1      56.624  25.922  59.083  0.00  0.00    +0.000 F 
ATOM     19  C   UNL     1      54.684  27.197  58.709  0.00  0.00    +0.000 A 
ATOM     20  C   UNL     1      54.071  28.444  58.612  0.00  0.00    +0.000 A 
ENDBRANCH  11  13
BRANCH   6  21
ATOM     21  O   UNL     1      50.665  36.249  58.320  0.00  0.00    +0.000 OA
ATOM     22  C   UNL     1      51.265  37.482  58.040  0.00  0.00    +0.000 C 
ENDBRANCH   6  21
BRANCH   3  23
ATOM     23  O   UNL     1      51.226  34.775  60.464  0.00  0.00    +0.000 OA
BRANCH  23  24
ATOM     24  C   UNL     1      52.133  35.116  61.376  0.00  0.00    +0.000 C 
ATOM     25  C   UNL     1      53.178  35.525  62.421  0.00  0.00    +0.000 C 
BRANCH  25  26
ATOM     26  C   UNL     1      54.220  35.968  63.454  0.00  0.00    +0.000 C 
BRANCH  26  27
ATOM     27  N   UNL     1      55.218  36.395  64.425  0.00  0.00    +0.000 N 
ATOM     28  C   UNL     1      56.035  35.188  64.755  0.00  0.00    +0.000 C 
ATOM     29  C   UNL     1      57.520  34.876  64.378  0.00  0.00    +0.000 C 
ATOM     30  O   UNL     1      58.479  35.527  63.682  0.00  0.00    +0.000 OA
ATOM     31  C   UNL     1      57.742  36.614  63.383  0.00  0.00    +0.000 C 
ATOM     32  C   UNL     1      56.287  37.101  63.658  0.00  0.00    +0.000 C 
ENDBRANCH  26  27
ENDBRANCH  25  26
ENDBRANCH  23  24
ENDBRANCH   3  23
TORSDOF 6
ENDMDL
MODEL 8
REMARK VINA RESULT:      -5.2     24.346     27.548
REMARK  Name = Gefitinib.pdbqt.pdb
REMARK  6 active torsions:
REMARK  status: ('A' for Active; 'I' for Inactive)
REMARK    1  A    between atoms: C_3  and  O_11
REMARK    2  A    between atoms: C_6  and  O_21
REMARK    3  A    between atoms: O_11  and  C_12
REMARK    4  A    between atoms: C_13  and  C_14
REMARK    5  A    between atoms: C_14  and  N_15
REMARK    6  A    between atoms: N_23  and  C_25
REMARK                            x       y       z     vdW  Elec       q    Type
REMARK                         _______ _______ _______ _____ _____    ______ ____
ROOT
ATOM      1  N   UNL     1      61.000  55.032  61.606  0.00  0.00    +0.000 NA
ATOM      2  N   UNL     1      59.690  56.957  61.098  0.00  0.00    +0.000 NA
ATOM      3  C   UNL     1      64.452  56.919  60.253  0.00  0.00    +0.000 A 
ATOM      4  C   UNL     1      62.046  56.976  60.685  0.00  0.00    +0.000 A 
ATOM      5  C   UNL     1      63.227  57.587  60.229  0.00  0.00    +0.000 A 
ATOM      6  C   UNL     1      64.499  55.615  60.747  0.00  0.00    +0.000 A 
ATOM      7  C   UNL     1      62.089  55.667  61.171  0.00  0.00    +0.000 A 
ATOM      8  C   UNL     1      63.316  55.016  61.194  0.00  0.00    +0.000 A 
ATOM      9  C   UNL     1      60.791  57.600  60.677  0.00  0.00    +0.000 A 
ATOM     10  C   UNL     1      59.844  55.705  61.545  0.00  0.00    +0.000 A 
ATOM     11  N   UNL     1      60.683  58.922  60.174  0.00  0.00    +0.000 N 
ATOM     12  H   UNL     1      61.415  59.517  60.550  0.00  0.00    +0.000 HD
ENDROOT
BRANCH  11  13
ATOM     13  C   UNL     1      59.506  59.649  59.891  0.00  0.00    +0.000 A 
ATOM     14  C   UNL     1      59.213  60.786  60.653  0.00  0.00    +0.000 A 
ATOM     15  C   UNL     1      58.121  61.593  60.344  0.00  0.00    +0.000 A 
ATOM     16 CL   UNL     1      57.792  62.957  61.335  0.00  0.00    +0.000 Cl
ATOM     17  C   UNL     1      57.323  61.287  59.247  0.00  0.00    +0.000 A 
ATOM     18  F   UNL     1      56.266  62.052  58.934  0.00  0.00    +0.000 F 
ATOM     19  C   UNL     1      57.614  60.187  58.452  0.00  0.00    +0.000 A 
ATOM     20  C   UNL     1      58.711  59.388  58.768  0.00  0.00    +0.000 A 
ENDBRANCH  11  13
BRANCH   6  21
ATOM     21  O   UNL     1      65.726  54.993  60.752  0.00  0.00    +0.000 OA
ATOM     22  C   UNL     1      65.765  53.725  60.161  0.00  0.00    +0.000 C 
ENDBRANCH   6  21
BRANCH   3  23
ATOM     23  O   UNL     1      65.627  57.482  59.816  0.00  0.00    +0.000 OA
BRANCH  23  24
ATOM     24  C   UNL     1      66.143  58.397  60.634  0.00  0.00    +0.000 C 
ATOM     25  C   UNL     1      66.721  59.455  61.579  0.00  0.00    +0.000 C 
BRANCH  25  26
ATOM     26  C   UNL     1      67.266  60.522  62.536  0.00  0.00    +0.000 C 
BRANCH  26  27
ATOM     27  N   UNL     1      67.785  61.544  63.433  0.00  0.00    +0.000 N 
ATOM     28  C   UNL     1      67.792  62.825  62.663  0.00  0.00    +0.000 C 
ATOM     29  C   UNL     1      66.885  64.085  62.848  0.00  0.00    +0.000 C 
ATOM     30  O   UNL     1      65.874  64.413  63.683  0.00  0.00    +0.000 OA
ATOM     31  C   UNL     1      65.867  63.257  64.377  0.00  0.00    +0.000 C 
ATOM     32  C   UNL     1      66.667  61.920  64.349  0.00  0.00    +0.000 C 
ENDBRANCH  26  27
ENDBRANCH  25  26
ENDBRANCH  23  24
ENDBRANCH   3  23
TORSDOF 6
ENDMDL
MODEL 9
REMARK VINA RESULT:      -5.1     27.051     29.670
REMARK  Name = Gefitinib.pdbqt.pdb
REMARK  6 active torsions:
REMARK  status: ('A' for Active; 'I' for Inactive)
REMARK    1  A    between atoms: C_3  and  O_11
REMARK    2  A    between atoms: C_6  and  O_21
REMARK    3  A    between atoms: O_11  and  C_12
REMARK    4  A    between atoms: C_13  and  C_14
REMARK    5  A    between atoms: C_14  and  N_15
REMARK    6  A    between atoms: N_23  and  C_25
REMARK                            x       y       z     vdW  Elec       q    Type
REMARK                         _______ _______ _______ _____ _____    ______ ____
ROOT
ATOM      1  N   UNL     1      49.755  54.906  81.524  0.00  0.00    +0.000 NA
ATOM      2  N   UNL     1      51.135  56.845  81.640  0.00  0.00    +0.000 NA
ATOM      3  C   UNL     1      48.624  55.839  77.631  0.00  0.00    +0.000 A 
ATOM      4  C   UNL     1      49.920  56.365  79.636  0.00  0.00    +0.000 A 
ATOM      5  C   UNL     1      49.516  56.660  78.322  0.00  0.00    +0.000 A 
ATOM      6  C   UNL     1      48.129  54.698  78.263  0.00  0.00    +0.000 A 
ATOM      7  C   UNL     1      49.417  55.229  80.275  0.00  0.00    +0.000 A 
ATOM      8  C   UNL     1      48.535  54.418  79.573  0.00  0.00    +0.000 A 
ATOM      9  C   UNL     1      50.807  57.159  80.376  0.00  0.00    +0.000 A 
ATOM     10  C   UNL     1      50.597  55.733  82.155  0.00  0.00    +0.000 A 
ATOM     11  N   UNL     1      51.332  58.337  79.786  0.00  0.00    +0.000 N 
ATOM     12  H   UNL     1      51.659  58.158  78.842  0.00  0.00    +0.000 HD
ENDROOT
BRANCH  11  13
ATOM     13  C   UNL     1      52.067  59.368  80.413  0.00  0.00    +0.000 A 
ATOM     14  C   UNL     1      53.464  59.345  80.337  0.00  0.00    +0.000 A 
ATOM     15  C   UNL     1      54.227  60.392  80.848  0.00  0.00    +0.000 A 
ATOM     16 CL   UNL     1      55.939  60.292  80.755  0.00  0.00    +0.000 Cl
ATOM     17  C   UNL     1      53.596  61.493  81.417  0.00  0.00    +0.000 A 
ATOM     18  F   UNL     1      54.313  62.511  81.915  0.00  0.00    +0.000 F 
ATOM     19  C   UNL     1      52.210  61.558  81.470  0.00  0.00    +0.000 A 
ATOM     20  C   UNL     1      51.457  60.506  80.953  0.00  0.00    +0.000 A 
ENDBRANCH  11  13
BRANCH   6  21
ATOM     21  O   UNL     1      47.252  53.918  77.546  0.00  0.00    +0.000 OA
ATOM     22  C   UNL     1      46.103  53.508  78.234  0.00  0.00    +0.000 C 
ENDBRANCH   6  21
BRANCH   3  23
ATOM     23  O   UNL     1      48.205  56.093  76.347  0.00  0.00    +0.000 OA
BRANCH  23  24
ATOM     24  C   UNL     1      48.366  57.353  75.949  0.00  0.00    +0.000 C 
ATOM     25  C   UNL     1      48.554  58.809  75.507  0.00  0.00    +0.000 C 
BRANCH  25  26
ATOM     26  C   UNL     1      48.753  60.272  75.098  0.00  0.00    +0.000 C 
BRANCH  26  27
ATOM     27  N   UNL     1      48.950  61.659  74.699  0.00  0.00    +0.000 N 
ATOM     28  C   UNL     1      49.544  62.362  75.876  0.00  0.00    +0.000 C 
ATOM     29  C   UNL     1      50.995  62.916  76.056  0.00  0.00    +0.000 C 
ATOM     30  O   UNL     1      52.105  62.940  75.286  0.00  0.00    +0.000 OA
ATOM     31  C   UNL     1      51.570  62.305  74.224  0.00  0.00    +0.000 C 
ATOM     32  C   UNL     1      50.184  61.691  73.858  0.00  0.00    +0.000 C 
ENDBRANCH  26  27
ENDBRANCH  25  26
ENDBRANCH  23  24
ENDBRANCH   3  23
TORSDOF 6
ENDMDL
