MODEL 1
REMARK VINA RESULT:      -5.8      0.000      0.000
REMARK  Name = Genistein.pdbqt.pdb
REMARK  4 active torsions:
REMARK  status: ('A' for Active; 'I' for Inactive)
REMARK    1  A    between atoms: C_4  and  C_12
REMARK    2  A    between atoms: C_7  and  O_20
REMARK    3  A    between atoms: C_11  and  O_22
REMARK    4  A    between atoms: C_17  and  O_18
REMARK                            x       y       z     vdW  Elec       q    Type
REMARK                         _______ _______ _______ _____ _____    ______ ____
ROOT
ATOM      1  O   UNL     1      58.348  37.948  67.849  0.00  0.00    +0.000 OA
ATOM      2  O   UNL     1      59.740  40.371  70.963  0.00  0.00    +0.000 OA
ATOM      3  C   UNL     1      60.156  39.299  68.881  0.00  0.00    +0.000 A 
ATOM      4  C   UNL     1      57.911  39.083  70.051  0.00  0.00    +0.000 A 
ATOM      5  C   UNL     1      59.640  38.470  67.842  0.00  0.00    +0.000 A 
ATOM      6  C   UNL     1      59.296  39.658  70.070  0.00  0.00    +0.000 A 
ATOM      7  C   UNL     1      61.466  39.777  68.787  0.00  0.00    +0.000 A 
ATOM      8  C   UNL     1      57.792  38.387  68.965  0.00  0.00    +0.000 A 
ATOM      9  C   UNL     1      60.433  38.139  66.746  0.00  0.00    +0.000 A 
ATOM     10  C   UNL     1      62.254  39.441  67.687  0.00  0.00    +0.000 A 
ATOM     11  C   UNL     1      61.733  38.630  66.681  0.00  0.00    +0.000 A 
ENDROOT
BRANCH   4  12
ATOM     12  C   UNL     1      56.873  39.264  71.064  0.00  0.00    +0.000 A 
ATOM     13  C   UNL     1      56.903  38.547  72.263  0.00  0.00    +0.000 A 
ATOM     14  C   UNL     1      55.823  40.165  70.853  0.00  0.00    +0.000 A 
ATOM     15  C   UNL     1      55.914  38.719  73.230  0.00  0.00    +0.000 A 
ATOM     16  C   UNL     1      54.827  40.346  71.812  0.00  0.00    +0.000 A 
ATOM     17  C   UNL     1      54.882  39.620  72.994  0.00  0.00    +0.000 A 
BRANCH  17  18
ATOM     18  O   UNL     1      53.898  39.811  73.920  0.00  0.00    +0.000 OA
ATOM     19  H   UNL     1      54.317  40.069  74.761  0.00  0.00    +0.000 HD
ENDBRANCH  17  18
ENDBRANCH   4  12
BRANCH   7  20
ATOM     20  O   UNL     1      62.046  40.578  69.734  0.00  0.00    +0.000 OA
ATOM     21  H   UNL     1      62.279  41.439  69.319  0.00  0.00    +0.000 HD
ENDBRANCH   7  20
BRANCH  11  22
ATOM     22  O   UNL     1      62.495  38.295  65.599  0.00  0.00    +0.000 OA
ATOM     23  H   UNL     1      61.898  38.013  64.883  0.00  0.00    +0.000 HD
ENDBRANCH  11  22
TORSDOF 4
ENDMDL
MODEL 2
REMARK VINA RESULT:      -5.5     14.023     16.943
REMARK  Name = Genistein.pdbqt.pdb
REMARK  4 active torsions:
REMARK  status: ('A' for Active; 'I' for Inactive)
REMARK    1  A    between atoms: C_4  and  C_12
REMARK    2  A    between atoms: C_7  and  O_20
REMARK    3  A    between atoms: C_11  and  O_22
REMARK    4  A    between atoms: C_17  and  O_18
REMARK                            x       y       z     vdW  Elec       q    Type
REMARK                         _______ _______ _______ _____ _____    ______ ____
ROOT
ATOM      1  O   UNL     1      64.141  38.457  53.710  0.00  0.00    +0.000 OA
ATOM      2  O   UNL     1      61.493  41.082  55.607  0.00  0.00    +0.000 OA
ATOM      3  C   UNL     1      62.308  38.865  55.333  0.00  0.00    +0.000 A 
ATOM      4  C   UNL     1      63.276  40.801  54.003  0.00  0.00    +0.000 A 
ATOM      5  C   UNL     1      63.228  38.007  54.662  0.00  0.00    +0.000 A 
ATOM      6  C   UNL     1      62.284  40.345  55.030  0.00  0.00    +0.000 A 
ATOM      7  C   UNL     1      61.429  38.322  56.275  0.00  0.00    +0.000 A 
ATOM      8  C   UNL     1      63.940  39.759  53.611  0.00  0.00    +0.000 A 
ATOM      9  C   UNL     1      63.249  36.643  54.941  0.00  0.00    +0.000 A 
ATOM     10  C   UNL     1      61.456  36.956  56.549  0.00  0.00    +0.000 A 
ATOM     11  C   UNL     1      62.362  36.133  55.883  0.00  0.00    +0.000 A 
ENDROOT
BRANCH   4  12
ATOM     12  C   UNL     1      63.472  42.166  53.518  0.00  0.00    +0.000 A 
ATOM     13  C   UNL     1      64.366  43.035  54.149  0.00  0.00    +0.000 A 
ATOM     14  C   UNL     1      62.765  42.633  52.404  0.00  0.00    +0.000 A 
ATOM     15  C   UNL     1      64.554  44.336  53.687  0.00  0.00    +0.000 A 
ATOM     16  C   UNL     1      62.943  43.933  51.932  0.00  0.00    +0.000 A 
ATOM     17  C   UNL     1      63.838  44.774  52.579  0.00  0.00    +0.000 A 
BRANCH  17  18
ATOM     18  O   UNL     1      63.999  46.042  52.102  0.00  0.00    +0.000 OA
ATOM     19  H   UNL     1      64.886  46.108  51.706  0.00  0.00    +0.000 HD
ENDBRANCH  17  18
ENDBRANCH   4  12
BRANCH   7  20
ATOM     20  O   UNL     1      60.513  39.068  56.967  0.00  0.00    +0.000 OA
ATOM     21  H   UNL     1      60.658  40.019  56.759  0.00  0.00    +0.000 HD
ENDBRANCH   7  20
BRANCH  11  22
ATOM     22  O   UNL     1      62.399  34.793  56.144  0.00  0.00    +0.000 OA
ATOM     23  H   UNL     1      63.061  34.637  56.840  0.00  0.00    +0.000 HD
ENDBRANCH  11  22
TORSDOF 4
ENDMDL
MODEL 3
REMARK VINA RESULT:      -5.5     12.229     13.553
REMARK  Name = Genistein.pdbqt.pdb
REMARK  4 active torsions:
REMARK  status: ('A' for Active; 'I' for Inactive)
REMARK    1  A    between atoms: C_4  and  C_12
REMARK    2  A    between atoms: C_7  and  O_20
REMARK    3  A    between atoms: C_11  and  O_22
REMARK    4  A    between atoms: C_17  and  O_18
REMARK                            x       y       z     vdW  Elec       q    Type
REMARK                         _______ _______ _______ _____ _____    ______ ____
ROOT
ATOM      1  O   UNL     1      51.849  33.079  59.541  0.00  0.00    +0.000 OA
ATOM      2  O   UNL     1      50.456  36.950  58.781  0.00  0.00    +0.000 OA
ATOM      3  C   UNL     1      51.590  35.009  58.003  0.00  0.00    +0.000 A 
ATOM      4  C   UNL     1      50.650  35.133  60.360  0.00  0.00    +0.000 A 
ATOM      5  C   UNL     1      52.047  33.693  58.307  0.00  0.00    +0.000 A 
ATOM      6  C   UNL     1      50.849  35.818  59.042  0.00  0.00    +0.000 A 
ATOM      7  C   UNL     1      51.835  35.543  56.735  0.00  0.00    +0.000 A 
ATOM      8  C   UNL     1      51.192  33.959  60.276  0.00  0.00    +0.000 A 
ATOM      9  C   UNL     1      52.731  32.948  57.349  0.00  0.00    +0.000 A 
ATOM     10  C   UNL     1      52.520  34.791  55.782  0.00  0.00    +0.000 A 
ATOM     11  C   UNL     1      52.959  33.506  56.096  0.00  0.00    +0.000 A 
ENDROOT
BRANCH   4  12
ATOM     12  C   UNL     1      49.974  35.675  61.537  0.00  0.00    +0.000 A 
ATOM     13  C   UNL     1      50.631  35.776  62.766  0.00  0.00    +0.000 A 
ATOM     14  C   UNL     1      48.645  36.108  61.457  0.00  0.00    +0.000 A 
ATOM     15  C   UNL     1      49.987  36.293  63.888  0.00  0.00    +0.000 A 
ATOM     16  C   UNL     1      47.988  36.628  62.572  0.00  0.00    +0.000 A 
ATOM     17  C   UNL     1      48.667  36.716  63.780  0.00  0.00    +0.000 A 
BRANCH  17  18
ATOM     18  O   UNL     1      48.008  37.227  64.859  0.00  0.00    +0.000 OA
ATOM     19  H   UNL     1      48.651  37.346  65.581  0.00  0.00    +0.000 HD
ENDBRANCH  17  18
ENDBRANCH   4  12
BRANCH   7  20
ATOM     20  O   UNL     1      51.434  36.795  56.354  0.00  0.00    +0.000 OA
ATOM     21  H   UNL     1      50.699  36.708  55.706  0.00  0.00    +0.000 HD
ENDBRANCH   7  20
BRANCH  11  22
ATOM     22  O   UNL     1      53.631  32.760  55.171  0.00  0.00    +0.000 OA
ATOM     23  H   UNL     1      53.042  32.044  54.872  0.00  0.00    +0.000 HD
ENDBRANCH  11  22
TORSDOF 4
ENDMDL
MODEL 4
REMARK VINA RESULT:      -5.5     14.052     16.876
REMARK  Name = Genistein.pdbqt.pdb
REMARK  4 active torsions:
REMARK  status: ('A' for Active; 'I' for Inactive)
REMARK    1  A    between atoms: C_4  and  C_12
REMARK    2  A    between atoms: C_7  and  O_20
REMARK    3  A    between atoms: C_11  and  O_22
REMARK    4  A    between atoms: C_17  and  O_18
REMARK                            x       y       z     vdW  Elec       q    Type
REMARK                         _______ _______ _______ _____ _____    ______ ____
ROOT
ATOM      1  O   UNL     1      63.361  37.684  53.007  0.00  0.00    +0.000 OA
ATOM      2  O   UNL     1      62.894  36.042  56.827  0.00  0.00    +0.000 OA
ATOM      3  C   UNL     1      62.711  37.928  55.390  0.00  0.00    +0.000 A 
ATOM      4  C   UNL     1      63.553  35.691  54.530  0.00  0.00    +0.000 A 
ATOM      5  C   UNL     1      62.886  38.446  54.072  0.00  0.00    +0.000 A 
ATOM      6  C   UNL     1      63.044  36.487  55.694  0.00  0.00    +0.000 A 
ATOM      7  C   UNL     1      62.227  38.770  56.396  0.00  0.00    +0.000 A 
ATOM      8  C   UNL     1      63.582  36.478  53.501  0.00  0.00    +0.000 A 
ATOM      9  C   UNL     1      62.579  39.774  53.792  0.00  0.00    +0.000 A 
ATOM     10  C   UNL     1      61.922  40.099  56.107  0.00  0.00    +0.000 A 
ATOM     11  C   UNL     1      62.099  40.587  54.814  0.00  0.00    +0.000 A 
ENDROOT
BRANCH   4  12
ATOM     12  C   UNL     1      63.950  34.284  54.536  0.00  0.00    +0.000 A 
ATOM     13  C   UNL     1      63.071  33.284  54.113  0.00  0.00    +0.000 A 
ATOM     14  C   UNL     1      65.228  33.908  54.966  0.00  0.00    +0.000 A 
ATOM     15  C   UNL     1      63.449  31.943  54.118  0.00  0.00    +0.000 A 
ATOM     16  C   UNL     1      65.619  32.570  54.977  0.00  0.00    +0.000 A 
ATOM     17  C   UNL     1      64.724  31.597  54.551  0.00  0.00    +0.000 A 
BRANCH  17  18
ATOM     18  O   UNL     1      65.125  30.293  54.568  0.00  0.00    +0.000 OA
ATOM     19  H   UNL     1      65.155  29.972  53.649  0.00  0.00    +0.000 HD
ENDBRANCH  17  18
ENDBRANCH   4  12
BRANCH   7  20
ATOM     20  O   UNL     1      62.027  38.362  57.687  0.00  0.00    +0.000 OA
ATOM     21  H   UNL     1      62.497  38.982  58.290  0.00  0.00    +0.000 HD
ENDBRANCH   7  20
BRANCH  11  22
ATOM     22  O   UNL     1      61.804  41.886  54.520  0.00  0.00    +0.000 OA
ATOM     23  H   UNL     1      62.429  42.194  53.840  0.00  0.00    +0.000 HD
ENDBRANCH  11  22
TORSDOF 4
ENDMDL
MODEL 5
REMARK VINA RESULT:      -5.4     27.664     29.185
REMARK  Name = Genistein.pdbqt.pdb
REMARK  4 active torsions:
REMARK  status: ('A' for Active; 'I' for Inactive)
REMARK    1  A    between atoms: C_4  and  C_12
REMARK    2  A    between atoms: C_7  and  O_20
REMARK    3  A    between atoms: C_11  and  O_22
REMARK    4  A    between atoms: C_17  and  O_18
REMARK                            x       y       z     vdW  Elec       q    Type
REMARK                         _______ _______ _______ _____ _____    ______ ____
ROOT
ATOM      1  O   UNL     1      59.278  66.224  67.491  0.00  0.00    +0.000 OA
ATOM      2  O   UNL     1      60.828  68.550  70.604  0.00  0.00    +0.000 OA
ATOM      3  C   UNL     1      59.049  67.222  69.752  0.00  0.00    +0.000 A 
ATOM      4  C   UNL     1      61.158  67.629  68.396  0.00  0.00    +0.000 A 
ATOM      5  C   UNL     1      58.560  66.437  68.666  0.00  0.00    +0.000 A 
ATOM      6  C   UNL     1      60.408  67.876  69.671  0.00  0.00    +0.000 A 
ATOM      7  C   UNL     1      58.256  67.379  70.893  0.00  0.00    +0.000 A 
ATOM      8  C   UNL     1      60.415  66.880  67.644  0.00  0.00    +0.000 A 
ATOM      9  C   UNL     1      57.307  65.835  68.741  0.00  0.00    +0.000 A 
ATOM     10  C   UNL     1      57.003  66.774  70.961  0.00  0.00    +0.000 A 
ATOM     11  C   UNL     1      56.542  66.010  69.890  0.00  0.00    +0.000 A 
ENDROOT
BRANCH   4  12
ATOM     12  C   UNL     1      62.484  68.135  68.047  0.00  0.00    +0.000 A 
ATOM     13  C   UNL     1      62.721  69.505  67.909  0.00  0.00    +0.000 A 
ATOM     14  C   UNL     1      63.551  67.252  67.844  0.00  0.00    +0.000 A 
ATOM     15  C   UNL     1      63.985  69.988  67.578  0.00  0.00    +0.000 A 
ATOM     16  C   UNL     1      64.821  67.722  67.511  0.00  0.00    +0.000 A 
ATOM     17  C   UNL     1      65.027  69.089  67.381  0.00  0.00    +0.000 A 
BRANCH  17  18
ATOM     18  O   UNL     1      66.276  69.530  67.055  0.00  0.00    +0.000 OA
ATOM     19  H   UNL     1      66.883  69.287  67.778  0.00  0.00    +0.000 HD
ENDBRANCH  17  18
ENDBRANCH   4  12
BRANCH   7  20
ATOM     20  O   UNL     1      58.642  68.113  71.982  0.00  0.00    +0.000 OA
ATOM     21  H   UNL     1      59.003  68.974  71.671  0.00  0.00    +0.000 HD
ENDBRANCH   7  20
BRANCH  11  22
ATOM     22  O   UNL     1      55.316  65.412  69.945  0.00  0.00    +0.000 OA
ATOM     23  H   UNL     1      55.446  64.448  69.896  0.00  0.00    +0.000 HD
ENDBRANCH  11  22
TORSDOF 4
ENDMDL
MODEL 6
REMARK VINA RESULT:      -5.2     10.948     13.595
REMARK  Name = Genistein.pdbqt.pdb
REMARK  4 active torsions:
REMARK  status: ('A' for Active; 'I' for Inactive)
REMARK    1  A    between atoms: C_4  and  C_12
REMARK    2  A    between atoms: C_7  and  O_20
REMARK    3  A    between atoms: C_11  and  O_22
REMARK    4  A    between atoms: C_17  and  O_18
REMARK                            x       y       z     vdW  Elec       q    Type
REMARK                         _______ _______ _______ _____ _____    ______ ____
ROOT
ATOM      1  O   UNL     1      48.706  36.023  61.947  0.00  0.00    +0.000 OA
ATOM      2  O   UNL     1      52.877  35.715  61.811  0.00  0.00    +0.000 OA
ATOM      3  C   UNL     1      50.896  35.926  63.111  0.00  0.00    +0.000 A 
ATOM      4  C   UNL     1      50.803  35.799  60.575  0.00  0.00    +0.000 A 
ATOM      5  C   UNL     1      49.474  36.029  63.109  0.00  0.00    +0.000 A 
ATOM      6  C   UNL     1      51.654  35.803  61.809  0.00  0.00    +0.000 A 
ATOM      7  C   UNL     1      51.582  35.941  64.329  0.00  0.00    +0.000 A 
ATOM      8  C   UNL     1      49.568  35.909  60.951  0.00  0.00    +0.000 A 
ATOM      9  C   UNL     1      48.776  36.143  64.309  0.00  0.00    +0.000 A 
ATOM     10  C   UNL     1      50.876  36.055  65.525  0.00  0.00    +0.000 A 
ATOM     11  C   UNL     1      49.486  36.154  65.505  0.00  0.00    +0.000 A 
ENDROOT
BRANCH   4  12
ATOM     12  C   UNL     1      51.265  35.694  59.192  0.00  0.00    +0.000 A 
ATOM     13  C   UNL     1      51.234  36.797  58.335  0.00  0.00    +0.000 A 
ATOM     14  C   UNL     1      51.752  34.480  58.695  0.00  0.00    +0.000 A 
ATOM     15  C   UNL     1      51.675  36.698  57.017  0.00  0.00    +0.000 A 
ATOM     16  C   UNL     1      52.195  34.366  57.378  0.00  0.00    +0.000 A 
ATOM     17  C   UNL     1      52.153  35.479  56.549  0.00  0.00    +0.000 A 
BRANCH  17  18
ATOM     18  O   UNL     1      52.592  35.348  55.264  0.00  0.00    +0.000 OA
ATOM     19  H   UNL     1      52.706  34.400  55.076  0.00  0.00    +0.000 HD
ENDBRANCH  17  18
ENDBRANCH   4  12
BRANCH   7  20
ATOM     20  O   UNL     1      52.944  35.847  64.428  0.00  0.00    +0.000 OA
ATOM     21  H   UNL     1      53.226  34.970  64.080  0.00  0.00    +0.000 HD
ENDBRANCH   7  20
BRANCH  11  22
ATOM     22  O   UNL     1      48.784  36.266  66.670  0.00  0.00    +0.000 OA
ATOM     23  H   UNL     1      48.742  35.387  67.085  0.00  0.00    +0.000 HD
ENDBRANCH  11  22
TORSDOF 4
ENDMDL
MODEL 7
REMARK VINA RESULT:      -5.1     25.435     28.033
REMARK  Name = Genistein.pdbqt.pdb
REMARK  4 active torsions:
REMARK  status: ('A' for Active; 'I' for Inactive)
REMARK    1  A    between atoms: C_4  and  C_12
REMARK    2  A    between atoms: C_7  and  O_20
REMARK    3  A    between atoms: C_11  and  O_22
REMARK    4  A    between atoms: C_17  and  O_18
REMARK                            x       y       z     vdW  Elec       q    Type
REMARK                         _______ _______ _______ _____ _____    ______ ____
ROOT
ATOM      1  O   UNL     1      55.527  65.011  83.323  0.00  0.00    +0.000 OA
ATOM      2  O   UNL     1      55.715  61.108  84.820  0.00  0.00    +0.000 OA
ATOM      3  C   UNL     1      55.960  63.443  85.199  0.00  0.00    +0.000 A 
ATOM      4  C   UNL     1      55.268  62.540  82.927  0.00  0.00    +0.000 A 
ATOM      5  C   UNL     1      55.884  64.756  84.646  0.00  0.00    +0.000 A 
ATOM      6  C   UNL     1      55.648  62.236  84.345  0.00  0.00    +0.000 A 
ATOM      7  C   UNL     1      56.327  63.286  86.538  0.00  0.00    +0.000 A 
ATOM      8  C   UNL     1      55.304  63.827  82.780  0.00  0.00    +0.000 A 
ATOM      9  C   UNL     1      56.172  65.868  85.432  0.00  0.00    +0.000 A 
ATOM     10  C   UNL     1      56.614  64.404  87.319  0.00  0.00    +0.000 A 
ATOM     11  C   UNL     1      56.534  65.679  86.762  0.00  0.00    +0.000 A 
ENDROOT
BRANCH   4  12
ATOM     12  C   UNL     1      54.918  61.575  81.887  0.00  0.00    +0.000 A 
ATOM     13  C   UNL     1      53.596  61.414  81.466  0.00  0.00    +0.000 A 
ATOM     14  C   UNL     1      55.908  60.787  81.287  0.00  0.00    +0.000 A 
ATOM     15  C   UNL     1      53.262  60.494  80.474  0.00  0.00    +0.000 A 
ATOM     16  C   UNL     1      55.588  59.862  80.293  0.00  0.00    +0.000 A 
ATOM     17  C   UNL     1      54.265  59.724  79.895  0.00  0.00    +0.000 A 
BRANCH  17  18
ATOM     18  O   UNL     1      53.971  58.814  78.921  0.00  0.00    +0.000 OA
ATOM     19  H   UNL     1      53.651  58.001  79.351  0.00  0.00    +0.000 HD
ENDBRANCH  17  18
ENDBRANCH   4  12
BRANCH   7  20
ATOM     20  O   UNL     1      56.427  62.067  87.153  0.00  0.00    +0.000 OA
ATOM     21  H   UNL     1      57.303  61.674  86.935  0.00  0.00    +0.000 HD
ENDBRANCH   7  20
BRANCH  11  22
ATOM     22  O   UNL     1      56.812  66.782  87.517  0.00  0.00    +0.000 OA
ATOM     23  H   UNL     1      56.031  67.362  87.507  0.00  0.00    +0.000 HD
ENDBRANCH  11  22
TORSDOF 4
ENDMDL
MODEL 8
REMARK VINA RESULT:      -5.1     24.582     25.741
REMARK  Name = Genistein.pdbqt.pdb
REMARK  4 active torsions:
REMARK  status: ('A' for Active; 'I' for Inactive)
REMARK    1  A    between atoms: C_4  and  C_12
REMARK    2  A    between atoms: C_7  and  O_20
REMARK    3  A    between atoms: C_11  and  O_22
REMARK    4  A    between atoms: C_17  and  O_18
REMARK                            x       y       z     vdW  Elec       q    Type
REMARK                         _______ _______ _______ _____ _____    ______ ____
ROOT
ATOM      1  O   UNL     1      55.959  65.843  69.998  0.00  0.00    +0.000 OA
ATOM      2  O   UNL     1      58.032  63.713  67.052  0.00  0.00    +0.000 OA
ATOM      3  C   UNL     1      58.063  65.354  68.773  0.00  0.00    +0.000 A 
ATOM      4  C   UNL     1      55.930  64.108  68.176  0.00  0.00    +0.000 A 
ATOM      5  C   UNL     1      57.317  66.056  69.766  0.00  0.00    +0.000 A 
ATOM      6  C   UNL     1      57.390  64.316  67.905  0.00  0.00    +0.000 A 
ATOM      7  C   UNL     1      59.422  65.636  68.614  0.00  0.00    +0.000 A 
ATOM      8  C   UNL     1      55.593  64.910  69.136  0.00  0.00    +0.000 A 
ATOM      9  C   UNL     1      57.936  67.012  70.566  0.00  0.00    +0.000 A 
ATOM     10  C   UNL     1      60.035  66.594  69.418  0.00  0.00    +0.000 A 
ATOM     11  C   UNL     1      59.291  67.270  70.383  0.00  0.00    +0.000 A 
ENDROOT
BRANCH   4  12
ATOM     12  C   UNL     1      55.036  63.176  67.492  0.00  0.00    +0.000 A 
ATOM     13  C   UNL     1      54.557  63.446  66.208  0.00  0.00    +0.000 A 
ATOM     14  C   UNL     1      54.640  61.985  68.113  0.00  0.00    +0.000 A 
ATOM     15  C   UNL     1      53.705  62.558  65.555  0.00  0.00    +0.000 A 
ATOM     16  C   UNL     1      53.787  61.088  67.471  0.00  0.00    +0.000 A 
ATOM     17  C   UNL     1      53.327  61.383  66.195  0.00  0.00    +0.000 A 
BRANCH  17  18
ATOM     18  O   UNL     1      52.494  60.492  65.583  0.00  0.00    +0.000 OA
ATOM     19  H   UNL     1      52.566  59.640  66.047  0.00  0.00    +0.000 HD
ENDBRANCH  17  18
ENDBRANCH   4  12
BRANCH   7  20
ATOM     20  O   UNL     1      60.217  65.013  67.689  0.00  0.00    +0.000 OA
ATOM     21  H   UNL     1      60.814  64.386  68.158  0.00  0.00    +0.000 HD
ENDBRANCH   7  20
BRANCH  11  22
ATOM     22  O   UNL     1      59.881  68.211  71.177  0.00  0.00    +0.000 OA
ATOM     23  H   UNL     1      60.809  68.305  70.899  0.00  0.00    +0.000 HD
ENDBRANCH  11  22
TORSDOF 4
ENDMDL
MODEL 9
REMARK VINA RESULT:      -5.0     14.227     16.214
REMARK  Name = Genistein.pdbqt.pdb
REMARK  4 active torsions:
REMARK  status: ('A' for Active; 'I' for Inactive)
REMARK    1  A    between atoms: C_4  and  C_12
REMARK    2  A    between atoms: C_7  and  O_20
REMARK    3  A    between atoms: C_11  and  O_22
REMARK    4  A    between atoms: C_17  and  O_18
REMARK                            x       y       z     vdW  Elec       q    Type
REMARK                         _______ _______ _______ _____ _____    ______ ____
ROOT
ATOM      1  O   UNL     1      54.588  31.199  56.450  0.00  0.00    +0.000 OA
ATOM      2  O   UNL     1      52.985  34.550  54.525  0.00  0.00    +0.000 OA
ATOM      3  C   UNL     1      54.338  32.598  54.414  0.00  0.00    +0.000 A 
ATOM      4  C   UNL     1      53.157  33.265  56.563  0.00  0.00    +0.000 A 
ATOM      5  C   UNL     1      54.862  31.469  55.111  0.00  0.00    +0.000 A 
ATOM      6  C   UNL     1      53.435  33.580  55.123  0.00  0.00    +0.000 A 
ATOM      7  C   UNL     1      54.669  32.786  53.069  0.00  0.00    +0.000 A 
ATOM      8  C   UNL     1      53.793  32.175  56.854  0.00  0.00    +0.000 A 
ATOM      9  C   UNL     1      55.695  30.564  54.457  0.00  0.00    +0.000 A 
ATOM     10  C   UNL     1      55.503  31.876  52.422  0.00  0.00    +0.000 A 
ATOM     11  C   UNL     1      56.006  30.778  53.118  0.00  0.00    +0.000 A 
ENDROOT
BRANCH   4  12
ATOM     12  C   UNL     1      52.325  34.036  57.484  0.00  0.00    +0.000 A 
ATOM     13  C   UNL     1      51.262  33.441  58.169  0.00  0.00    +0.000 A 
ATOM     14  C   UNL     1      52.577  35.396  57.702  0.00  0.00    +0.000 A 
ATOM     15  C   UNL     1      50.469  34.175  59.047  0.00  0.00    +0.000 A 
ATOM     16  C   UNL     1      51.790  36.143  58.578  0.00  0.00    +0.000 A 
ATOM     17  C   UNL     1      50.741  35.524  59.244  0.00  0.00    +0.000 A 
BRANCH  17  18
ATOM     18  O   UNL     1      49.983  36.271  60.098  0.00  0.00    +0.000 OA
ATOM     19  H   UNL     1      49.087  36.346  59.724  0.00  0.00    +0.000 HD
ENDBRANCH  17  18
ENDBRANCH   4  12
BRANCH   7  20
ATOM     20  O   UNL     1      54.213  33.838  52.322  0.00  0.00    +0.000 OA
ATOM     21  H   UNL     1      53.447  34.247  52.786  0.00  0.00    +0.000 HD
ENDBRANCH   7  20
BRANCH  11  22
ATOM     22  O   UNL     1      56.823  29.880  52.495  0.00  0.00    +0.000 OA
ATOM     23  H   UNL     1      57.707  30.280  52.413  0.00  0.00    +0.000 HD
ENDBRANCH  11  22
TORSDOF 4
ENDMDL
