MODEL 1
REMARK VINA RESULT:      -5.6      0.000      0.000
REMARK  Name = Hyoscyamine.pdbqt.pdb
REMARK  6 active torsions:
REMARK  status: ('A' for Active; 'I' for Inactive)
REMARK    1  A    between atoms: C_2  and  O_3
REMARK    2  A    between atoms: C_2  and  C_13
REMARK    3  A    between atoms: O_3  and  C_4
REMARK    4  A    between atoms: C_13  and  C_14
REMARK    5  A    between atoms: C_13  and  C_20
REMARK    6  A    between atoms: C_20  and  O_21
REMARK                            x       y       z     vdW  Elec       q    Type
REMARK                         _______ _______ _______ _____ _____    ______ ____
ROOT
ATOM      1  O   UNL     1      46.804  40.277  72.451  0.00  0.00    +0.000 OA
ATOM      2  C   UNL     1      47.167  41.245  73.109  0.00  0.00    +0.000 C 
ENDROOT
BRANCH   2   3
ATOM      3  O   UNL     1      48.397  41.440  73.667  0.00  0.00    +0.000 OA
BRANCH   3   4
ATOM      4  C   UNL     1      49.443  41.181  72.781  0.00  0.00    +0.000 C 
ATOM      5  C   UNL     1      50.572  40.360  73.182  0.00  0.00    +0.000 C 
ATOM      6  C   UNL     1      51.987  40.595  72.867  0.00  0.00    +0.000 C 
ATOM      7  N   UNL     1      52.159  42.112  73.028  0.00  0.00    +0.000 NA
ATOM      8  C   UNL     1      52.309  40.348  71.472  0.00  0.00    +0.000 C 
ATOM      9  C   UNL     1      51.429  42.520  71.739  0.00  0.00    +0.000 C 
ATOM     10  C   UNL     1      53.577  42.500  72.988  0.00  0.00    +0.000 C 
ATOM     11  C   UNL     1      51.945  41.625  70.713  0.00  0.00    +0.000 C 
ATOM     12  C   UNL     1      50.008  42.293  72.043  0.00  0.00    +0.000 C 
ENDBRANCH   3   4
ENDBRANCH   2   3
BRANCH   2  13
ATOM     13  C   UNL     1      46.260  42.384  73.442  0.00  0.00    +0.000 C 
BRANCH  13  14
ATOM     14  C   UNL     1      45.287  42.961  72.495  0.00  0.00    +0.000 A 
ATOM     15  C   UNL     1      45.634  44.068  71.713  0.00  0.00    +0.000 A 
ATOM     16  C   UNL     1      44.713  44.647  70.841  0.00  0.00    +0.000 A 
ATOM     17  C   UNL     1      43.426  44.128  70.747  0.00  0.00    +0.000 A 
ATOM     18  C   UNL     1      43.061  43.034  71.525  0.00  0.00    +0.000 A 
ATOM     19  C   UNL     1      43.987  42.460  72.395  0.00  0.00    +0.000 A 
ENDBRANCH  13  14
BRANCH  13  20
ATOM     20  C   UNL     1      46.313  42.881  74.782  0.00  0.00    +0.000 C 
BRANCH  20  21
ATOM     21  O   UNL     1      46.363  43.343  76.027  0.00  0.00    +0.000 OA
ATOM     22  H   UNL     1      46.700  44.256  76.039  0.00  0.00    +0.000 HD
ENDBRANCH  20  21
ENDBRANCH  13  20
ENDBRANCH   2  13
TORSDOF 6
ENDMDL
MODEL 2
REMARK VINA RESULT:      -5.6     11.822     13.439
REMARK  Name = Hyoscyamine.pdbqt.pdb
REMARK  6 active torsions:
REMARK  status: ('A' for Active; 'I' for Inactive)
REMARK    1  A    between atoms: C_2  and  O_3
REMARK    2  A    between atoms: C_2  and  C_13
REMARK    3  A    between atoms: O_3  and  C_4
REMARK    4  A    between atoms: C_13  and  C_14
REMARK    5  A    between atoms: C_13  and  C_20
REMARK    6  A    between atoms: C_20  and  O_21
REMARK                            x       y       z     vdW  Elec       q    Type
REMARK                         _______ _______ _______ _____ _____    ______ ____
ROOT
ATOM      1  O   UNL     1      48.462  34.411  62.613  0.00  0.00    +0.000 OA
ATOM      2  C   UNL     1      48.344  35.396  61.895  0.00  0.00    +0.000 C 
ENDROOT
BRANCH   2   3
ATOM      3  O   UNL     1      48.679  35.492  60.575  0.00  0.00    +0.000 OA
BRANCH   3   4
ATOM      4  C   UNL     1      50.022  35.205  60.332  0.00  0.00    +0.000 C 
ATOM      5  C   UNL     1      50.920  36.222  59.814  0.00  0.00    +0.000 C 
ATOM      6  C   UNL     1      51.961  36.041  58.794  0.00  0.00    +0.000 C 
ATOM      7  N   UNL     1      51.311  35.116  57.757  0.00  0.00    +0.000 NA
ATOM      8  C   UNL     1      53.105  35.285  59.276  0.00  0.00    +0.000 C 
ATOM      9  C   UNL     1      51.387  33.824  58.585  0.00  0.00    +0.000 C 
ATOM     10  C   UNL     1      52.126  35.020  56.536  0.00  0.00    +0.000 C 
ATOM     11  C   UNL     1      52.734  33.808  59.137  0.00  0.00    +0.000 C 
ATOM     12  C   UNL     1      50.344  33.991  59.609  0.00  0.00    +0.000 C 
ENDBRANCH   3   4
ENDBRANCH   2   3
BRANCH   2  13
ATOM     13  C   UNL     1      47.829  36.706  62.395  0.00  0.00    +0.000 C 
BRANCH  13  14
ATOM     14  C   UNL     1      48.285  37.343  63.644  0.00  0.00    +0.000 A 
ATOM     15  C   UNL     1      49.370  36.813  64.352  0.00  0.00    +0.000 A 
ATOM     16  C   UNL     1      49.789  37.384  65.553  0.00  0.00    +0.000 A 
ATOM     17  C   UNL     1      49.120  38.489  66.068  0.00  0.00    +0.000 A 
ATOM     18  C   UNL     1      48.033  39.021  65.383  0.00  0.00    +0.000 A 
ATOM     19  C   UNL     1      47.618  38.446  64.182  0.00  0.00    +0.000 A 
ENDBRANCH  13  14
BRANCH  13  20
ATOM     20  C   UNL     1      46.888  37.390  61.562  0.00  0.00    +0.000 C 
BRANCH  20  21
ATOM     21  O   UNL     1      46.015  38.027  60.789  0.00  0.00    +0.000 OA
ATOM     22  H   UNL     1      45.572  37.402  60.189  0.00  0.00    +0.000 HD
ENDBRANCH  20  21
ENDBRANCH  13  20
ENDBRANCH   2  13
TORSDOF 6
ENDMDL
MODEL 3
REMARK VINA RESULT:      -5.3     13.067     15.579
REMARK  Name = Hyoscyamine.pdbqt.pdb
REMARK  6 active torsions:
REMARK  status: ('A' for Active; 'I' for Inactive)
REMARK    1  A    between atoms: C_2  and  O_3
REMARK    2  A    between atoms: C_2  and  C_13
REMARK    3  A    between atoms: O_3  and  C_4
REMARK    4  A    between atoms: C_13  and  C_14
REMARK    5  A    between atoms: C_13  and  C_20
REMARK    6  A    between atoms: C_20  and  O_21
REMARK                            x       y       z     vdW  Elec       q    Type
REMARK                         _______ _______ _______ _____ _____    ______ ____
ROOT
ATOM      1  O   UNL     1      50.709  33.911  60.408  0.00  0.00    +0.000 OA
ATOM      2  C   UNL     1      51.325  34.947  60.187  0.00  0.00    +0.000 C 
ENDROOT
BRANCH   2   3
ATOM      3  O   UNL     1      51.658  35.910  61.095  0.00  0.00    +0.000 OA
BRANCH   3   4
ATOM      4  C   UNL     1      52.413  35.417  62.159  0.00  0.00    +0.000 C 
ATOM      5  C   UNL     1      52.502  36.147  63.412  0.00  0.00    +0.000 C 
ATOM      6  C   UNL     1      53.700  36.328  64.242  0.00  0.00    +0.000 C 
ATOM      7  N   UNL     1      54.823  36.580  63.227  0.00  0.00    +0.000 NA
ATOM      8  C   UNL     1      54.106  35.114  64.928  0.00  0.00    +0.000 C 
ATOM      9  C   UNL     1      54.948  35.134  62.724  0.00  0.00    +0.000 C 
ATOM     10  C   UNL     1      56.057  37.026  63.891  0.00  0.00    +0.000 C 
ATOM     11  C   UNL     1      54.941  34.314  63.927  0.00  0.00    +0.000 C 
ATOM     12  C   UNL     1      53.754  34.940  61.886  0.00  0.00    +0.000 C 
ENDBRANCH   3   4
ENDBRANCH   2   3
BRANCH   2  13
ATOM     13  C   UNL     1      51.786  35.339  58.823  0.00  0.00    +0.000 C 
BRANCH  13  14
ATOM     14  C   UNL     1      52.139  34.372  57.767  0.00  0.00    +0.000 A 
ATOM     15  C   UNL     1      53.479  34.046  57.527  0.00  0.00    +0.000 A 
ATOM     16  C   UNL     1      53.830  33.161  56.509  0.00  0.00    +0.000 A 
ATOM     17  C   UNL     1      52.842  32.596  55.709  0.00  0.00    +0.000 A 
ATOM     18  C   UNL     1      51.506  32.917  55.927  0.00  0.00    +0.000 A 
ATOM     19  C   UNL     1      51.162  33.803  56.947  0.00  0.00    +0.000 A 
ENDBRANCH  13  14
BRANCH  13  20
ATOM     20  C   UNL     1      51.816  36.739  58.528  0.00  0.00    +0.000 C 
BRANCH  20  21
ATOM     21  O   UNL     1      51.844  38.039  58.254  0.00  0.00    +0.000 OA
ATOM     22  H   UNL     1      51.162  38.510  58.765  0.00  0.00    +0.000 HD
ENDBRANCH  20  21
ENDBRANCH  13  20
ENDBRANCH   2  13
TORSDOF 6
ENDMDL
MODEL 4
REMARK VINA RESULT:      -5.1     25.328     27.559
REMARK  Name = Hyoscyamine.pdbqt.pdb
REMARK  6 active torsions:
REMARK  status: ('A' for Active; 'I' for Inactive)
REMARK    1  A    between atoms: C_2  and  O_3
REMARK    2  A    between atoms: C_2  and  C_13
REMARK    3  A    between atoms: O_3  and  C_4
REMARK    4  A    between atoms: C_13  and  C_14
REMARK    5  A    between atoms: C_13  and  C_20
REMARK    6  A    between atoms: C_20  and  O_21
REMARK                            x       y       z     vdW  Elec       q    Type
REMARK                         _______ _______ _______ _____ _____    ______ ____
ROOT
ATOM      1  O   UNL     1      73.192  53.598  65.436  0.00  0.00    +0.000 OA
ATOM      2  C   UNL     1      72.271  53.465  66.233  0.00  0.00    +0.000 C 
ENDROOT
BRANCH   2   3
ATOM      3  O   UNL     1      72.348  52.949  67.494  0.00  0.00    +0.000 OA
BRANCH   3   4
ATOM      4  C   UNL     1      73.258  53.629  68.305  0.00  0.00    +0.000 C 
ATOM      5  C   UNL     1      73.788  53.014  69.508  0.00  0.00    +0.000 C 
ATOM      6  C   UNL     1      74.013  53.666  70.805  0.00  0.00    +0.000 C 
ATOM      7  N   UNL     1      72.785  54.568  70.987  0.00  0.00    +0.000 NA
ATOM      8  C   UNL     1      75.133  54.591  70.791  0.00  0.00    +0.000 C 
ATOM      9  C   UNL     1      73.189  55.643  69.966  0.00  0.00    +0.000 C 
ATOM     10  C   UNL     1      72.719  55.118  72.350  0.00  0.00    +0.000 C 
ATOM     11  C   UNL     1      74.595  55.911  70.238  0.00  0.00    +0.000 C 
ATOM     12  C   UNL     1      72.965  55.003  68.661  0.00  0.00    +0.000 C 
ENDBRANCH   3   4
ENDBRANCH   2   3
BRANCH   2  13
ATOM     13  C   UNL     1      70.860  53.828  65.907  0.00  0.00    +0.000 C 
BRANCH  13  14
ATOM     14  C   UNL     1      70.414  55.203  65.614  0.00  0.00    +0.000 A 
ATOM     15  C   UNL     1      70.100  55.579  64.303  0.00  0.00    +0.000 A 
ATOM     16  C   UNL     1      69.713  56.885  64.006  0.00  0.00    +0.000 A 
ATOM     17  C   UNL     1      69.643  57.836  65.019  0.00  0.00    +0.000 A 
ATOM     18  C   UNL     1      69.961  57.481  66.325  0.00  0.00    +0.000 A 
ATOM     19  C   UNL     1      70.348  56.174  66.616  0.00  0.00    +0.000 A 
ENDBRANCH  13  14
BRANCH  13  20
ATOM     20  C   UNL     1      69.920  52.753  65.817  0.00  0.00    +0.000 C 
BRANCH  20  21
ATOM     21  O   UNL     1      69.048  51.754  65.733  0.00  0.00    +0.000 OA
ATOM     22  H   UNL     1      68.749  51.638  64.813  0.00  0.00    +0.000 HD
ENDBRANCH  20  21
ENDBRANCH  13  20
ENDBRANCH   2  13
TORSDOF 6
ENDMDL
MODEL 5
REMARK VINA RESULT:      -5.1     20.987     23.391
REMARK  Name = Hyoscyamine.pdbqt.pdb
REMARK  6 active torsions:
REMARK  status: ('A' for Active; 'I' for Inactive)
REMARK    1  A    between atoms: C_2  and  O_3
REMARK    2  A    between atoms: C_2  and  C_13
REMARK    3  A    between atoms: O_3  and  C_4
REMARK    4  A    between atoms: C_13  and  C_14
REMARK    5  A    between atoms: C_13  and  C_20
REMARK    6  A    between atoms: C_20  and  O_21
REMARK                            x       y       z     vdW  Elec       q    Type
REMARK                         _______ _______ _______ _____ _____    ______ ____
ROOT
ATOM      1  O   UNL     1      62.166  52.973  56.897  0.00  0.00    +0.000 OA
ATOM      2  C   UNL     1      62.708  52.981  57.996  0.00  0.00    +0.000 C 
ENDROOT
BRANCH   2   3
ATOM      3  O   UNL     1      63.118  54.077  58.698  0.00  0.00    +0.000 OA
BRANCH   3   4
ATOM      4  C   UNL     1      62.271  54.390  59.761  0.00  0.00    +0.000 C 
ATOM      5  C   UNL     1      60.861  54.654  59.538  0.00  0.00    +0.000 C 
ATOM      6  C   UNL     1      60.047  55.694  60.181  0.00  0.00    +0.000 C 
ATOM      7  N   UNL     1      60.969  56.920  60.220  0.00  0.00    +0.000 NA
ATOM      8  C   UNL     1      59.767  55.415  61.579  0.00  0.00    +0.000 C 
ATOM      9  C   UNL     1      61.886  56.427  61.351  0.00  0.00    +0.000 C 
ATOM     10  C   UNL     1      60.236  58.132  60.612  0.00  0.00    +0.000 C 
ATOM     11  C   UNL     1      60.984  55.904  62.367  0.00  0.00    +0.000 C 
ATOM     12  C   UNL     1      62.711  55.387  60.718  0.00  0.00    +0.000 C 
ENDBRANCH   3   4
ENDBRANCH   2   3
BRANCH   2  13
ATOM     13  C   UNL     1      63.047  51.732  58.741  0.00  0.00    +0.000 C 
BRANCH  13  14
ATOM     14  C   UNL     1      64.426  51.314  59.055  0.00  0.00    +0.000 A 
ATOM     15  C   UNL     1      65.409  52.272  59.330  0.00  0.00    +0.000 A 
ATOM     16  C   UNL     1      66.724  51.893  59.593  0.00  0.00    +0.000 A 
ATOM     17  C   UNL     1      67.077  50.548  59.575  0.00  0.00    +0.000 A 
ATOM     18  C   UNL     1      66.115  49.584  59.294  0.00  0.00    +0.000 A 
ATOM     19  C   UNL     1      64.801  49.969  59.031  0.00  0.00    +0.000 A 
ENDBRANCH  13  14
BRANCH  13  20
ATOM     20  C   UNL     1      61.951  50.948  59.222  0.00  0.00    +0.000 C 
BRANCH  20  21
ATOM     21  O   UNL     1      60.933  50.220  59.669  0.00  0.00    +0.000 OA
ATOM     22  H   UNL     1      60.687  50.495  60.570  0.00  0.00    +0.000 HD
ENDBRANCH  20  21
ENDBRANCH  13  20
ENDBRANCH   2  13
TORSDOF 6
ENDMDL
MODEL 6
REMARK VINA RESULT:      -4.9     12.788     15.303
REMARK  Name = Hyoscyamine.pdbqt.pdb
REMARK  6 active torsions:
REMARK  status: ('A' for Active; 'I' for Inactive)
REMARK    1  A    between atoms: C_2  and  O_3
REMARK    2  A    between atoms: C_2  and  C_13
REMARK    3  A    between atoms: O_3  and  C_4
REMARK    4  A    between atoms: C_13  and  C_14
REMARK    5  A    between atoms: C_13  and  C_20
REMARK    6  A    between atoms: C_20  and  O_21
REMARK                            x       y       z     vdW  Elec       q    Type
REMARK                         _______ _______ _______ _____ _____    ______ ____
ROOT
ATOM      1  O   UNL     1      49.339  36.102  60.429  0.00  0.00    +0.000 OA
ATOM      2  C   UNL     1      50.411  35.553  60.209  0.00  0.00    +0.000 C 
ENDROOT
BRANCH   2   3
ATOM      3  O   UNL     1      51.650  36.006  60.558  0.00  0.00    +0.000 OA
BRANCH   3   4
ATOM      4  C   UNL     1      52.132  35.425  61.731  0.00  0.00    +0.000 C 
ATOM      5  C   UNL     1      52.024  36.116  63.004  0.00  0.00    +0.000 C 
ATOM      6  C   UNL     1      53.040  36.173  64.063  0.00  0.00    +0.000 C 
ATOM      7  N   UNL     1      54.362  36.348  63.305  0.00  0.00    +0.000 NA
ATOM      8  C   UNL     1      53.199  34.913  64.768  0.00  0.00    +0.000 C 
ATOM      9  C   UNL     1      54.468  34.908  62.779  0.00  0.00    +0.000 C 
ATOM     10  C   UNL     1      55.468  36.670  64.219  0.00  0.00    +0.000 C 
ATOM     11  C   UNL     1      54.152  34.065  63.923  0.00  0.00    +0.000 C 
ATOM     12  C   UNL     1      53.457  34.839  61.712  0.00  0.00    +0.000 C 
ENDBRANCH   3   4
ENDBRANCH   2   3
BRANCH   2  13
ATOM     13  C   UNL     1      50.523  34.267  59.458  0.00  0.00    +0.000 C 
BRANCH  13  14
ATOM     14  C   UNL     1      51.591  33.977  58.484  0.00  0.00    +0.000 A 
ATOM     15  C   UNL     1      51.827  34.848  57.414  0.00  0.00    +0.000 A 
ATOM     16  C   UNL     1      52.809  34.567  56.465  0.00  0.00    +0.000 A 
ATOM     17  C   UNL     1      53.564  33.404  56.570  0.00  0.00    +0.000 A 
ATOM     18  C   UNL     1      53.336  32.522  57.621  0.00  0.00    +0.000 A 
ATOM     19  C   UNL     1      52.352  32.808  58.567  0.00  0.00    +0.000 A 
ENDBRANCH  13  14
BRANCH  13  20
ATOM     20  C   UNL     1      49.564  33.251  59.769  0.00  0.00    +0.000 C 
BRANCH  20  21
ATOM     21  O   UNL     1      48.674  32.308  60.058  0.00  0.00    +0.000 OA
ATOM     22  H   UNL     1      49.109  31.441  60.139  0.00  0.00    +0.000 HD
ENDBRANCH  20  21
ENDBRANCH  13  20
ENDBRANCH   2  13
TORSDOF 6
ENDMDL
MODEL 7
REMARK VINA RESULT:      -4.9     13.221     15.564
REMARK  Name = Hyoscyamine.pdbqt.pdb
REMARK  6 active torsions:
REMARK  status: ('A' for Active; 'I' for Inactive)
REMARK    1  A    between atoms: C_2  and  O_3
REMARK    2  A    between atoms: C_2  and  C_13
REMARK    3  A    between atoms: O_3  and  C_4
REMARK    4  A    between atoms: C_13  and  C_14
REMARK    5  A    between atoms: C_13  and  C_20
REMARK    6  A    between atoms: C_20  and  O_21
REMARK                            x       y       z     vdW  Elec       q    Type
REMARK                         _______ _______ _______ _____ _____    ______ ____
ROOT
ATOM      1  O   UNL     1      61.747  38.449  70.063  0.00  0.00    +0.000 OA
ATOM      2  C   UNL     1      61.743  39.514  69.457  0.00  0.00    +0.000 C 
ENDROOT
BRANCH   2   3
ATOM      3  O   UNL     1      62.332  40.681  69.849  0.00  0.00    +0.000 OA
BRANCH   3   4
ATOM      4  C   UNL     1      63.724  40.600  69.894  0.00  0.00    +0.000 C 
ATOM      5  C   UNL     1      64.473  40.026  68.791  0.00  0.00    +0.000 C 
ATOM      6  C   UNL     1      65.639  39.137  68.886  0.00  0.00    +0.000 C 
ATOM      7  N   UNL     1      65.291  38.186  70.039  0.00  0.00    +0.000 NA
ATOM      8  C   UNL     1      66.839  39.819  69.339  0.00  0.00    +0.000 C 
ATOM      9  C   UNL     1      65.507  39.190  71.182  0.00  0.00    +0.000 C 
ATOM     10  C   UNL     1      66.242  37.068  70.119  0.00  0.00    +0.000 C 
ATOM     11  C   UNL     1      66.763  39.856  70.866  0.00  0.00    +0.000 C 
ATOM     12  C   UNL     1      64.342  40.085  71.100  0.00  0.00    +0.000 C 
ENDBRANCH   3   4
ENDBRANCH   2   3
BRANCH   2  13
ATOM     13  C   UNL     1      61.026  39.705  68.161  0.00  0.00    +0.000 C 
BRANCH  13  14
ATOM     14  C   UNL     1      60.175  38.676  67.536  0.00  0.00    +0.000 A 
ATOM     15  C   UNL     1      60.609  38.000  66.391  0.00  0.00    +0.000 A 
ATOM     16  C   UNL     1      59.800  37.051  65.768  0.00  0.00    +0.000 A 
ATOM     17  C   UNL     1      58.537  36.773  66.280  0.00  0.00    +0.000 A 
ATOM     18  C   UNL     1      58.085  37.443  67.412  0.00  0.00    +0.000 A 
ATOM     19  C   UNL     1      58.899  38.391  68.030  0.00  0.00    +0.000 A 
ENDBRANCH  13  14
BRANCH  13  20
ATOM     20  C   UNL     1      61.137  40.991  67.545  0.00  0.00    +0.000 C 
BRANCH  20  21
ATOM     21  O   UNL     1      61.239  42.186  66.973  0.00  0.00    +0.000 OA
ATOM     22  H   UNL     1      60.538  42.780  67.294  0.00  0.00    +0.000 HD
ENDBRANCH  20  21
ENDBRANCH  13  20
ENDBRANCH   2  13
TORSDOF 6
ENDMDL
MODEL 8
REMARK VINA RESULT:      -4.7     13.659     15.914
REMARK  Name = Hyoscyamine.pdbqt.pdb
REMARK  6 active torsions:
REMARK  status: ('A' for Active; 'I' for Inactive)
REMARK    1  A    between atoms: C_2  and  O_3
REMARK    2  A    between atoms: C_2  and  C_13
REMARK    3  A    between atoms: O_3  and  C_4
REMARK    4  A    between atoms: C_13  and  C_14
REMARK    5  A    between atoms: C_13  and  C_20
REMARK    6  A    between atoms: C_20  and  O_21
REMARK                            x       y       z     vdW  Elec       q    Type
REMARK                         _______ _______ _______ _____ _____    ______ ____
ROOT
ATOM      1  O   UNL     1      52.607  49.595  86.571  0.00  0.00    +0.000 OA
ATOM      2  C   UNL     1      52.898  49.002  85.539  0.00  0.00    +0.000 C 
ENDROOT
BRANCH   2   3
ATOM      3  O   UNL     1      53.782  49.409  84.582  0.00  0.00    +0.000 OA
BRANCH   3   4
ATOM      4  C   UNL     1      55.052  49.677  85.094  0.00  0.00    +0.000 C 
ATOM      5  C   UNL     1      55.984  50.523  84.369  0.00  0.00    +0.000 C 
ATOM      6  C   UNL     1      57.429  50.310  84.215  0.00  0.00    +0.000 C 
ATOM      7  N   UNL     1      57.561  48.798  83.982  0.00  0.00    +0.000 NA
ATOM      8  C   UNL     1      58.174  50.547  85.439  0.00  0.00    +0.000 C 
ATOM      9  C   UNL     1      57.284  48.362  85.430  0.00  0.00    +0.000 C 
ATOM     10  C   UNL     1      58.924  48.436  83.563  0.00  0.00    +0.000 C 
ATOM     11  C   UNL     1      58.088  49.255  86.253  0.00  0.00    +0.000 C 
ATOM     12  C   UNL     1      55.837  48.567  85.596  0.00  0.00    +0.000 C 
ENDBRANCH   3   4
ENDBRANCH   2   3
BRANCH   2  13
ATOM     13  C   UNL     1      52.268  47.707  85.145  0.00  0.00    +0.000 C 
BRANCH  13  14
ATOM     14  C   UNL     1      52.273  46.501  85.994  0.00  0.00    +0.000 A 
ATOM     15  C   UNL     1      53.397  46.184  86.764  0.00  0.00    +0.000 A 
ATOM     16  C   UNL     1      53.430  45.028  87.543  0.00  0.00    +0.000 A 
ATOM     17  C   UNL     1      52.337  44.168  87.554  0.00  0.00    +0.000 A 
ATOM     18  C   UNL     1      51.216  44.462  86.786  0.00  0.00    +0.000 A 
ATOM     19  C   UNL     1      51.189  45.620  86.009  0.00  0.00    +0.000 A 
ENDBRANCH  13  14
BRANCH  13  20
ATOM     20  C   UNL     1      51.571  47.682  83.896  0.00  0.00    +0.000 C 
BRANCH  20  21
ATOM     21  O   UNL     1      50.923  47.658  82.736  0.00  0.00    +0.000 OA
ATOM     22  H   UNL     1      50.377  46.855  82.667  0.00  0.00    +0.000 HD
ENDBRANCH  20  21
ENDBRANCH  13  20
ENDBRANCH   2  13
TORSDOF 6
ENDMDL
MODEL 9
REMARK VINA RESULT:      -4.6     10.696     12.509
REMARK  Name = Hyoscyamine.pdbqt.pdb
REMARK  6 active torsions:
REMARK  status: ('A' for Active; 'I' for Inactive)
REMARK    1  A    between atoms: C_2  and  O_3
REMARK    2  A    between atoms: C_2  and  C_13
REMARK    3  A    between atoms: O_3  and  C_4
REMARK    4  A    between atoms: C_13  and  C_14
REMARK    5  A    between atoms: C_13  and  C_20
REMARK    6  A    between atoms: C_20  and  O_21
REMARK                            x       y       z     vdW  Elec       q    Type
REMARK                         _______ _______ _______ _____ _____    ______ ____
ROOT
ATOM      1  O   UNL     1      51.779  36.160  60.370  0.00  0.00    +0.000 OA
ATOM      2  C   UNL     1      51.317  35.469  61.270  0.00  0.00    +0.000 C 
ENDROOT
BRANCH   2   3
ATOM      3  O   UNL     1      52.019  34.719  62.168  0.00  0.00    +0.000 OA
BRANCH   3   4
ATOM      4  C   UNL     1      53.251  35.281  62.503  0.00  0.00    +0.000 C 
ATOM      5  C   UNL     1      54.436  34.454  62.639  0.00  0.00    +0.000 C 
ATOM      6  C   UNL     1      55.482  34.575  63.663  0.00  0.00    +0.000 C 
ATOM      7  N   UNL     1      54.708  34.871  64.955  0.00  0.00    +0.000 NA
ATOM      8  C   UNL     1      56.326  35.743  63.480  0.00  0.00    +0.000 C 
ATOM      9  C   UNL     1      54.350  36.330  64.628  0.00  0.00    +0.000 C 
ATOM     10  C   UNL     1      55.579  34.783  66.136  0.00  0.00    +0.000 C 
ATOM     11  C   UNL     1      55.584  36.916  64.122  0.00  0.00    +0.000 C 
ATOM     12  C   UNL     1      53.299  36.222  63.604  0.00  0.00    +0.000 C 
ENDBRANCH   3   4
ENDBRANCH   2   3
BRANCH   2  13
ATOM     13  C   UNL     1      49.850  35.312  61.499  0.00  0.00    +0.000 C 
BRANCH  13  14
ATOM     14  C   UNL     1      49.065  36.172  62.404  0.00  0.00    +0.000 A 
ATOM     15  C   UNL     1      47.934  36.847  61.932  0.00  0.00    +0.000 A 
ATOM     16  C   UNL     1      47.203  37.692  62.767  0.00  0.00    +0.000 A 
ATOM     17  C   UNL     1      47.602  37.880  64.086  0.00  0.00    +0.000 A 
ATOM     18  C   UNL     1      48.730  37.225  64.568  0.00  0.00    +0.000 A 
ATOM     19  C   UNL     1      49.457  36.381  63.728  0.00  0.00    +0.000 A 
ENDBRANCH  13  14
BRANCH  13  20
ATOM     20  C   UNL     1      49.181  34.305  60.734  0.00  0.00    +0.000 C 
BRANCH  20  21
ATOM     21  O   UNL     1      48.559  33.370  60.024  0.00  0.00    +0.000 OA
ATOM     22  H   UNL     1      47.717  33.710  59.674  0.00  0.00    +0.000 HD
ENDBRANCH  20  21
ENDBRANCH  13  20
ENDBRANCH   2  13
TORSDOF 6
ENDMDL
