MODEL 1
REMARK VINA RESULT:      -7.0      0.000      0.000
REMARK  Name = 
REMARK  21 active torsions:
REMARK  status: ('A' for Active; 'I' for Inactive)
REMARK    1  A    between atoms: O_3  and  C_22
REMARK    2  A    between atoms: O_3  and  C_28
REMARK    3  A    between atoms: O_4  and  C_25
REMARK    4  A    between atoms: O_4  and  C_30
REMARK    5  A    between atoms: O_5  and  C_16
REMARK    6  A    between atoms: O_6  and  C_17
REMARK    7  A    between atoms: O_7  and  C_18
REMARK    8  A    between atoms: O_8  and  C_20
REMARK    9  A    between atoms: O_9  and  C_21
REMARK   10  A    between atoms: O_10  and  C_23
REMARK   11  A    between atoms: O_11  and  C_26
REMARK   12  A    between atoms: O_13  and  C_36
REMARK   13  A    between atoms: O_15  and  C_45
REMARK   14  A    between atoms: O_15  and  C_48
REMARK   15  A    between atoms: C_19  and  C_26
REMARK   16  A    between atoms: C_24  and  C_27
REMARK   17  A    between atoms: C_29  and  C_37
REMARK   18  A    between atoms: C_35  and  C_38
REMARK   19  A    between atoms: C_37  and  C_39
REMARK   20  A    between atoms: C_42  and  C_46
REMARK   21  A    between atoms: C_42  and  C_47
REMARK                            x       y       z     vdW  Elec       q    Type
REMARK                         _______ _______ _______ _____ _____    ______ ____
ROOT
ATOM      1  O   UNL     1      50.478  36.489  64.430  0.00  0.00    +0.000 OA
ATOM      2  O   UNL     1      54.193  37.754  65.470  0.00  0.00    +0.000 OA
ATOM      3  C   UNL     1      52.424  34.813  61.824  0.00  0.00    +0.000 A 
ATOM      4  C   UNL     1      51.324  35.235  62.592  0.00  0.00    +0.000 A 
ATOM      5  C   UNL     1      51.856  37.818  65.906  0.00  0.00    +0.000 A 
ATOM      6  C   UNL     1      51.564  36.087  63.690  0.00  0.00    +0.000 A 
ATOM      7  C   UNL     1      52.861  36.490  64.009  0.00  0.00    +0.000 A 
ATOM      8  C   UNL     1      53.063  37.387  65.154  0.00  0.00    +0.000 A 
ATOM      9  C   UNL     1      53.727  35.184  62.168  0.00  0.00    +0.000 A 
ATOM     10  C   UNL     1      50.662  37.371  65.478  0.00  0.00    +0.000 A 
ATOM     11  C   UNL     1      53.941  36.032  63.249  0.00  0.00    +0.000 A 
ENDROOT
BRANCH  10  12
ATOM     12  C   UNL     1      49.402  37.752  66.133  0.00  0.00    +0.000 A 
ATOM     13  C   UNL     1      48.622  38.784  65.599  0.00  0.00    +0.000 A 
ATOM     14  C   UNL     1      48.966  37.108  67.297  0.00  0.00    +0.000 A 
ATOM     15  C   UNL     1      47.422  39.149  66.212  0.00  0.00    +0.000 A 
ATOM     16  C   UNL     1      47.761  37.474  67.908  0.00  0.00    +0.000 A 
ATOM     17  C   UNL     1      46.980  38.494  67.364  0.00  0.00    +0.000 A 
BRANCH  17  18
ATOM     18  O   UNL     1      45.788  38.945  67.858  0.00  0.00    +0.000 OA
ATOM     19  C   UNL     1      44.746  39.167  66.915  0.00  0.00    +0.000 C 
ENDBRANCH  17  18
ENDBRANCH  10  12
BRANCH  11  20
ATOM     20  O   UNL     1      55.241  36.367  63.513  0.00  0.00    +0.000 OA
ATOM     21  H   UNL     1      55.744  35.541  63.686  0.00  0.00    +0.000 HD
ENDBRANCH  11  20
BRANCH   4  22
ATOM     22  C   UNL     1      49.908  34.827  62.238  0.00  0.00    +0.000 C 
BRANCH  22  23
ATOM     23  C   UNL     1      49.089  35.982  61.723  0.00  0.00    +0.000 C 
ATOM     24  C   UNL     1      47.949  36.496  62.224  0.00  0.00    +0.000 C 
ATOM     25  C   UNL     1      47.233  36.006  63.453  0.00  0.00    +0.000 C 
ATOM     26  C   UNL     1      47.283  37.668  61.552  0.00  0.00    +0.000 C 
ENDBRANCH  22  23
ENDBRANCH   4  22
BRANCH   5  27
ATOM     27  O   UNL     1      51.994  38.712  66.952  0.00  0.00    +0.000 OA
BRANCH  27  33
ATOM     28  O   UNL     1      51.371  38.258  69.192  0.00  0.00    +0.000 OA
ATOM     29  C   UNL     1      53.612  40.069  69.083  0.00  0.00    +0.000 C 
ATOM     30  C   UNL     1      52.497  40.224  70.125  0.00  0.00    +0.000 C 
ATOM     31  C   UNL     1      53.743  38.616  68.626  0.00  0.00    +0.000 C 
ATOM     32  C   UNL     1      51.194  39.627  69.581  0.00  0.00    +0.000 C 
ATOM     33  C   UNL     1      52.370  38.073  68.178  0.00  0.00    +0.000 C 
ATOM     34  C   UNL     1      50.083  39.664  70.626  0.00  0.00    +0.000 C 
BRANCH  29  35
ATOM     35  O   UNL     1      54.847  40.517  69.672  0.00  0.00    +0.000 OA
ATOM     36  H   UNL     1      54.577  41.034  70.460  0.00  0.00    +0.000 HD
ENDBRANCH  29  35
BRANCH  30  37
ATOM     37  O   UNL     1      52.342  41.614  70.432  0.00  0.00    +0.000 OA
ATOM     38  H   UNL     1      51.724  41.642  71.190  0.00  0.00    +0.000 HD
ENDBRANCH  30  37
BRANCH  31  39
ATOM     39  O   UNL     1      54.296  37.863  69.726  0.00  0.00    +0.000 OA
ATOM     40  H   UNL     1      54.786  37.112  69.343  0.00  0.00    +0.000 HD
ENDBRANCH  31  39
ENDBRANCH  27  33
ENDBRANCH   5  27
BRANCH   3  41
ATOM     41  O   UNL     1      52.218  33.942  60.784  0.00  0.00    +0.000 OA
BRANCH  41  47
ATOM     42  O   UNL     1      51.779  35.589  59.143  0.00  0.00    +0.000 OA
ATOM     43  C   UNL     1      52.791  33.883  57.088  0.00  0.00    +0.000 C 
ATOM     44  C   UNL     1      51.966  35.132  56.765  0.00  0.00    +0.000 C 
ATOM     45  C   UNL     1      52.466  33.358  58.485  0.00  0.00    +0.000 C 
ATOM     46  C   UNL     1      52.151  36.170  57.881  0.00  0.00    +0.000 C 
ATOM     47  C   UNL     1      52.617  34.495  59.513  0.00  0.00    +0.000 C 
BRANCH  44  48
ATOM     48  O   UNL     1      52.378  35.649  55.498  0.00  0.00    +0.000 OA
ATOM     49  H   UNL     1      53.358  35.639  55.524  0.00  0.00    +0.000 HD
ENDBRANCH  44  48
BRANCH  45  50
ATOM     50  O   UNL     1      53.338  32.253  58.771  0.00  0.00    +0.000 OA
ATOM     51  H   UNL     1      53.505  32.286  59.734  0.00  0.00    +0.000 HD
ENDBRANCH  45  50
BRANCH  43  52
ATOM     52  O   UNL     1      52.518  32.876  56.101  0.00  0.00    +0.000 OA
ATOM     53  H   UNL     1      51.551  32.733  56.143  0.00  0.00    +0.000 HD
ENDBRANCH  43  52
BRANCH  46  54
ATOM     54  C   UNL     1      51.275  37.406  57.638  0.00  0.00    +0.000 C 
BRANCH  54  55
ATOM     55  O   UNL     1      50.410  37.174  56.524  0.00  0.00    +0.000 OA
ATOM     56  H   UNL     1      50.063  36.271  56.620  0.00  0.00    +0.000 HD
ENDBRANCH  54  55
ENDBRANCH  46  54
ENDBRANCH  41  47
ENDBRANCH   3  41
TORSDOF 17
ENDMDL
MODEL 2
REMARK VINA RESULT:      -6.8      4.207      7.043
REMARK  Name = 
REMARK  21 active torsions:
REMARK  status: ('A' for Active; 'I' for Inactive)
REMARK    1  A    between atoms: O_3  and  C_22
REMARK    2  A    between atoms: O_3  and  C_28
REMARK    3  A    between atoms: O_4  and  C_25
REMARK    4  A    between atoms: O_4  and  C_30
REMARK    5  A    between atoms: O_5  and  C_16
REMARK    6  A    between atoms: O_6  and  C_17
REMARK    7  A    between atoms: O_7  and  C_18
REMARK    8  A    between atoms: O_8  and  C_20
REMARK    9  A    between atoms: O_9  and  C_21
REMARK   10  A    between atoms: O_10  and  C_23
REMARK   11  A    between atoms: O_11  and  C_26
REMARK   12  A    between atoms: O_13  and  C_36
REMARK   13  A    between atoms: O_15  and  C_45
REMARK   14  A    between atoms: O_15  and  C_48
REMARK   15  A    between atoms: C_19  and  C_26
REMARK   16  A    between atoms: C_24  and  C_27
REMARK   17  A    between atoms: C_29  and  C_37
REMARK   18  A    between atoms: C_35  and  C_38
REMARK   19  A    between atoms: C_37  and  C_39
REMARK   20  A    between atoms: C_42  and  C_46
REMARK   21  A    between atoms: C_42  and  C_47
REMARK                            x       y       z     vdW  Elec       q    Type
REMARK                         _______ _______ _______ _____ _____    ______ ____
ROOT
ATOM      1  O   UNL     1      55.754  37.061  67.125  0.00  0.00    +0.000 OA
ATOM      2  O   UNL     1      59.318  36.666  65.221  0.00  0.00    +0.000 OA
ATOM      3  C   UNL     1      54.542  36.329  63.751  0.00  0.00    +0.000 A 
ATOM      4  C   UNL     1      54.538  36.624  65.126  0.00  0.00    +0.000 A 
ATOM      5  C   UNL     1      58.167  37.139  67.247  0.00  0.00    +0.000 A 
ATOM      6  C   UNL     1      55.778  36.774  65.781  0.00  0.00    +0.000 A 
ATOM      7  C   UNL     1      56.976  36.624  65.082  0.00  0.00    +0.000 A 
ATOM      8  C   UNL     1      58.243  36.801  65.803  0.00  0.00    +0.000 A 
ATOM      9  C   UNL     1      55.743  36.138  63.060  0.00  0.00    +0.000 A 
ATOM     10  C   UNL     1      56.945  37.275  67.792  0.00  0.00    +0.000 A 
ATOM     11  C   UNL     1      56.954  36.301  63.723  0.00  0.00    +0.000 A 
ENDROOT
BRANCH  10  12
ATOM     12  C   UNL     1      56.753  37.630  69.206  0.00  0.00    +0.000 A 
ATOM     13  C   UNL     1      56.362  38.928  69.553  0.00  0.00    +0.000 A 
ATOM     14  C   UNL     1      56.966  36.693  70.225  0.00  0.00    +0.000 A 
ATOM     15  C   UNL     1      56.173  39.272  70.894  0.00  0.00    +0.000 A 
ATOM     16  C   UNL     1      56.773  37.039  71.567  0.00  0.00    +0.000 A 
ATOM     17  C   UNL     1      56.370  38.331  71.907  0.00  0.00    +0.000 A 
BRANCH  17  18
ATOM     18  O   UNL     1      56.145  38.797  73.172  0.00  0.00    +0.000 OA
ATOM     19  C   UNL     1      54.853  39.327  73.440  0.00  0.00    +0.000 C 
ENDBRANCH  17  18
ENDBRANCH  10  12
BRANCH  11  20
ATOM     20  O   UNL     1      58.087  36.117  62.976  0.00  0.00    +0.000 OA
ATOM     21  H   UNL     1      58.566  35.335  63.330  0.00  0.00    +0.000 HD
ENDBRANCH  11  20
BRANCH   4  22
ATOM     22  C   UNL     1      53.242  36.817  65.890  0.00  0.00    +0.000 C 
BRANCH  22  23
ATOM     23  C   UNL     1      53.032  38.249  66.308  0.00  0.00    +0.000 C 
ATOM     24  C   UNL     1      52.871  38.750  67.549  0.00  0.00    +0.000 C 
ATOM     25  C   UNL     1      52.876  37.951  68.823  0.00  0.00    +0.000 C 
ATOM     26  C   UNL     1      52.674  40.230  67.752  0.00  0.00    +0.000 C 
ENDBRANCH  22  23
ENDBRANCH   4  22
BRANCH   5  27
ATOM     27  O   UNL     1      59.335  37.377  67.949  0.00  0.00    +0.000 OA
BRANCH  27  33
ATOM     28  O   UNL     1      61.403  38.393  67.400  0.00  0.00    +0.000 OA
ATOM     29  C   UNL     1      60.365  39.424  69.885  0.00  0.00    +0.000 C 
ATOM     30  C   UNL     1      61.864  39.173  69.677  0.00  0.00    +0.000 C 
ATOM     31  C   UNL     1      59.663  39.700  68.556  0.00  0.00    +0.000 C 
ATOM     32  C   UNL     1      62.063  38.069  68.631  0.00  0.00    +0.000 C 
ATOM     33  C   UNL     1      59.988  38.585  67.540  0.00  0.00    +0.000 C 
ATOM     34  C   UNL     1      63.541  37.859  68.316  0.00  0.00    +0.000 C 
BRANCH  29  35
ATOM     35  O   UNL     1      60.214  40.551  70.769  0.00  0.00    +0.000 OA
ATOM     36  H   UNL     1      59.857  40.172  71.600  0.00  0.00    +0.000 HD
ENDBRANCH  29  35
BRANCH  30  37
ATOM     37  O   UNL     1      62.450  38.809  70.933  0.00  0.00    +0.000 OA
ATOM     38  H   UNL     1      62.259  37.855  71.038  0.00  0.00    +0.000 HD
ENDBRANCH  30  37
BRANCH  31  39
ATOM     39  O   UNL     1      60.093  41.000  68.098  0.00  0.00    +0.000 OA
ATOM     40  H   UNL     1      59.388  41.633  68.327  0.00  0.00    +0.000 HD
ENDBRANCH  31  39
ENDBRANCH  27  33
ENDBRANCH   5  27
BRANCH   3  41
ATOM     41  O   UNL     1      53.348  36.126  63.107  0.00  0.00    +0.000 OA
BRANCH  41  47
ATOM     42  O   UNL     1      53.041  35.817  60.781  0.00  0.00    +0.000 OA
ATOM     43  C   UNL     1      52.552  33.029  61.166  0.00  0.00    +0.000 C 
ATOM     44  C   UNL     1      52.213  33.733  59.849  0.00  0.00    +0.000 C 
ATOM     45  C   UNL     1      52.550  34.017  62.331  0.00  0.00    +0.000 C 
ATOM     46  C   UNL     1      53.150  34.932  59.653  0.00  0.00    +0.000 C 
ATOM     47  C   UNL     1      53.468  35.209  61.999  0.00  0.00    +0.000 C 
BRANCH  44  48
ATOM     48  O   UNL     1      52.330  32.796  58.776  0.00  0.00    +0.000 OA
ATOM     49  H   UNL     1      51.770  32.036  59.037  0.00  0.00    +0.000 HD
ENDBRANCH  44  48
BRANCH  45  50
ATOM     50  O   UNL     1      52.973  33.324  63.517  0.00  0.00    +0.000 OA
ATOM     51  H   UNL     1      52.592  32.426  63.452  0.00  0.00    +0.000 HD
ENDBRANCH  45  50
BRANCH  43  52
ATOM     52  O   UNL     1      51.594  31.984  61.397  0.00  0.00    +0.000 OA
ATOM     53  H   UNL     1      50.802  32.437  61.749  0.00  0.00    +0.000 HD
ENDBRANCH  43  52
BRANCH  46  54
ATOM     54  C   UNL     1      52.790  35.715  58.384  0.00  0.00    +0.000 C 
BRANCH  54  55
ATOM     55  O   UNL     1      52.685  37.108  58.689  0.00  0.00    +0.000 OA
ATOM     56  H   UNL     1      53.134  37.245  59.540  0.00  0.00    +0.000 HD
ENDBRANCH  54  55
ENDBRANCH  46  54
ENDBRANCH  41  47
ENDBRANCH   3  41
TORSDOF 17
ENDMDL
MODEL 3
REMARK VINA RESULT:      -6.2      3.846      9.374
REMARK  Name = 
REMARK  21 active torsions:
REMARK  status: ('A' for Active; 'I' for Inactive)
REMARK    1  A    between atoms: O_3  and  C_22
REMARK    2  A    between atoms: O_3  and  C_28
REMARK    3  A    between atoms: O_4  and  C_25
REMARK    4  A    between atoms: O_4  and  C_30
REMARK    5  A    between atoms: O_5  and  C_16
REMARK    6  A    between atoms: O_6  and  C_17
REMARK    7  A    between atoms: O_7  and  C_18
REMARK    8  A    between atoms: O_8  and  C_20
REMARK    9  A    between atoms: O_9  and  C_21
REMARK   10  A    between atoms: O_10  and  C_23
REMARK   11  A    between atoms: O_11  and  C_26
REMARK   12  A    between atoms: O_13  and  C_36
REMARK   13  A    between atoms: O_15  and  C_45
REMARK   14  A    between atoms: O_15  and  C_48
REMARK   15  A    between atoms: C_19  and  C_26
REMARK   16  A    between atoms: C_24  and  C_27
REMARK   17  A    between atoms: C_29  and  C_37
REMARK   18  A    between atoms: C_35  and  C_38
REMARK   19  A    between atoms: C_37  and  C_39
REMARK   20  A    between atoms: C_42  and  C_46
REMARK   21  A    between atoms: C_42  and  C_47
REMARK                            x       y       z     vdW  Elec       q    Type
REMARK                         _______ _______ _______ _____ _____    ______ ____
ROOT
ATOM      1  O   UNL     1      53.531  36.688  66.291  0.00  0.00    +0.000 OA
ATOM      2  O   UNL     1      54.774  36.378  62.438  0.00  0.00    +0.000 OA
ATOM      3  C   UNL     1      57.148  36.641  66.840  0.00  0.00    +0.000 A 
ATOM      4  C   UNL     1      55.767  36.695  67.104  0.00  0.00    +0.000 A 
ATOM      5  C   UNL     1      52.945  36.491  63.954  0.00  0.00    +0.000 A 
ATOM      6  C   UNL     1      54.876  36.633  66.013  0.00  0.00    +0.000 A 
ATOM      7  C   UNL     1      55.354  36.531  64.707  0.00  0.00    +0.000 A 
ATOM      8  C   UNL     1      54.388  36.458  63.603  0.00  0.00    +0.000 A 
ATOM      9  C   UNL     1      57.627  36.581  65.528  0.00  0.00    +0.000 A 
ATOM     10  C   UNL     1      52.622  36.570  65.257  0.00  0.00    +0.000 A 
ATOM     11  C   UNL     1      56.730  36.511  64.467  0.00  0.00    +0.000 A 
ENDROOT
BRANCH  10  12
ATOM     12  C   UNL     1      51.225  36.587  65.718  0.00  0.00    +0.000 A 
ATOM     13  C   UNL     1      50.532  37.800  65.803  0.00  0.00    +0.000 A 
ATOM     14  C   UNL     1      50.570  35.406  66.090  0.00  0.00    +0.000 A 
ATOM     15  C   UNL     1      49.205  37.824  66.236  0.00  0.00    +0.000 A 
ATOM     16  C   UNL     1      49.238  35.433  66.521  0.00  0.00    +0.000 A 
ATOM     17  C   UNL     1      48.548  36.643  66.590  0.00  0.00    +0.000 A 
BRANCH  17  18
ATOM     18  O   UNL     1      47.251  36.808  66.990  0.00  0.00    +0.000 OA
ATOM     19  C   UNL     1      46.342  37.318  66.023  0.00  0.00    +0.000 C 
ENDBRANCH  17  18
ENDBRANCH  10  12
BRANCH  11  20
ATOM     20  O   UNL     1      57.273  36.434  63.214  0.00  0.00    +0.000 OA
ATOM     21  H   UNL     1      58.014  35.788  63.237  0.00  0.00    +0.000 HD
ENDBRANCH  11  20
BRANCH   4  22
ATOM     22  C   UNL     1      55.236  36.776  68.522  0.00  0.00    +0.000 C 
BRANCH  22  23
ATOM     23  C   UNL     1      54.892  38.187  68.925  0.00  0.00    +0.000 C 
ATOM     24  C   UNL     1      53.682  38.711  69.208  0.00  0.00    +0.000 C 
ATOM     25  C   UNL     1      52.377  37.964  69.183  0.00  0.00    +0.000 C 
ATOM     26  C   UNL     1      53.554  40.160  69.597  0.00  0.00    +0.000 C 
ENDBRANCH  22  23
ENDBRANCH   4  22
BRANCH   5  27
ATOM     27  O   UNL     1      52.001  36.361  62.951  0.00  0.00    +0.000 OA
BRANCH  27  33
ATOM     28  O   UNL     1      52.468  34.510  61.547  0.00  0.00    +0.000 OA
ATOM     29  C   UNL     1      49.815  35.535  61.069  0.00  0.00    +0.000 C 
ATOM     30  C   UNL     1      50.704  35.027  59.927  0.00  0.00    +0.000 C 
ATOM     31  C   UNL     1      50.180  34.863  62.393  0.00  0.00    +0.000 C 
ATOM     32  C   UNL     1      52.180  35.180  60.312  0.00  0.00    +0.000 C 
ATOM     33  C   UNL     1      51.695  34.992  62.656  0.00  0.00    +0.000 C 
ATOM     34  C   UNL     1      53.100  34.589  59.248  0.00  0.00    +0.000 C 
BRANCH  29  35
ATOM     35  O   UNL     1      48.443  35.256  60.733  0.00  0.00    +0.000 OA
ATOM     36  H   UNL     1      48.413  34.288  60.583  0.00  0.00    +0.000 HD
ENDBRANCH  29  35
BRANCH  30  37
ATOM     37  O   UNL     1      50.398  35.767  58.740  0.00  0.00    +0.000 OA
ATOM     38  H   UNL     1      49.591  36.277  58.956  0.00  0.00    +0.000 HD
ENDBRANCH  30  37
BRANCH  31  39
ATOM     39  O   UNL     1      49.754  33.486  62.313  0.00  0.00    +0.000 OA
ATOM     40  H   UNL     1      49.365  33.356  61.428  0.00  0.00    +0.000 HD
ENDBRANCH  31  39
ENDBRANCH  27  33
ENDBRANCH   5  27
BRANCH   3  41
ATOM     41  O   UNL     1      58.033  36.754  67.882  0.00  0.00    +0.000 OA
BRANCH  41  47
ATOM     42  O   UNL     1      60.378  36.893  67.592  0.00  0.00    +0.000 OA
ATOM     43  C   UNL     1      60.371  39.617  68.451  0.00  0.00    +0.000 C 
ATOM     44  C   UNL     1      61.666  38.805  68.355  0.00  0.00    +0.000 C 
ATOM     45  C   UNL     1      59.166  38.702  68.660  0.00  0.00    +0.000 C 
ATOM     46  C   UNL     1      61.511  37.721  67.279  0.00  0.00    +0.000 C 
ATOM     47  C   UNL     1      59.147  37.616  67.568  0.00  0.00    +0.000 C 
BRANCH  44  48
ATOM     48  O   UNL     1      62.749  39.688  68.055  0.00  0.00    +0.000 OA
ATOM     49  H   UNL     1      62.618  39.944  67.118  0.00  0.00    +0.000 HD
ENDBRANCH  44  48
BRANCH  45  50
ATOM     50  O   UNL     1      57.975  39.507  68.641  0.00  0.00    +0.000 OA
ATOM     51  H   UNL     1      57.946  39.921  67.755  0.00  0.00    +0.000 HD
ENDBRANCH  45  50
BRANCH  43  52
ATOM     52  O   UNL     1      60.485  40.548  69.539  0.00  0.00    +0.000 OA
ATOM     53  H   UNL     1      61.045  41.274  69.196  0.00  0.00    +0.000 HD
ENDBRANCH  43  52
BRANCH  46  54
ATOM     54  C   UNL     1      62.759  36.830  67.207  0.00  0.00    +0.000 C 
BRANCH  54  55
ATOM     55  O   UNL     1      63.657  37.336  66.217  0.00  0.00    +0.000 OA
ATOM     56  H   UNL     1      64.361  36.675  66.110  0.00  0.00    +0.000 HD
ENDBRANCH  54  55
ENDBRANCH  46  54
ENDBRANCH  41  47
ENDBRANCH   3  41
TORSDOF 17
ENDMDL
MODEL 4
REMARK VINA RESULT:      -6.2     16.086     19.132
REMARK  Name = 
REMARK  21 active torsions:
REMARK  status: ('A' for Active; 'I' for Inactive)
REMARK    1  A    between atoms: O_3  and  C_22
REMARK    2  A    between atoms: O_3  and  C_28
REMARK    3  A    between atoms: O_4  and  C_25
REMARK    4  A    between atoms: O_4  and  C_30
REMARK    5  A    between atoms: O_5  and  C_16
REMARK    6  A    between atoms: O_6  and  C_17
REMARK    7  A    between atoms: O_7  and  C_18
REMARK    8  A    between atoms: O_8  and  C_20
REMARK    9  A    between atoms: O_9  and  C_21
REMARK   10  A    between atoms: O_10  and  C_23
REMARK   11  A    between atoms: O_11  and  C_26
REMARK   12  A    between atoms: O_13  and  C_36
REMARK   13  A    between atoms: O_15  and  C_45
REMARK   14  A    between atoms: O_15  and  C_48
REMARK   15  A    between atoms: C_19  and  C_26
REMARK   16  A    between atoms: C_24  and  C_27
REMARK   17  A    between atoms: C_29  and  C_37
REMARK   18  A    between atoms: C_35  and  C_38
REMARK   19  A    between atoms: C_37  and  C_39
REMARK   20  A    between atoms: C_42  and  C_46
REMARK   21  A    between atoms: C_42  and  C_47
REMARK                            x       y       z     vdW  Elec       q    Type
REMARK                         _______ _______ _______ _____ _____    ______ ____
ROOT
ATOM      1  O   UNL     1      64.239  44.886  54.336  0.00  0.00    +0.000 OA
ATOM      2  O   UNL     1      68.086  43.778  53.657  0.00  0.00    +0.000 OA
ATOM      3  C   UNL     1      63.752  41.282  53.930  0.00  0.00    +0.000 A 
ATOM      4  C   UNL     1      63.468  42.642  54.150  0.00  0.00    +0.000 A 
ATOM      5  C   UNL     1      66.548  45.546  54.061  0.00  0.00    +0.000 A 
ATOM      6  C   UNL     1      64.536  43.562  54.118  0.00  0.00    +0.000 A 
ATOM      7  C   UNL     1      65.842  43.129  53.885  0.00  0.00    +0.000 A 
ATOM      8  C   UNL     1      66.921  44.124  53.850  0.00  0.00    +0.000 A 
ATOM      9  C   UNL     1      65.066  40.845  53.737  0.00  0.00    +0.000 A 
ATOM     10  C   UNL     1      65.247  45.827  54.255  0.00  0.00    +0.000 A 
ATOM     11  C   UNL     1      66.104  41.769  53.700  0.00  0.00    +0.000 A 
ENDROOT
BRANCH  10  12
ATOM     12  C   UNL     1      64.764  47.202  54.452  0.00  0.00    +0.000 A 
ATOM     13  C   UNL     1      64.362  47.626  55.723  0.00  0.00    +0.000 A 
ATOM     14  C   UNL     1      64.683  48.103  53.382  0.00  0.00    +0.000 A 
ATOM     15  C   UNL     1      63.905  48.931  55.920  0.00  0.00    +0.000 A 
ATOM     16  C   UNL     1      64.228  49.412  53.582  0.00  0.00    +0.000 A 
ATOM     17  C   UNL     1      63.842  49.833  54.855  0.00  0.00    +0.000 A 
BRANCH  17  18
ATOM     18  O   UNL     1      63.384  51.077  55.186  0.00  0.00    +0.000 OA
ATOM     19  C   UNL     1      63.529  51.474  56.543  0.00  0.00    +0.000 C 
ENDBRANCH  17  18
ENDBRANCH  10  12
BRANCH  11  20
ATOM     20  O   UNL     1      67.359  41.268  53.488  0.00  0.00    +0.000 OA
ATOM     21  H   UNL     1      67.465  41.098  52.525  0.00  0.00    +0.000 HD
ENDBRANCH  11  20
BRANCH   4  22
ATOM     22  C   UNL     1      62.049  43.127  54.376  0.00  0.00    +0.000 C 
BRANCH  22  23
ATOM     23  C   UNL     1      61.553  43.996  53.249  0.00  0.00    +0.000 C 
ATOM     24  C   UNL     1      61.077  45.255  53.302  0.00  0.00    +0.000 C 
ATOM     25  C   UNL     1      60.942  46.088  54.547  0.00  0.00    +0.000 C 
ATOM     26  C   UNL     1      60.630  45.954  52.045  0.00  0.00    +0.000 C 
ENDBRANCH  22  23
ENDBRANCH   4  22
BRANCH   5  27
ATOM     27  O   UNL     1      67.524  46.523  53.973  0.00  0.00    +0.000 OA
BRANCH  27  33
ATOM     28  O   UNL     1      67.826  47.661  56.029  0.00  0.00    +0.000 OA
ATOM     29  C   UNL     1      69.964  48.256  54.187  0.00  0.00    +0.000 C 
ATOM     30  C   UNL     1      69.380  49.323  55.121  0.00  0.00    +0.000 C 
ATOM     31  C   UNL     1      69.788  46.855  54.773  0.00  0.00    +0.000 C 
ATOM     32  C   UNL     1      67.926  48.974  55.462  0.00  0.00    +0.000 C 
ATOM     33  C   UNL     1      68.313  46.624  55.165  0.00  0.00    +0.000 C 
ATOM     34  C   UNL     1      67.339  49.954  56.473  0.00  0.00    +0.000 C 
BRANCH  29  35
ATOM     35  O   UNL     1      71.362  48.540  53.993  0.00  0.00    +0.000 OA
ATOM     36  H   UNL     1      71.402  49.506  53.835  0.00  0.00    +0.000 HD
ENDBRANCH  29  35
BRANCH  30  37
ATOM     37  O   UNL     1      69.470  50.599  54.476  0.00  0.00    +0.000 OA
ATOM     38  H   UNL     1      68.698  50.638  53.875  0.00  0.00    +0.000 HD
ENDBRANCH  30  37
BRANCH  31  39
ATOM     39  O   UNL     1      70.678  46.741  55.903  0.00  0.00    +0.000 OA
ATOM     40  H   UNL     1      71.484  47.246  55.686  0.00  0.00    +0.000 HD
ENDBRANCH  31  39
ENDBRANCH  27  33
ENDBRANCH   5  27
BRANCH   3  41
ATOM     41  O   UNL     1      62.735  40.365  54.009  0.00  0.00    +0.000 OA
BRANCH  41  47
ATOM     42  O   UNL     1      63.247  38.072  54.292  0.00  0.00    +0.000 OA
ATOM     43  C   UNL     1      61.938  38.043  56.831  0.00  0.00    +0.000 C 
ATOM     44  C   UNL     1      62.310  36.749  56.101  0.00  0.00    +0.000 C 
ATOM     45  C   UNL     1      61.761  39.196  55.845  0.00  0.00    +0.000 C 
ATOM     46  C   UNL     1      63.532  37.000  55.207  0.00  0.00    +0.000 C 
ATOM     47  C   UNL     1      63.014  39.313  54.957  0.00  0.00    +0.000 C 
BRANCH  44  48
ATOM     48  O   UNL     1      62.569  35.727  57.065  0.00  0.00    +0.000 OA
ATOM     49  H   UNL     1      61.941  35.900  57.797  0.00  0.00    +0.000 HD
ENDBRANCH  44  48
BRANCH  45  50
ATOM     50  O   UNL     1      61.514  40.399  56.591  0.00  0.00    +0.000 OA
ATOM     51  H   UNL     1      61.516  40.135  57.533  0.00  0.00    +0.000 HD
ENDBRANCH  45  50
BRANCH  43  52
ATOM     52  O   UNL     1      60.725  37.828  57.570  0.00  0.00    +0.000 OA
ATOM     53  H   UNL     1      60.841  38.331  58.402  0.00  0.00    +0.000 HD
ENDBRANCH  43  52
BRANCH  46  54
ATOM     54  C   UNL     1      63.889  35.749  54.393  0.00  0.00    +0.000 C 
BRANCH  54  55
ATOM     55  O   UNL     1      64.618  34.831  55.212  0.00  0.00    +0.000 OA
ATOM     56  H   UNL     1      64.285  33.942  55.005  0.00  0.00    +0.000 HD
ENDBRANCH  54  55
ENDBRANCH  46  54
ENDBRANCH  41  47
ENDBRANCH   3  41
TORSDOF 17
ENDMDL
MODEL 5
REMARK VINA RESULT:      -6.1      9.451     13.627
REMARK  Name = 
REMARK  21 active torsions:
REMARK  status: ('A' for Active; 'I' for Inactive)
REMARK    1  A    between atoms: O_3  and  C_22
REMARK    2  A    between atoms: O_3  and  C_28
REMARK    3  A    between atoms: O_4  and  C_25
REMARK    4  A    between atoms: O_4  and  C_30
REMARK    5  A    between atoms: O_5  and  C_16
REMARK    6  A    between atoms: O_6  and  C_17
REMARK    7  A    between atoms: O_7  and  C_18
REMARK    8  A    between atoms: O_8  and  C_20
REMARK    9  A    between atoms: O_9  and  C_21
REMARK   10  A    between atoms: O_10  and  C_23
REMARK   11  A    between atoms: O_11  and  C_26
REMARK   12  A    between atoms: O_13  and  C_36
REMARK   13  A    between atoms: O_15  and  C_45
REMARK   14  A    between atoms: O_15  and  C_48
REMARK   15  A    between atoms: C_19  and  C_26
REMARK   16  A    between atoms: C_24  and  C_27
REMARK   17  A    between atoms: C_29  and  C_37
REMARK   18  A    between atoms: C_35  and  C_38
REMARK   19  A    between atoms: C_37  and  C_39
REMARK   20  A    between atoms: C_42  and  C_46
REMARK   21  A    between atoms: C_42  and  C_47
REMARK                            x       y       z     vdW  Elec       q    Type
REMARK                         _______ _______ _______ _____ _____    ______ ____
ROOT
ATOM      1  O   UNL     1      62.848  38.744  68.054  0.00  0.00    +0.000 OA
ATOM      2  O   UNL     1      60.876  40.308  71.239  0.00  0.00    +0.000 OA
ATOM      3  C   UNL     1      59.417  37.928  67.081  0.00  0.00    +0.000 A 
ATOM      4  C   UNL     1      60.820  38.025  67.039  0.00  0.00    +0.000 A 
ATOM      5  C   UNL     1      62.964  39.868  70.191  0.00  0.00    +0.000 A 
ATOM      6  C   UNL     1      61.478  38.659  68.113  0.00  0.00    +0.000 A 
ATOM      7  C   UNL     1      60.753  39.184  69.183  0.00  0.00    +0.000 A 
ATOM      8  C   UNL     1      61.482  39.825  70.285  0.00  0.00    +0.000 A 
ATOM      9  C   UNL     1      58.689  38.491  68.133  0.00  0.00    +0.000 A 
ATOM     10  C   UNL     1      63.537  39.304  69.113  0.00  0.00    +0.000 A 
ATOM     11  C   UNL     1      59.358  39.103  69.187  0.00  0.00    +0.000 A 
ENDROOT
BRANCH  10  12
ATOM     12  C   UNL     1      64.996  39.270  68.929  0.00  0.00    +0.000 A 
ATOM     13  C   UNL     1      65.729  40.462  68.933  0.00  0.00    +0.000 A 
ATOM     14  C   UNL     1      65.674  38.060  68.734  0.00  0.00    +0.000 A 
ATOM     15  C   UNL     1      67.115  40.438  68.764  0.00  0.00    +0.000 A 
ATOM     16  C   UNL     1      67.064  38.038  68.568  0.00  0.00    +0.000 A 
ATOM     17  C   UNL     1      67.791  39.228  68.587  0.00  0.00    +0.000 A 
BRANCH  17  18
ATOM     18  O   UNL     1      69.145  39.346  68.439  0.00  0.00    +0.000 OA
ATOM     19  C   UNL     1      69.621  39.690  67.144  0.00  0.00    +0.000 C 
ENDBRANCH  17  18
ENDBRANCH  10  12
BRANCH  11  20
ATOM     20  O   UNL     1      58.580  39.613  70.190  0.00  0.00    +0.000 OA
ATOM     21  H   UNL     1      58.555  38.959  70.924  0.00  0.00    +0.000 HD
ENDBRANCH  11  20
BRANCH   4  22
ATOM     22  C   UNL     1      61.619  37.432  65.895  0.00  0.00    +0.000 C 
BRANCH  22  23
ATOM     23  C   UNL     1      61.586  35.926  65.892  0.00  0.00    +0.000 C 
ATOM     24  C   UNL     1      62.399  35.064  66.534  0.00  0.00    +0.000 C 
ATOM     25  C   UNL     1      63.549  35.443  67.425  0.00  0.00    +0.000 C 
ATOM     26  C   UNL     1      62.191  33.578  66.398  0.00  0.00    +0.000 C 
ENDBRANCH  22  23
ENDBRANCH   4  22
BRANCH   5  27
ATOM     27  O   UNL     1      63.693  40.405  71.236  0.00  0.00    +0.000 OA
BRANCH  27  33
ATOM     28  O   UNL     1      63.833  40.342  73.600  0.00  0.00    +0.000 OA
ATOM     29  C   UNL     1      66.177  39.178  72.388  0.00  0.00    +0.000 C 
ATOM     30  C   UNL     1      66.264  40.035  73.657  0.00  0.00    +0.000 C 
ATOM     31  C   UNL     1      64.806  38.513  72.264  0.00  0.00    +0.000 C 
ATOM     32  C   UNL     1      65.092  41.023  73.696  0.00  0.00    +0.000 C 
ATOM     33  C   UNL     1      63.689  39.569  72.400  0.00  0.00    +0.000 C 
ATOM     34  C   UNL     1      65.079  41.824  74.994  0.00  0.00    +0.000 C 
BRANCH  29  35
ATOM     35  O   UNL     1      67.210  38.177  72.447  0.00  0.00    +0.000 OA
ATOM     36  H   UNL     1      67.968  38.569  71.964  0.00  0.00    +0.000 HD
ENDBRANCH  29  35
BRANCH  30  37
ATOM     37  O   UNL     1      67.521  40.721  73.666  0.00  0.00    +0.000 OA
ATOM     38  H   UNL     1      67.919  40.516  74.537  0.00  0.00    +0.000 HD
ENDBRANCH  30  37
BRANCH  31  39
ATOM     39  O   UNL     1      64.723  37.495  73.283  0.00  0.00    +0.000 OA
ATOM     40  H   UNL     1      64.431  37.933  74.104  0.00  0.00    +0.000 HD
ENDBRANCH  31  39
ENDBRANCH  27  33
ENDBRANCH   5  27
BRANCH   3  41
ATOM     41  O   UNL     1      58.753  37.363  66.022  0.00  0.00    +0.000 OA
BRANCH  41  47
ATOM     42  O   UNL     1      58.419  35.135  66.743  0.00  0.00    +0.000 OA
ATOM     43  C   UNL     1      55.813  35.096  65.576  0.00  0.00    +0.000 C 
ATOM     44  C   UNL     1      56.516  33.810  66.020  0.00  0.00    +0.000 C 
ATOM     45  C   UNL     1      56.827  36.190  65.249  0.00  0.00    +0.000 C 
ATOM     46  C   UNL     1      57.484  34.128  67.168  0.00  0.00    +0.000 C 
ATOM     47  C   UNL     1      57.786  36.377  66.439  0.00  0.00    +0.000 C 
BRANCH  44  48
ATOM     48  O   UNL     1      55.532  32.853  66.416  0.00  0.00    +0.000 OA
ATOM     49  H   UNL     1      55.924  31.980  66.204  0.00  0.00    +0.000 HD
ENDBRANCH  44  48
BRANCH  45  50
ATOM     50  O   UNL     1      56.111  37.396  64.938  0.00  0.00    +0.000 OA
ATOM     51  H   UNL     1      55.921  37.356  63.980  0.00  0.00    +0.000 HD
ENDBRANCH  45  50
BRANCH  43  52
ATOM     52  O   UNL     1      55.000  34.809  64.426  0.00  0.00    +0.000 OA
ATOM     53  H   UNL     1      54.392  34.099  64.715  0.00  0.00    +0.000 HD
ENDBRANCH  43  52
BRANCH  46  54
ATOM     54  C   UNL     1      58.272  32.880  67.589  0.00  0.00    +0.000 C 
BRANCH  54  55
ATOM     55  O   UNL     1      58.250  31.915  66.534  0.00  0.00    +0.000 OA
ATOM     56  H   UNL     1      57.524  31.300  66.731  0.00  0.00    +0.000 HD
ENDBRANCH  54  55
ENDBRANCH  46  54
ENDBRANCH  41  47
ENDBRANCH   3  41
TORSDOF 17
ENDMDL
MODEL 6
REMARK VINA RESULT:      -6.1     19.715     22.653
REMARK  Name = 
REMARK  21 active torsions:
REMARK  status: ('A' for Active; 'I' for Inactive)
REMARK    1  A    between atoms: O_3  and  C_22
REMARK    2  A    between atoms: O_3  and  C_28
REMARK    3  A    between atoms: O_4  and  C_25
REMARK    4  A    between atoms: O_4  and  C_30
REMARK    5  A    between atoms: O_5  and  C_16
REMARK    6  A    between atoms: O_6  and  C_17
REMARK    7  A    between atoms: O_7  and  C_18
REMARK    8  A    between atoms: O_8  and  C_20
REMARK    9  A    between atoms: O_9  and  C_21
REMARK   10  A    between atoms: O_10  and  C_23
REMARK   11  A    between atoms: O_11  and  C_26
REMARK   12  A    between atoms: O_13  and  C_36
REMARK   13  A    between atoms: O_15  and  C_45
REMARK   14  A    between atoms: O_15  and  C_48
REMARK   15  A    between atoms: C_19  and  C_26
REMARK   16  A    between atoms: C_24  and  C_27
REMARK   17  A    between atoms: C_29  and  C_37
REMARK   18  A    between atoms: C_35  and  C_38
REMARK   19  A    between atoms: C_37  and  C_39
REMARK   20  A    between atoms: C_42  and  C_46
REMARK   21  A    between atoms: C_42  and  C_47
REMARK                            x       y       z     vdW  Elec       q    Type
REMARK                         _______ _______ _______ _____ _____    ______ ____
ROOT
ATOM      1  O   UNL     1      64.047  54.041  59.965  0.00  0.00    +0.000 OA
ATOM      2  O   UNL     1      62.542  50.418  58.920  0.00  0.00    +0.000 OA
ATOM      3  C   UNL     1      67.171  52.150  59.732  0.00  0.00    +0.000 A 
ATOM      4  C   UNL     1      66.281  53.220  59.933  0.00  0.00    +0.000 A 
ATOM      5  C   UNL     1      62.103  52.681  59.504  0.00  0.00    +0.000 A 
ATOM      6  C   UNL     1      64.901  52.983  59.766  0.00  0.00    +0.000 A 
ATOM      7  C   UNL     1      64.435  51.719  59.401  0.00  0.00    +0.000 A 
ATOM      8  C   UNL     1      62.988  51.515  59.250  0.00  0.00    +0.000 A 
ATOM      9  C   UNL     1      66.706  50.895  59.328  0.00  0.00    +0.000 A 
ATOM     10  C   UNL     1      62.684  53.837  59.869  0.00  0.00    +0.000 A 
ATOM     11  C   UNL     1      65.340  50.679  59.178  0.00  0.00    +0.000 A 
ENDROOT
BRANCH  10  12
ATOM     12  C   UNL     1      61.902  55.047  60.167  0.00  0.00    +0.000 A 
ATOM     13  C   UNL     1      62.023  56.175  59.348  0.00  0.00    +0.000 A 
ATOM     14  C   UNL     1      61.041  55.101  61.270  0.00  0.00    +0.000 A 
ATOM     15  C   UNL     1      61.281  57.327  59.621  0.00  0.00    +0.000 A 
ATOM     16  C   UNL     1      60.296  56.255  61.540  0.00  0.00    +0.000 A 
ATOM     17  C   UNL     1      60.409  57.372  60.712  0.00  0.00    +0.000 A 
BRANCH  17  18
ATOM     18  O   UNL     1      59.741  58.555  60.861  0.00  0.00    +0.000 OA
ATOM     19  C   UNL     1      59.433  59.272  59.672  0.00  0.00    +0.000 C 
ENDBRANCH  17  18
ENDBRANCH  10  12
BRANCH  11  20
ATOM     20  O   UNL     1      64.960  49.420  58.799  0.00  0.00    +0.000 OA
ATOM     21  H   UNL     1      64.462  49.490  57.954  0.00  0.00    +0.000 HD
ENDBRANCH  11  20
BRANCH   4  22
ATOM     22  C   UNL     1      66.775  54.590  60.357  0.00  0.00    +0.000 C 
BRANCH  22  23
ATOM     23  C   UNL     1      66.542  55.637  59.299  0.00  0.00    +0.000 C 
ATOM     24  C   UNL     1      65.904  56.819  59.409  0.00  0.00    +0.000 C 
ATOM     25  C   UNL     1      65.274  57.361  60.662  0.00  0.00    +0.000 C 
ATOM     26  C   UNL     1      65.781  57.731  58.216  0.00  0.00    +0.000 C 
ENDBRANCH  22  23
ENDBRANCH   4  22
BRANCH   5  27
ATOM     27  O   UNL     1      60.731  52.516  59.435  0.00  0.00    +0.000 OA
BRANCH  27  33
ATOM     28  O   UNL     1      59.843  53.802  57.654  0.00  0.00    +0.000 OA
ATOM     29  C   UNL     1      57.859  52.008  58.730  0.00  0.00    +0.000 C 
ATOM     30  C   UNL     1      57.502  53.427  58.272  0.00  0.00    +0.000 C 
ATOM     31  C   UNL     1      59.086  51.480  57.987  0.00  0.00    +0.000 C 
ATOM     32  C   UNL     1      58.733  54.334  58.389  0.00  0.00    +0.000 C 
ATOM     33  C   UNL     1      60.246  52.495  58.086  0.00  0.00    +0.000 C 
ATOM     34  C   UNL     1      58.452  55.731  57.844  0.00  0.00    +0.000 C 
BRANCH  29  35
ATOM     35  O   UNL     1      56.726  51.154  58.484  0.00  0.00    +0.000 OA
ATOM     36  H   UNL     1      56.062  51.736  58.058  0.00  0.00    +0.000 HD
ENDBRANCH  29  35
BRANCH  30  37
ATOM     37  O   UNL     1      56.421  53.914  59.076  0.00  0.00    +0.000 OA
ATOM     38  H   UNL     1      56.212  54.799  58.716  0.00  0.00    +0.000 HD
ENDBRANCH  30  37
BRANCH  31  39
ATOM     39  O   UNL     1      58.693  51.232  56.621  0.00  0.00    +0.000 OA
ATOM     40  H   UNL     1      57.733  51.063  56.624  0.00  0.00    +0.000 HD
ENDBRANCH  31  39
ENDBRANCH  27  33
ENDBRANCH   5  27
BRANCH   3  41
ATOM     41  O   UNL     1      68.520  52.372  59.838  0.00  0.00    +0.000 OA
BRANCH  41  47
ATOM     42  O   UNL     1      69.266  52.527  62.078  0.00  0.00    +0.000 OA
ATOM     43  C   UNL     1      71.228  50.503  61.616  0.00  0.00    +0.000 C 
ATOM     44  C   UNL     1      71.272  51.400  62.857  0.00  0.00    +0.000 C 
ATOM     45  C   UNL     1      70.494  51.193  60.468  0.00  0.00    +0.000 C 
ATOM     46  C   UNL     1      69.849  51.856  63.209  0.00  0.00    +0.000 C 
ATOM     47  C   UNL     1      69.111  51.667  60.950  0.00  0.00    +0.000 C 
BRANCH  44  48
ATOM     48  O   UNL     1      71.870  50.677  63.934  0.00  0.00    +0.000 OA
ATOM     49  H   UNL     1      72.709  50.324  63.571  0.00  0.00    +0.000 HD
ENDBRANCH  44  48
BRANCH  45  50
ATOM     50  O   UNL     1      70.396  50.270  59.371  0.00  0.00    +0.000 OA
ATOM     51  H   UNL     1      69.700  50.626  58.783  0.00  0.00    +0.000 HD
ENDBRANCH  45  50
BRANCH  43  52
ATOM     52  O   UNL     1      72.573  50.180  61.227  0.00  0.00    +0.000 OA
ATOM     53  H   UNL     1      72.896  49.564  61.915  0.00  0.00    +0.000 HD
ENDBRANCH  43  52
BRANCH  46  54
ATOM     54  C   UNL     1      69.856  52.824  64.398  0.00  0.00    +0.000 C 
BRANCH  54  55
ATOM     55  O   UNL     1      69.728  52.091  65.619  0.00  0.00    +0.000 OA
ATOM     56  H   UNL     1      70.267  51.288  65.524  0.00  0.00    +0.000 HD
ENDBRANCH  54  55
ENDBRANCH  46  54
ENDBRANCH  41  47
ENDBRANCH   3  41
TORSDOF 17
ENDMDL
MODEL 7
REMARK VINA RESULT:      -6.0     24.724     27.692
REMARK  Name = 
REMARK  21 active torsions:
REMARK  status: ('A' for Active; 'I' for Inactive)
REMARK    1  A    between atoms: O_3  and  C_22
REMARK    2  A    between atoms: O_3  and  C_28
REMARK    3  A    between atoms: O_4  and  C_25
REMARK    4  A    between atoms: O_4  and  C_30
REMARK    5  A    between atoms: O_5  and  C_16
REMARK    6  A    between atoms: O_6  and  C_17
REMARK    7  A    between atoms: O_7  and  C_18
REMARK    8  A    between atoms: O_8  and  C_20
REMARK    9  A    between atoms: O_9  and  C_21
REMARK   10  A    between atoms: O_10  and  C_23
REMARK   11  A    between atoms: O_11  and  C_26
REMARK   12  A    between atoms: O_13  and  C_36
REMARK   13  A    between atoms: O_15  and  C_45
REMARK   14  A    between atoms: O_15  and  C_48
REMARK   15  A    between atoms: C_19  and  C_26
REMARK   16  A    between atoms: C_24  and  C_27
REMARK   17  A    between atoms: C_29  and  C_37
REMARK   18  A    between atoms: C_35  and  C_38
REMARK   19  A    between atoms: C_37  and  C_39
REMARK   20  A    between atoms: C_42  and  C_46
REMARK   21  A    between atoms: C_42  and  C_47
REMARK                            x       y       z     vdW  Elec       q    Type
REMARK                         _______ _______ _______ _____ _____    ______ ____
ROOT
ATOM      1  O   UNL     1      52.516  56.973  82.803  0.00  0.00    +0.000 OA
ATOM      2  O   UNL     1      49.439  55.054  80.978  0.00  0.00    +0.000 OA
ATOM      3  C   UNL     1      52.796  53.716  84.446  0.00  0.00    +0.000 A 
ATOM      4  C   UNL     1      53.062  55.052  84.098  0.00  0.00    +0.000 A 
ATOM      5  C   UNL     1      50.678  57.067  81.236  0.00  0.00    +0.000 A 
ATOM      6  C   UNL     1      52.241  55.667  83.131  0.00  0.00    +0.000 A 
ATOM      7  C   UNL     1      51.197  54.962  82.530  0.00  0.00    +0.000 A 
ATOM      8  C   UNL     1      50.361  55.647  81.536  0.00  0.00    +0.000 A 
ATOM      9  C   UNL     1      51.776  52.998  83.814  0.00  0.00    +0.000 A 
ATOM     10  C   UNL     1      51.700  57.632  81.904  0.00  0.00    +0.000 A 
ATOM     11  C   UNL     1      50.972  53.626  82.870  0.00  0.00    +0.000 A 
ENDROOT
BRANCH  10  12
ATOM     12  C   UNL     1      52.087  59.036  81.702  0.00  0.00    +0.000 A 
ATOM     13  C   UNL     1      51.256  60.063  82.165  0.00  0.00    +0.000 A 
ATOM     14  C   UNL     1      53.273  59.373  81.040  0.00  0.00    +0.000 A 
ATOM     15  C   UNL     1      51.618  61.399  81.982  0.00  0.00    +0.000 A 
ATOM     16  C   UNL     1      53.636  60.713  80.859  0.00  0.00    +0.000 A 
ATOM     17  C   UNL     1      52.811  61.733  81.335  0.00  0.00    +0.000 A 
BRANCH  17  18
ATOM     18  O   UNL     1      53.047  63.075  81.228  0.00  0.00    +0.000 OA
ATOM     19  C   UNL     1      54.126  63.600  81.992  0.00  0.00    +0.000 C 
ENDBRANCH  17  18
ENDBRANCH  10  12
BRANCH  11  20
ATOM     20  O   UNL     1      49.983  52.865  82.308  0.00  0.00    +0.000 OA
ATOM     21  H   UNL     1      49.771  53.238  81.423  0.00  0.00    +0.000 HD
ENDBRANCH  11  20
BRANCH   4  22
ATOM     22  C   UNL     1      54.175  55.837  84.766  0.00  0.00    +0.000 C 
BRANCH  22  23
ATOM     23  C   UNL     1      55.143  56.419  83.770  0.00  0.00    +0.000 C 
ATOM     24  C   UNL     1      55.505  57.706  83.600  0.00  0.00    +0.000 C 
ATOM     25  C   UNL     1      55.000  58.871  84.404  0.00  0.00    +0.000 C 
ATOM     26  C   UNL     1      56.503  58.081  82.535  0.00  0.00    +0.000 C 
ENDBRANCH  22  23
ENDBRANCH   4  22
BRANCH   5  27
ATOM     27  O   UNL     1      49.877  57.768  80.354  0.00  0.00    +0.000 OA
BRANCH  27  33
ATOM     28  O   UNL     1      50.933  59.020  78.642  0.00  0.00    +0.000 OA
ATOM     29  C   UNL     1      48.198  58.420  77.954  0.00  0.00    +0.000 C 
ATOM     30  C   UNL     1      48.841  59.769  77.610  0.00  0.00    +0.000 C 
ATOM     31  C   UNL     1      49.251  57.317  78.056  0.00  0.00    +0.000 C 
ATOM     32  C   UNL     1      49.964  60.077  78.607  0.00  0.00    +0.000 C 
ATOM     33  C   UNL     1      50.382  57.748  79.013  0.00  0.00    +0.000 C 
ATOM     34  C   UNL     1      50.702  61.361  78.239  0.00  0.00    +0.000 C 
BRANCH  29  35
ATOM     35  O   UNL     1      47.242  58.099  76.926  0.00  0.00    +0.000 OA
ATOM     36  H   UNL     1      47.438  58.724  76.197  0.00  0.00    +0.000 HD
ENDBRANCH  29  35
BRANCH  30  37
ATOM     37  O   UNL     1      47.830  60.783  77.638  0.00  0.00    +0.000 OA
ATOM     38  H   UNL     1      48.291  61.597  77.926  0.00  0.00    +0.000 HD
ENDBRANCH  30  37
BRANCH  31  39
ATOM     39  O   UNL     1      49.734  57.052  76.722  0.00  0.00    +0.000 OA
ATOM     40  H   UNL     1      49.230  56.290  76.380  0.00  0.00    +0.000 HD
ENDBRANCH  31  39
ENDBRANCH  27  33
ENDBRANCH   5  27
BRANCH   3  41
ATOM     41  O   UNL     1      53.615  53.082  85.345  0.00  0.00    +0.000 OA
BRANCH  41  47
ATOM     42  O   UNL     1      53.875  50.762  85.730  0.00  0.00    +0.000 OA
ATOM     43  C   UNL     1      56.312  50.738  84.241  0.00  0.00    +0.000 C 
ATOM     44  C   UNL     1      55.911  49.572  85.149  0.00  0.00    +0.000 C 
ATOM     45  C   UNL     1      55.662  52.040  84.703  0.00  0.00    +0.000 C 
ATOM     46  C   UNL     1      54.381  49.504  85.249  0.00  0.00    +0.000 C 
ATOM     47  C   UNL     1      54.140  51.839  84.833  0.00  0.00    +0.000 C 
BRANCH  44  48
ATOM     48  O   UNL     1      56.454  48.360  84.621  0.00  0.00    +0.000 OA
ATOM     49  H   UNL     1      56.638  47.800  85.403  0.00  0.00    +0.000 HD
ENDBRANCH  44  48
BRANCH  45  50
ATOM     50  O   UNL     1      55.991  53.073  83.759  0.00  0.00    +0.000 OA
ATOM     51  H   UNL     1      56.427  53.779  84.276  0.00  0.00    +0.000 HD
ENDBRANCH  45  50
BRANCH  43  52
ATOM     52  O   UNL     1      57.744  50.865  84.251  0.00  0.00    +0.000 OA
ATOM     53  H   UNL     1      58.073  50.005  84.583  0.00  0.00    +0.000 HD
ENDBRANCH  43  52
BRANCH  46  54
ATOM     54  C   UNL     1      53.937  48.400  86.216  0.00  0.00    +0.000 C 
BRANCH  54  55
ATOM     55  O   UNL     1      53.950  47.137  85.547  0.00  0.00    +0.000 OA
ATOM     56  H   UNL     1      54.687  46.626  85.922  0.00  0.00    +0.000 HD
ENDBRANCH  54  55
ENDBRANCH  46  54
ENDBRANCH  41  47
ENDBRANCH   3  41
TORSDOF 17
ENDMDL
MODEL 8
REMARK VINA RESULT:      -6.0     52.069     56.272
REMARK  Name = 
REMARK  21 active torsions:
REMARK  status: ('A' for Active; 'I' for Inactive)
REMARK    1  A    between atoms: O_3  and  C_22
REMARK    2  A    between atoms: O_3  and  C_28
REMARK    3  A    between atoms: O_4  and  C_25
REMARK    4  A    between atoms: O_4  and  C_30
REMARK    5  A    between atoms: O_5  and  C_16
REMARK    6  A    between atoms: O_6  and  C_17
REMARK    7  A    between atoms: O_7  and  C_18
REMARK    8  A    between atoms: O_8  and  C_20
REMARK    9  A    between atoms: O_9  and  C_21
REMARK   10  A    between atoms: O_10  and  C_23
REMARK   11  A    between atoms: O_11  and  C_26
REMARK   12  A    between atoms: O_13  and  C_36
REMARK   13  A    between atoms: O_15  and  C_45
REMARK   14  A    between atoms: O_15  and  C_48
REMARK   15  A    between atoms: C_19  and  C_26
REMARK   16  A    between atoms: C_24  and  C_27
REMARK   17  A    between atoms: C_29  and  C_37
REMARK   18  A    between atoms: C_35  and  C_38
REMARK   19  A    between atoms: C_37  and  C_39
REMARK   20  A    between atoms: C_42  and  C_46
REMARK   21  A    between atoms: C_42  and  C_47
REMARK                            x       y       z     vdW  Elec       q    Type
REMARK                         _______ _______ _______ _____ _____    ______ ____
ROOT
ATOM      1  O   UNL     1      75.020  84.530  84.562  0.00  0.00    +0.000 OA
ATOM      2  O   UNL     1      74.144  80.578  84.873  0.00  0.00    +0.000 OA
ATOM      3  C   UNL     1      71.367  84.735  84.569  0.00  0.00    +0.000 A 
ATOM      4  C   UNL     1      72.717  85.128  84.532  0.00  0.00    +0.000 A 
ATOM      5  C   UNL     1      75.822  82.253  84.692  0.00  0.00    +0.000 A 
ATOM      6  C   UNL     1      73.707  84.126  84.599  0.00  0.00    +0.000 A 
ATOM      7  C   UNL     1      73.353  82.781  84.709  0.00  0.00    +0.000 A 
ATOM      8  C   UNL     1      74.419  81.772  84.765  0.00  0.00    +0.000 A 
ATOM      9  C   UNL     1      71.014  83.391  84.721  0.00  0.00    +0.000 A 
ATOM     10  C   UNL     1      76.021  83.577  84.565  0.00  0.00    +0.000 A 
ATOM     11  C   UNL     1      72.006  82.418  84.776  0.00  0.00    +0.000 A 
ENDROOT
BRANCH  10  12
ATOM     12  C   UNL     1      77.367  84.160  84.461  0.00  0.00    +0.000 A 
ATOM     13  C   UNL     1      78.116  84.399  85.619  0.00  0.00    +0.000 A 
ATOM     14  C   UNL     1      77.918  84.497  83.218  0.00  0.00    +0.000 A 
ATOM     15  C   UNL     1      79.397  84.949  85.529  0.00  0.00    +0.000 A 
ATOM     16  C   UNL     1      79.203  85.045  83.130  0.00  0.00    +0.000 A 
ATOM     17  C   UNL     1      79.950  85.268  84.287  0.00  0.00    +0.000 A 
BRANCH  17  18
ATOM     18  O   UNL     1      81.211  85.793  84.341  0.00  0.00    +0.000 OA
ATOM     19  C   UNL     1      82.291  84.867  84.345  0.00  0.00    +0.000 C 
ENDBRANCH  17  18
ENDBRANCH  10  12
BRANCH  11  20
ATOM     20  O   UNL     1      71.583  81.123  84.906  0.00  0.00    +0.000 OA
ATOM     21  H   UNL     1      72.372  80.553  85.050  0.00  0.00    +0.000 HD
ENDBRANCH  11  20
BRANCH   4  22
ATOM     22  C   UNL     1      73.113  86.584  84.383  0.00  0.00    +0.000 C 
BRANCH  22  23
ATOM     23  C   UNL     1      73.740  86.874  83.044  0.00  0.00    +0.000 C 
ATOM     24  C   UNL     1      74.970  87.356  82.776  0.00  0.00    +0.000 C 
ATOM     25  C   UNL     1      76.012  87.713  83.798  0.00  0.00    +0.000 C 
ATOM     26  C   UNL     1      75.407  87.574  81.350  0.00  0.00    +0.000 C 
ENDBRANCH  22  23
ENDBRANCH   4  22
BRANCH   5  27
ATOM     27  O   UNL     1      76.853  81.332  84.676  0.00  0.00    +0.000 OA
BRANCH  27  33
ATOM     28  O   UNL     1      76.583  79.395  83.339  0.00  0.00    +0.000 OA
ATOM     29  C   UNL     1      79.368  79.896  83.892  0.00  0.00    +0.000 C 
ATOM     30  C   UNL     1      78.794  78.474  83.855  0.00  0.00    +0.000 C 
ATOM     31  C   UNL     1      78.550  80.844  83.015  0.00  0.00    +0.000 C 
ATOM     32  C   UNL     1      77.302  78.509  84.208  0.00  0.00    +0.000 C 
ATOM     33  C   UNL     1      77.054  80.749  83.382  0.00  0.00    +0.000 C 
ATOM     34  C   UNL     1      76.666  77.128  84.080  0.00  0.00    +0.000 C 
BRANCH  29  35
ATOM     35  O   UNL     1      80.731  79.845  83.430  0.00  0.00    +0.000 OA
ATOM     36  H   UNL     1      81.251  80.287  84.134  0.00  0.00    +0.000 HD
ENDBRANCH  29  35
BRANCH  30  37
ATOM     37  O   UNL     1      79.526  77.657  84.776  0.00  0.00    +0.000 OA
ATOM     38  H   UNL     1      79.018  77.694  85.612  0.00  0.00    +0.000 HD
ENDBRANCH  30  37
BRANCH  31  39
ATOM     39  O   UNL     1      78.800  80.488  81.639  0.00  0.00    +0.000 OA
ATOM     40  H   UNL     1      78.847  81.319  81.131  0.00  0.00    +0.000 HD
ENDBRANCH  31  39
ENDBRANCH  27  33
ENDBRANCH   5  27
BRANCH   3  41
ATOM     41  O   UNL     1      70.389  85.697  84.559  0.00  0.00    +0.000 OA
BRANCH  41  47
ATOM     42  O   UNL     1      69.768  84.427  82.662  0.00  0.00    +0.000 OA
ATOM     43  C   UNL     1      69.349  86.809  81.143  0.00  0.00    +0.000 C 
ATOM     44  C   UNL     1      69.450  85.435  80.475  0.00  0.00    +0.000 C 
ATOM     45  C   UNL     1      70.089  86.824  82.479  0.00  0.00    +0.000 C 
ATOM     46  C   UNL     1      68.983  84.353  81.459  0.00  0.00    +0.000 C 
ATOM     47  C   UNL     1      69.592  85.660  83.357  0.00  0.00    +0.000 C 
BRANCH  44  48
ATOM     48  O   UNL     1      68.658  85.435  79.285  0.00  0.00    +0.000 OA
ATOM     49  H   UNL     1      69.239  85.813  78.592  0.00  0.00    +0.000 HD
ENDBRANCH  44  48
BRANCH  45  50
ATOM     50  O   UNL     1      69.875  88.100  83.104  0.00  0.00    +0.000 OA
ATOM     51  H   UNL     1      70.021  87.958  84.061  0.00  0.00    +0.000 HD
ENDBRANCH  45  50
BRANCH  43  52
ATOM     52  O   UNL     1      69.899  87.799  80.258  0.00  0.00    +0.000 OA
ATOM     53  H   UNL     1      70.680  87.372  79.852  0.00  0.00    +0.000 HD
ENDBRANCH  43  52
BRANCH  46  54
ATOM     54  C   UNL     1      69.146  82.950  80.858  0.00  0.00    +0.000 C 
BRANCH  54  55
ATOM     55  O   UNL     1      69.916  83.026  79.656  0.00  0.00    +0.000 OA
ATOM     56  H   UNL     1      69.308  83.297  78.948  0.00  0.00    +0.000 HD
ENDBRANCH  54  55
ENDBRANCH  46  54
ENDBRANCH  41  47
ENDBRANCH   3  41
TORSDOF 17
ENDMDL
MODEL 9
REMARK VINA RESULT:      -5.9     16.547     19.191
REMARK  Name = 
REMARK  21 active torsions:
REMARK  status: ('A' for Active; 'I' for Inactive)
REMARK    1  A    between atoms: O_3  and  C_22
REMARK    2  A    between atoms: O_3  and  C_28
REMARK    3  A    between atoms: O_4  and  C_25
REMARK    4  A    between atoms: O_4  and  C_30
REMARK    5  A    between atoms: O_5  and  C_16
REMARK    6  A    between atoms: O_6  and  C_17
REMARK    7  A    between atoms: O_7  and  C_18
REMARK    8  A    between atoms: O_8  and  C_20
REMARK    9  A    between atoms: O_9  and  C_21
REMARK   10  A    between atoms: O_10  and  C_23
REMARK   11  A    between atoms: O_11  and  C_26
REMARK   12  A    between atoms: O_13  and  C_36
REMARK   13  A    between atoms: O_15  and  C_45
REMARK   14  A    between atoms: O_15  and  C_48
REMARK   15  A    between atoms: C_19  and  C_26
REMARK   16  A    between atoms: C_24  and  C_27
REMARK   17  A    between atoms: C_29  and  C_37
REMARK   18  A    between atoms: C_35  and  C_38
REMARK   19  A    between atoms: C_37  and  C_39
REMARK   20  A    between atoms: C_42  and  C_46
REMARK   21  A    between atoms: C_42  and  C_47
REMARK                            x       y       z     vdW  Elec       q    Type
REMARK                         _______ _______ _______ _____ _____    ______ ____
ROOT
ATOM      1  O   UNL     1      65.240  47.337  55.764  0.00  0.00    +0.000 OA
ATOM      2  O   UNL     1      61.516  48.435  54.576  0.00  0.00    +0.000 OA
ATOM      3  C   UNL     1      64.272  44.297  53.972  0.00  0.00    +0.000 A 
ATOM      4  C   UNL     1      65.039  45.207  54.721  0.00  0.00    +0.000 A 
ATOM      5  C   UNL     1      63.491  49.006  55.769  0.00  0.00    +0.000 A 
ATOM      6  C   UNL     1      64.475  46.461  55.031  0.00  0.00    +0.000 A 
ATOM      7  C   UNL     1      63.191  46.792  54.596  0.00  0.00    +0.000 A 
ATOM      8  C   UNL     1      62.639  48.105  54.952  0.00  0.00    +0.000 A 
ATOM      9  C   UNL     1      63.002  44.645  53.501  0.00  0.00    +0.000 A 
ATOM     10  C   UNL     1      64.702  48.553  56.140  0.00  0.00    +0.000 A 
ATOM     11  C   UNL     1      62.460  45.883  53.826  0.00  0.00    +0.000 A 
ENDROOT
BRANCH  10  12
ATOM     12  C   UNL     1      65.618  49.352  56.968  0.00  0.00    +0.000 A 
ATOM     13  C   UNL     1      65.478  49.354  58.360  0.00  0.00    +0.000 A 
ATOM     14  C   UNL     1      66.630  50.128  56.389  0.00  0.00    +0.000 A 
ATOM     15  C   UNL     1      66.347  50.106  59.154  0.00  0.00    +0.000 A 
ATOM     16  C   UNL     1      67.501  50.879  57.187  0.00  0.00    +0.000 A 
ATOM     17  C   UNL     1      67.366  50.866  58.575  0.00  0.00    +0.000 A 
BRANCH  17  18
ATOM     18  O   UNL     1      68.147  51.549  59.466  0.00  0.00    +0.000 OA
ATOM     19  C   UNL     1      68.481  50.876  60.673  0.00  0.00    +0.000 C 
ENDBRANCH  17  18
ENDBRANCH  10  12
BRANCH  11  20
ATOM     20  O   UNL     1      61.206  46.145  53.346  0.00  0.00    +0.000 OA
ATOM     21  H   UNL     1      60.683  46.569  54.062  0.00  0.00    +0.000 HD
ENDBRANCH  11  20
BRANCH   4  22
ATOM     22  C   UNL     1      66.424  44.847  55.225  0.00  0.00    +0.000 C 
BRANCH  22  23
ATOM     23  C   UNL     1      67.491  45.749  54.661  0.00  0.00    +0.000 C 
ATOM     24  C   UNL     1      68.386  46.510  55.322  0.00  0.00    +0.000 C 
ATOM     25  C   UNL     1      68.511  46.616  56.817  0.00  0.00    +0.000 C 
ATOM     26  C   UNL     1      69.381  47.347  54.561  0.00  0.00    +0.000 C 
ENDBRANCH  22  23
ENDBRANCH   4  22
BRANCH   5  27
ATOM     27  O   UNL     1      62.986  50.226  56.181  0.00  0.00    +0.000 OA
BRANCH  27  33
ATOM     28  O   UNL     1      60.711  50.774  56.551  0.00  0.00    +0.000 OA
ATOM     29  C   UNL     1      62.426  52.128  58.433  0.00  0.00    +0.000 C 
ATOM     30  C   UNL     1      61.192  52.809  57.830  0.00  0.00    +0.000 C 
ATOM     31  C   UNL     1      62.260  50.608  58.462  0.00  0.00    +0.000 C 
ATOM     32  C   UNL     1      60.880  52.195  56.459  0.00  0.00    +0.000 C 
ATOM     33  C   UNL     1      61.865  50.091  57.063  0.00  0.00    +0.000 C 
ATOM     34  C   UNL     1      59.597  52.771  55.869  0.00  0.00    +0.000 C 
BRANCH  29  35
ATOM     35  O   UNL     1      62.612  52.631  59.770  0.00  0.00    +0.000 OA
ATOM     36  H   UNL     1      63.325  53.299  59.689  0.00  0.00    +0.000 HD
ENDBRANCH  29  35
BRANCH  30  37
ATOM     37  O   UNL     1      61.445  54.215  57.723  0.00  0.00    +0.000 OA
ATOM     38  H   UNL     1      60.750  54.556  57.125  0.00  0.00    +0.000 HD
ENDBRANCH  30  37
BRANCH  31  39
ATOM     39  O   UNL     1      61.266  50.298  59.461  0.00  0.00    +0.000 OA
ATOM     40  H   UNL     1      61.272  49.331  59.582  0.00  0.00    +0.000 HD
ENDBRANCH  31  39
ENDBRANCH  27  33
ENDBRANCH   5  27
BRANCH   3  41
ATOM     41  O   UNL     1      64.823  43.093  53.614  0.00  0.00    +0.000 OA
BRANCH  41  47
ATOM     42  O   UNL     1      63.322  41.755  54.862  0.00  0.00    +0.000 OA
ATOM     43  C   UNL     1      63.642  39.594  53.022  0.00  0.00    +0.000 C 
ATOM     44  C   UNL     1      62.998  39.393  54.396  0.00  0.00    +0.000 C 
ATOM     45  C   UNL     1      64.588  40.793  53.030  0.00  0.00    +0.000 C 
ATOM     46  C   UNL     1      62.340  40.704  54.849  0.00  0.00    +0.000 C 
ATOM     47  C   UNL     1      63.845  42.032  53.564  0.00  0.00    +0.000 C 
BRANCH  44  48
ATOM     48  O   UNL     1      62.045  38.332  54.315  0.00  0.00    +0.000 OA
ATOM     49  H   UNL     1      61.284  38.629  54.856  0.00  0.00    +0.000 HD
ENDBRANCH  44  48
BRANCH  45  50
ATOM     50  O   UNL     1      65.082  40.993  51.695  0.00  0.00    +0.000 OA
ATOM     51  H   UNL     1      64.714  41.849  51.399  0.00  0.00    +0.000 HD
ENDBRANCH  45  50
BRANCH  43  52
ATOM     52  O   UNL     1      64.355  38.399  52.662  0.00  0.00    +0.000 OA
ATOM     53  H   UNL     1      64.875  38.641  51.870  0.00  0.00    +0.000 HD
ENDBRANCH  43  52
BRANCH  46  54
ATOM     54  C   UNL     1      61.753  40.571  56.261  0.00  0.00    +0.000 C 
BRANCH  54  55
ATOM     55  O   UNL     1      62.359  39.464  56.933  0.00  0.00    +0.000 OA
ATOM     56  H   UNL     1      61.737  39.179  57.623  0.00  0.00    +0.000 HD
ENDBRANCH  54  55
ENDBRANCH  46  54
ENDBRANCH  41  47
ENDBRANCH   3  41
TORSDOF 17
ENDMDL
