MODEL 1
REMARK VINA RESULT:      -6.4      0.000      0.000
REMARK  Name = 
REMARK  6 active torsions:
REMARK  status: ('A' for Active; 'I' for Inactive)
REMARK    1  A    between atoms: O_3  and  C_16
REMARK    2  A    between atoms: O_4  and  C_17
REMARK    3  A    between atoms: O_4  and  C_22
REMARK    4  A    between atoms: O_5  and  C_19
REMARK    5  A    between atoms: O_5  and  C_23
REMARK    6  A    between atoms: O_6  and  C_21
REMARK                            x       y       z     vdW  Elec       q    Type
REMARK                         _______ _______ _______ _____ _____    ______ ____
ROOT
ATOM      1  O   UNL     1      77.113  79.917  82.680  0.00  0.00    +0.000 OA
ATOM      2  O   UNL     1      75.107  83.312  82.871  0.00  0.00    +0.000 OA
ATOM      3  C   UNL     1      77.299  82.310  82.393  0.00  0.00    +0.000 C 
ATOM      4  C   UNL     1      77.017  81.179  83.388  0.00  0.00    +0.000 C 
ATOM      5  C   UNL     1      76.962  81.612  81.121  0.00  0.00    +0.000 A 
ATOM      6  C   UNL     1      76.507  83.554  82.737  0.00  0.00    +0.000 C 
ATOM      7  C   UNL     1      75.670  81.284  84.070  0.00  0.00    +0.000 A 
ATOM      8  C   UNL     1      76.909  80.247  81.363  0.00  0.00    +0.000 A 
ATOM      9  C   UNL     1      74.781  82.329  83.767  0.00  0.00    +0.000 A 
ATOM     10  C   UNL     1      76.780  82.113  79.843  0.00  0.00    +0.000 A 
ATOM     11  C   UNL     1      75.303  80.312  85.019  0.00  0.00    +0.000 A 
ATOM     12  C   UNL     1      76.678  79.349  80.341  0.00  0.00    +0.000 A 
ATOM     13  C   UNL     1      73.518  82.367  84.374  0.00  0.00    +0.000 A 
ATOM     14  C   UNL     1      76.532  81.212  78.797  0.00  0.00    +0.000 A 
ATOM     15  C   UNL     1      76.481  79.829  79.040  0.00  0.00    +0.000 A 
ATOM     16  C   UNL     1      74.070  80.380  85.662  0.00  0.00    +0.000 A 
ATOM     17  C   UNL     1      73.196  81.406  85.340  0.00  0.00    +0.000 A 
ENDROOT
BRANCH  12  18
ATOM     18  O   UNL     1      76.638  78.007  80.596  0.00  0.00    +0.000 OA
ATOM     19  H   UNL     1      75.699  77.810  80.769  0.00  0.00    +0.000 HD
ENDBRANCH  12  18
BRANCH  13  20
ATOM     20  O   UNL     1      72.546  83.316  84.163  0.00  0.00    +0.000 OA
ATOM     21  C   UNL     1      72.860  84.607  84.683  0.00  0.00    +0.000 C 
ENDBRANCH  13  20
BRANCH  15  22
ATOM     22  O   UNL     1      76.253  78.856  78.097  0.00  0.00    +0.000 OA
ATOM     23  C   UNL     1      75.376  79.194  77.028  0.00  0.00    +0.000 C 
ENDBRANCH  15  22
BRANCH  17  24
ATOM     24  O   UNL     1      71.988  81.455  85.983  0.00  0.00    +0.000 OA
ATOM     25  H   UNL     1      71.697  82.383  85.899  0.00  0.00    +0.000 HD
ENDBRANCH  17  24
TORSDOF 4
ENDMDL
MODEL 2
REMARK VINA RESULT:      -6.0      2.000      6.564
REMARK  Name = 
REMARK  6 active torsions:
REMARK  status: ('A' for Active; 'I' for Inactive)
REMARK    1  A    between atoms: O_3  and  C_16
REMARK    2  A    between atoms: O_4  and  C_17
REMARK    3  A    between atoms: O_4  and  C_22
REMARK    4  A    between atoms: O_5  and  C_19
REMARK    5  A    between atoms: O_5  and  C_23
REMARK    6  A    between atoms: O_6  and  C_21
REMARK                            x       y       z     vdW  Elec       q    Type
REMARK                         _______ _______ _______ _____ _____    ______ ____
ROOT
ATOM      1  O   UNL     1      78.061  81.362  84.401  0.00  0.00    +0.000 OA
ATOM      2  O   UNL     1      77.079  78.076  82.447  0.00  0.00    +0.000 OA
ATOM      3  C   UNL     1      77.527  79.020  84.670  0.00  0.00    +0.000 C 
ATOM      4  C   UNL     1      78.511  80.026  84.062  0.00  0.00    +0.000 C 
ATOM      5  C   UNL     1      76.326  79.892  84.797  0.00  0.00    +0.000 A 
ATOM      6  C   UNL     1      77.402  77.783  83.805  0.00  0.00    +0.000 C 
ATOM      7  C   UNL     1      78.666  79.902  82.562  0.00  0.00    +0.000 A 
ATOM      8  C   UNL     1      76.721  81.215  84.666  0.00  0.00    +0.000 A 
ATOM      9  C   UNL     1      77.935  78.951  81.831  0.00  0.00    +0.000 A 
ATOM     10  C   UNL     1      75.007  79.570  85.070  0.00  0.00    +0.000 A 
ATOM     11  C   UNL     1      79.556  80.761  81.890  0.00  0.00    +0.000 A 
ATOM     12  C   UNL     1      75.817  82.248  84.808  0.00  0.00    +0.000 A 
ATOM     13  C   UNL     1      78.059  78.899  80.436  0.00  0.00    +0.000 A 
ATOM     14  C   UNL     1      74.075  80.609  85.202  0.00  0.00    +0.000 A 
ATOM     15  C   UNL     1      74.474  81.950  85.074  0.00  0.00    +0.000 A 
ATOM     16  C   UNL     1      79.720  80.673  80.510  0.00  0.00    +0.000 A 
ATOM     17  C   UNL     1      78.978  79.742  79.800  0.00  0.00    +0.000 A 
ENDROOT
BRANCH  12  18
ATOM     18  O   UNL     1      76.225  83.547  84.685  0.00  0.00    +0.000 OA
ATOM     19  H   UNL     1      76.019  83.791  83.764  0.00  0.00    +0.000 HD
ENDBRANCH  12  18
BRANCH  13  20
ATOM     20  O   UNL     1      77.397  78.034  79.596  0.00  0.00    +0.000 OA
ATOM     21  C   UNL     1      76.153  78.527  79.102  0.00  0.00    +0.000 C 
ENDBRANCH  13  20
BRANCH  15  22
ATOM     22  O   UNL     1      73.654  83.046  85.190  0.00  0.00    +0.000 OA
ATOM     23  C   UNL     1      72.263  82.830  84.982  0.00  0.00    +0.000 C 
ENDBRANCH  15  22
BRANCH  17  24
ATOM     24  O   UNL     1      79.153  79.671  78.444  0.00  0.00    +0.000 OA
ATOM     25  H   UNL     1      78.895  78.761  78.206  0.00  0.00    +0.000 HD
ENDBRANCH  17  24
TORSDOF 4
ENDMDL
MODEL 3
REMARK VINA RESULT:      -5.9     46.823     51.231
REMARK  Name = 
REMARK  6 active torsions:
REMARK  status: ('A' for Active; 'I' for Inactive)
REMARK    1  A    between atoms: O_3  and  C_16
REMARK    2  A    between atoms: O_4  and  C_17
REMARK    3  A    between atoms: O_4  and  C_22
REMARK    4  A    between atoms: O_5  and  C_19
REMARK    5  A    between atoms: O_5  and  C_23
REMARK    6  A    between atoms: O_6  and  C_21
REMARK                            x       y       z     vdW  Elec       q    Type
REMARK                         _______ _______ _______ _____ _____    ______ ____
ROOT
ATOM      1  O   UNL     1      61.890  41.453  53.221  0.00  0.00    +0.000 OA
ATOM      2  O   UNL     1      64.076  38.326  54.235  0.00  0.00    +0.000 OA
ATOM      3  C   UNL     1      63.541  39.884  52.412  0.00  0.00    +0.000 C 
ATOM      4  C   UNL     1      62.115  40.047  52.947  0.00  0.00    +0.000 C 
ATOM      5  C   UNL     1      64.160  41.118  52.973  0.00  0.00    +0.000 A 
ATOM      6  C   UNL     1      64.136  38.555  52.828  0.00  0.00    +0.000 C 
ATOM      7  C   UNL     1      61.829  39.231  54.190  0.00  0.00    +0.000 A 
ATOM      8  C   UNL     1      63.150  41.976  53.381  0.00  0.00    +0.000 A 
ATOM      9  C   UNL     1      62.822  38.430  54.777  0.00  0.00    +0.000 A 
ATOM     10  C   UNL     1      65.490  41.494  53.063  0.00  0.00    +0.000 A 
ATOM     11  C   UNL     1      60.547  39.283  54.767  0.00  0.00    +0.000 A 
ATOM     12  C   UNL     1      63.436  43.229  53.883  0.00  0.00    +0.000 A 
ATOM     13  C   UNL     1      62.544  37.730  55.960  0.00  0.00    +0.000 A 
ATOM     14  C   UNL     1      65.796  42.759  53.585  0.00  0.00    +0.000 A 
ATOM     15  C   UNL     1      64.774  43.632  53.995  0.00  0.00    +0.000 A 
ATOM     16  C   UNL     1      60.253  38.545  55.910  0.00  0.00    +0.000 A 
ATOM     17  C   UNL     1      61.249  37.774  56.489  0.00  0.00    +0.000 A 
ENDROOT
BRANCH  12  18
ATOM     18  O   UNL     1      62.428  44.067  54.271  0.00  0.00    +0.000 OA
ATOM     19  H   UNL     1      62.310  43.896  55.224  0.00  0.00    +0.000 HD
ENDBRANCH  12  18
BRANCH  13  20
ATOM     20  O   UNL     1      63.419  36.923  56.649  0.00  0.00    +0.000 OA
ATOM     21  C   UNL     1      63.545  35.604  56.121  0.00  0.00    +0.000 C 
ENDBRANCH  13  20
BRANCH  15  22
ATOM     22  O   UNL     1      64.953  44.892  54.512  0.00  0.00    +0.000 OA
ATOM     23  C   UNL     1      66.270  45.230  54.932  0.00  0.00    +0.000 C 
ENDBRANCH  15  22
BRANCH  17  24
ATOM     24  O   UNL     1      60.940  37.056  57.614  0.00  0.00    +0.000 OA
ATOM     25  H   UNL     1      60.812  37.727  58.311  0.00  0.00    +0.000 HD
ENDBRANCH  17  24
TORSDOF 4
ENDMDL
MODEL 4
REMARK VINA RESULT:      -5.7      1.776      2.307
REMARK  Name = 
REMARK  6 active torsions:
REMARK  status: ('A' for Active; 'I' for Inactive)
REMARK    1  A    between atoms: O_3  and  C_16
REMARK    2  A    between atoms: O_4  and  C_17
REMARK    3  A    between atoms: O_4  and  C_22
REMARK    4  A    between atoms: O_5  and  C_19
REMARK    5  A    between atoms: O_5  and  C_23
REMARK    6  A    between atoms: O_6  and  C_21
REMARK                            x       y       z     vdW  Elec       q    Type
REMARK                         _______ _______ _______ _____ _____    ______ ____
ROOT
ATOM      1  O   UNL     1      76.973  78.825  83.362  0.00  0.00    +0.000 OA
ATOM      2  O   UNL     1      77.750  82.650  83.954  0.00  0.00    +0.000 OA
ATOM      3  C   UNL     1      78.709  80.388  83.980  0.00  0.00    +0.000 C 
ATOM      4  C   UNL     1      77.349  79.798  84.368  0.00  0.00    +0.000 C 
ATOM      5  C   UNL     1      78.692  80.112  82.516  0.00  0.00    +0.000 A 
ATOM      6  C   UNL     1      78.826  81.834  84.416  0.00  0.00    +0.000 C 
ATOM      7  C   UNL     1      76.253  80.831  84.519  0.00  0.00    +0.000 A 
ATOM      8  C   UNL     1      77.695  79.185  82.251  0.00  0.00    +0.000 A 
ATOM      9  C   UNL     1      76.502  82.195  84.289  0.00  0.00    +0.000 A 
ATOM     10  C   UNL     1      79.516  80.577  81.505  0.00  0.00    +0.000 A 
ATOM     11  C   UNL     1      74.961  80.414  84.890  0.00  0.00    +0.000 A 
ATOM     12  C   UNL     1      77.497  78.695  80.976  0.00  0.00    +0.000 A 
ATOM     13  C   UNL     1      75.453  83.120  84.381  0.00  0.00    +0.000 A 
ATOM     14  C   UNL     1      79.316  80.098  80.202  0.00  0.00    +0.000 A 
ATOM     15  C   UNL     1      78.309  79.156  79.931  0.00  0.00    +0.000 A 
ATOM     16  C   UNL     1      73.932  81.339  85.035  0.00  0.00    +0.000 A 
ATOM     17  C   UNL     1      74.188  82.679  84.787  0.00  0.00    +0.000 A 
ENDROOT
BRANCH  12  18
ATOM     18  O   UNL     1      76.517  77.774  80.733  0.00  0.00    +0.000 OA
ATOM     19  H   UNL     1      75.842  77.936  81.418  0.00  0.00    +0.000 HD
ENDBRANCH  12  18
BRANCH  13  20
ATOM     20  O   UNL     1      75.548  84.476  84.170  0.00  0.00    +0.000 OA
ATOM     21  C   UNL     1      76.172  85.196  85.232  0.00  0.00    +0.000 C 
ENDBRANCH  13  20
BRANCH  15  22
ATOM     22  O   UNL     1      78.028  78.613  78.702  0.00  0.00    +0.000 OA
ATOM     23  C   UNL     1      77.508  79.497  77.715  0.00  0.00    +0.000 C 
ENDBRANCH  15  22
BRANCH  17  24
ATOM     24  O   UNL     1      73.162  83.573  84.935  0.00  0.00    +0.000 OA
ATOM     25  H   UNL     1      72.709  83.300  85.755  0.00  0.00    +0.000 HD
ENDBRANCH  17  24
TORSDOF 4
ENDMDL
MODEL 5
REMARK VINA RESULT:      -5.7     48.577     50.503
REMARK  Name = 
REMARK  6 active torsions:
REMARK  status: ('A' for Active; 'I' for Inactive)
REMARK    1  A    between atoms: O_3  and  C_16
REMARK    2  A    between atoms: O_4  and  C_17
REMARK    3  A    between atoms: O_4  and  C_22
REMARK    4  A    between atoms: O_5  and  C_19
REMARK    5  A    between atoms: O_5  and  C_23
REMARK    6  A    between atoms: O_6  and  C_21
REMARK                            x       y       z     vdW  Elec       q    Type
REMARK                         _______ _______ _______ _____ _____    ______ ____
ROOT
ATOM      1  O   UNL     1      45.630  43.392  72.879  0.00  0.00    +0.000 OA
ATOM      2  O   UNL     1      45.685  43.109  68.942  0.00  0.00    +0.000 OA
ATOM      3  C   UNL     1      46.714  44.213  70.881  0.00  0.00    +0.000 C 
ATOM      4  C   UNL     1      45.392  44.127  71.651  0.00  0.00    +0.000 C 
ATOM      5  C   UNL     1      47.421  43.040  71.467  0.00  0.00    +0.000 A 
ATOM      6  C   UNL     1      46.478  44.209  69.384  0.00  0.00    +0.000 C 
ATOM      7  C   UNL     1      44.269  43.476  70.873  0.00  0.00    +0.000 A 
ATOM      8  C   UNL     1      46.759  42.654  72.623  0.00  0.00    +0.000 A 
ATOM      9  C   UNL     1      44.475  42.987  69.572  0.00  0.00    +0.000 A 
ATOM     10  C   UNL     1      48.582  42.399  71.067  0.00  0.00    +0.000 A 
ATOM     11  C   UNL     1      43.001  43.354  71.469  0.00  0.00    +0.000 A 
ATOM     12  C   UNL     1      47.237  41.627  73.411  0.00  0.00    +0.000 A 
ATOM     13  C   UNL     1      43.430  42.338  68.898  0.00  0.00    +0.000 A 
ATOM     14  C   UNL     1      49.071  41.344  71.850  0.00  0.00    +0.000 A 
ATOM     15  C   UNL     1      48.404  40.954  73.024  0.00  0.00    +0.000 A 
ATOM     16  C   UNL     1      41.948  42.759  70.779  0.00  0.00    +0.000 A 
ATOM     17  C   UNL     1      42.171  42.264  69.503  0.00  0.00    +0.000 A 
ENDROOT
BRANCH  12  18
ATOM     18  O   UNL     1      46.578  41.265  74.552  0.00  0.00    +0.000 OA
ATOM     19  H   UNL     1      46.827  40.335  74.705  0.00  0.00    +0.000 HD
ENDBRANCH  12  18
BRANCH  13  20
ATOM     20  O   UNL     1      43.493  41.801  67.634  0.00  0.00    +0.000 OA
ATOM     21  C   UNL     1      44.095  40.509  67.571  0.00  0.00    +0.000 C 
ENDBRANCH  13  20
BRANCH  15  22
ATOM     22  O   UNL     1      48.792  39.944  73.871  0.00  0.00    +0.000 OA
ATOM     23  C   UNL     1      50.156  39.541  73.802  0.00  0.00    +0.000 C 
ENDBRANCH  15  22
BRANCH  17  24
ATOM     24  O   UNL     1      41.122  41.682  68.842  0.00  0.00    +0.000 OA
ATOM     25  H   UNL     1      41.537  41.134  68.149  0.00  0.00    +0.000 HD
ENDBRANCH  17  24
TORSDOF 4
ENDMDL
MODEL 6
REMARK VINA RESULT:      -5.3     47.167     48.727
REMARK  Name = 
REMARK  6 active torsions:
REMARK  status: ('A' for Active; 'I' for Inactive)
REMARK    1  A    between atoms: O_3  and  C_16
REMARK    2  A    between atoms: O_4  and  C_17
REMARK    3  A    between atoms: O_4  and  C_22
REMARK    4  A    between atoms: O_5  and  C_19
REMARK    5  A    between atoms: O_5  and  C_23
REMARK    6  A    between atoms: O_6  and  C_21
REMARK                            x       y       z     vdW  Elec       q    Type
REMARK                         _______ _______ _______ _____ _____    ______ ____
ROOT
ATOM      1  O   UNL     1      50.065  40.467  70.299  0.00  0.00    +0.000 OA
ATOM      2  O   UNL     1      48.458  40.776  73.892  0.00  0.00    +0.000 OA
ATOM      3  C   UNL     1      49.323  39.199  72.219  0.00  0.00    +0.000 C 
ATOM      4  C   UNL     1      48.893  40.138  71.087  0.00  0.00    +0.000 C 
ATOM      5  C   UNL     1      50.769  39.549  72.296  0.00  0.00    +0.000 A 
ATOM      6  C   UNL     1      48.485  39.416  73.461  0.00  0.00    +0.000 C 
ATOM      7  C   UNL     1      48.223  41.409  71.566  0.00  0.00    +0.000 A 
ATOM      8  C   UNL     1      51.121  40.241  71.147  0.00  0.00    +0.000 A 
ATOM      9  C   UNL     1      48.056  41.670  72.936  0.00  0.00    +0.000 A 
ATOM     10  C   UNL     1      51.718  39.235  73.254  0.00  0.00    +0.000 A 
ATOM     11  C   UNL     1      47.768  42.345  70.619  0.00  0.00    +0.000 A 
ATOM     12  C   UNL     1      52.424  40.634  70.922  0.00  0.00    +0.000 A 
ATOM     13  C   UNL     1      47.483  42.882  73.349  0.00  0.00    +0.000 A 
ATOM     14  C   UNL     1      53.044  39.641  73.044  0.00  0.00    +0.000 A 
ATOM     15  C   UNL     1      53.404  40.340  71.880  0.00  0.00    +0.000 A 
ATOM     16  C   UNL     1      47.150  43.523  71.028  0.00  0.00    +0.000 A 
ATOM     17  C   UNL     1      47.008  43.776  72.383  0.00  0.00    +0.000 A 
ENDROOT
BRANCH  12  18
ATOM     18  O   UNL     1      52.757  41.308  69.780  0.00  0.00    +0.000 OA
ATOM     19  H   UNL     1      53.655  41.002  69.557  0.00  0.00    +0.000 HD
ENDBRANCH  12  18
BRANCH  13  20
ATOM     20  O   UNL     1      47.272  43.275  74.650  0.00  0.00    +0.000 OA
ATOM     21  C   UNL     1      46.076  42.764  75.234  0.00  0.00    +0.000 C 
ENDBRANCH  13  20
BRANCH  15  22
ATOM     22  O   UNL     1      54.667  40.779  71.565  0.00  0.00    +0.000 OA
ATOM     23  C   UNL     1      55.694  39.795  71.518  0.00  0.00    +0.000 C 
ENDBRANCH  15  22
BRANCH  17  24
ATOM     24  O   UNL     1      46.398  44.941  72.765  0.00  0.00    +0.000 OA
ATOM     25  H   UNL     1      46.929  45.648  72.351  0.00  0.00    +0.000 HD
ENDBRANCH  17  24
TORSDOF 4
ENDMDL
MODEL 7
REMARK VINA RESULT:      -5.3     45.569     48.236
REMARK  Name = 
REMARK  6 active torsions:
REMARK  status: ('A' for Active; 'I' for Inactive)
REMARK    1  A    between atoms: O_3  and  C_16
REMARK    2  A    between atoms: O_4  and  C_17
REMARK    3  A    between atoms: O_4  and  C_22
REMARK    4  A    between atoms: O_5  and  C_19
REMARK    5  A    between atoms: O_5  and  C_23
REMARK    6  A    between atoms: O_6  and  C_21
REMARK                            x       y       z     vdW  Elec       q    Type
REMARK                         _______ _______ _______ _____ _____    ______ ____
ROOT
ATOM      1  O   UNL     1      62.797  36.747  67.651  0.00  0.00    +0.000 OA
ATOM      2  O   UNL     1      60.180  39.656  68.173  0.00  0.00    +0.000 OA
ATOM      3  C   UNL     1      61.740  38.634  66.573  0.00  0.00    +0.000 C 
ATOM      4  C   UNL     1      62.651  38.188  67.721  0.00  0.00    +0.000 C 
ATOM      5  C   UNL     1      61.012  37.359  66.322  0.00  0.00    +0.000 A 
ATOM      6  C   UNL     1      60.915  39.843  66.965  0.00  0.00    +0.000 C 
ATOM      7  C   UNL     1      62.149  38.585  69.093  0.00  0.00    +0.000 A 
ATOM      8  C   UNL     1      61.699  36.326  66.942  0.00  0.00    +0.000 A 
ATOM      9  C   UNL     1      60.938  39.280  69.251  0.00  0.00    +0.000 A 
ATOM     10  C   UNL     1      59.882  37.105  65.563  0.00  0.00    +0.000 A 
ATOM     11  C   UNL     1      62.908  38.246  70.228  0.00  0.00    +0.000 A 
ATOM     12  C   UNL     1      61.282  35.016  66.819  0.00  0.00    +0.000 A 
ATOM     13  C   UNL     1      60.472  39.585  70.537  0.00  0.00    +0.000 A 
ATOM     14  C   UNL     1      59.439  35.780  65.442  0.00  0.00    +0.000 A 
ATOM     15  C   UNL     1      60.135  34.731  66.065  0.00  0.00    +0.000 A 
ATOM     16  C   UNL     1      62.473  38.597  71.503  0.00  0.00    +0.000 A 
ATOM     17  C   UNL     1      61.267  39.266  71.644  0.00  0.00    +0.000 A 
ENDROOT
BRANCH  12  18
ATOM     18  O   UNL     1      61.975  34.009  67.428  0.00  0.00    +0.000 OA
ATOM     19  H   UNL     1      61.551  33.186  67.121  0.00  0.00    +0.000 HD
ENDBRANCH  12  18
BRANCH  13  20
ATOM     20  O   UNL     1      59.304  40.244  70.841  0.00  0.00    +0.000 OA
ATOM     21  C   UNL     1      58.142  39.417  70.837  0.00  0.00    +0.000 C 
ENDBRANCH  13  20
BRANCH  15  22
ATOM     22  O   UNL     1      59.800  33.400  66.010  0.00  0.00    +0.000 OA
ATOM     23  C   UNL     1      58.961  32.995  64.934  0.00  0.00    +0.000 C 
ENDBRANCH  15  22
BRANCH  17  24
ATOM     24  O   UNL     1      60.857  39.601  72.907  0.00  0.00    +0.000 OA
ATOM     25  H   UNL     1      61.473  39.134  73.502  0.00  0.00    +0.000 HD
ENDBRANCH  17  24
TORSDOF 4
ENDMDL
MODEL 8
REMARK VINA RESULT:      -5.1     33.957     36.474
REMARK  Name = 
REMARK  6 active torsions:
REMARK  status: ('A' for Active; 'I' for Inactive)
REMARK    1  A    between atoms: O_3  and  C_16
REMARK    2  A    between atoms: O_4  and  C_17
REMARK    3  A    between atoms: O_4  and  C_22
REMARK    4  A    between atoms: O_5  and  C_19
REMARK    5  A    between atoms: O_5  and  C_23
REMARK    6  A    between atoms: O_6  and  C_21
REMARK                            x       y       z     vdW  Elec       q    Type
REMARK                         _______ _______ _______ _____ _____    ______ ____
ROOT
ATOM      1  O   UNL     1      61.024  55.197  61.306  0.00  0.00    +0.000 OA
ATOM      2  O   UNL     1      63.765  57.623  59.825  0.00  0.00    +0.000 OA
ATOM      3  C   UNL     1      63.313  55.934  61.552  0.00  0.00    +0.000 C 
ATOM      4  C   UNL     1      61.841  56.358  61.604  0.00  0.00    +0.000 C 
ATOM      5  C   UNL     1      63.196  54.734  60.677  0.00  0.00    +0.000 A 
ATOM      6  C   UNL     1      64.193  57.067  61.068  0.00  0.00    +0.000 C 
ATOM      7  C   UNL     1      61.493  57.487  60.658  0.00  0.00    +0.000 A 
ATOM      8  C   UNL     1      61.862  54.357  60.616  0.00  0.00    +0.000 A 
ATOM      9  C   UNL     1      62.462  58.048  59.809  0.00  0.00    +0.000 A 
ATOM     10  C   UNL     1      64.173  53.990  60.038  0.00  0.00    +0.000 A 
ATOM     11  C   UNL     1      60.175  57.976  60.626  0.00  0.00    +0.000 A 
ATOM     12  C   UNL     1      61.470  53.229  59.923  0.00  0.00    +0.000 A 
ATOM     13  C   UNL     1      62.097  59.054  58.903  0.00  0.00    +0.000 A 
ATOM     14  C   UNL     1      63.787  52.850  59.318  0.00  0.00    +0.000 A 
ATOM     15  C   UNL     1      62.437  52.464  59.258  0.00  0.00    +0.000 A 
ATOM     16  C   UNL     1      59.824  59.013  59.766  0.00  0.00    +0.000 A 
ATOM     17  C   UNL     1      60.786  59.544  58.921  0.00  0.00    +0.000 A 
ENDROOT
BRANCH  12  18
ATOM     18  O   UNL     1      60.153  52.866  59.881  0.00  0.00    +0.000 OA
ATOM     19  H   UNL     1      60.096  52.057  60.421  0.00  0.00    +0.000 HD
ENDBRANCH  12  18
BRANCH  13  20
ATOM     20  O   UNL     1      62.932  59.681  58.008  0.00  0.00    +0.000 OA
ATOM     21  C   UNL     1      63.729  60.719  58.574  0.00  0.00    +0.000 C 
ENDBRANCH  13  20
BRANCH  15  22
ATOM     22  O   UNL     1      61.945  51.367  58.593  0.00  0.00    +0.000 OA
ATOM     23  C   UNL     1      62.227  50.094  59.162  0.00  0.00    +0.000 C 
ENDBRANCH  15  22
BRANCH  17  24
ATOM     24  O   UNL     1      60.420  60.562  58.082  0.00  0.00    +0.000 OA
ATOM     25  H   UNL     1      60.987  61.314  58.340  0.00  0.00    +0.000 HD
ENDBRANCH  17  24
TORSDOF 4
ENDMDL
MODEL 9
REMARK VINA RESULT:      -5.0     13.665     15.288
REMARK  Name = 
REMARK  6 active torsions:
REMARK  status: ('A' for Active; 'I' for Inactive)
REMARK    1  A    between atoms: O_3  and  C_16
REMARK    2  A    between atoms: O_4  and  C_17
REMARK    3  A    between atoms: O_4  and  C_22
REMARK    4  A    between atoms: O_5  and  C_19
REMARK    5  A    between atoms: O_5  and  C_23
REMARK    6  A    between atoms: O_6  and  C_21
REMARK                            x       y       z     vdW  Elec       q    Type
REMARK                         _______ _______ _______ _____ _____    ______ ____
ROOT
ATOM      1  O   UNL     1      60.817  77.366  81.405  0.00  0.00    +0.000 OA
ATOM      2  O   UNL     1      63.021  79.639  79.046  0.00  0.00    +0.000 OA
ATOM      3  C   UNL     1      62.873  77.442  80.137  0.00  0.00    +0.000 C 
ATOM      4  C   UNL     1      62.089  78.055  81.302  0.00  0.00    +0.000 C 
ATOM      5  C   UNL     1      61.745  76.869  79.351  0.00  0.00    +0.000 A 
ATOM      6  C   UNL     1      63.743  78.478  79.455  0.00  0.00    +0.000 C 
ATOM      7  C   UNL     1      61.856  79.545  81.169  0.00  0.00    +0.000 A 
ATOM      8  C   UNL     1      60.617  76.829  80.158  0.00  0.00    +0.000 A 
ATOM      9  C   UNL     1      62.316  80.255  80.047  0.00  0.00    +0.000 A 
ATOM     10  C   UNL     1      61.714  76.363  78.063  0.00  0.00    +0.000 A 
ATOM     11  C   UNL     1      61.161  80.226  82.185  0.00  0.00    +0.000 A 
ATOM     12  C   UNL     1      59.435  76.280  79.704  0.00  0.00    +0.000 A 
ATOM     13  C   UNL     1      62.036  81.623  79.925  0.00  0.00    +0.000 A 
ATOM     14  C   UNL     1      60.514  75.816  77.585  0.00  0.00    +0.000 A 
ATOM     15  C   UNL     1      59.372  75.770  78.401  0.00  0.00    +0.000 A 
ATOM     16  C   UNL     1      60.930  81.595  82.090  0.00  0.00    +0.000 A 
ATOM     17  C   UNL     1      61.374  82.279  80.969  0.00  0.00    +0.000 A 
ENDROOT
BRANCH  12  18
ATOM     18  O   UNL     1      58.335  76.240  80.515  0.00  0.00    +0.000 OA
ATOM     19  H   UNL     1      58.557  76.813  81.272  0.00  0.00    +0.000 HD
ENDBRANCH  12  18
BRANCH  13  20
ATOM     20  O   UNL     1      62.409  82.436  78.881  0.00  0.00    +0.000 OA
ATOM     21  C   UNL     1      61.557  82.358  77.739  0.00  0.00    +0.000 C 
ENDBRANCH  13  20
BRANCH  15  22
ATOM     22  O   UNL     1      58.150  75.254  78.044  0.00  0.00    +0.000 OA
ATOM     23  C   UNL     1      58.063  73.838  77.927  0.00  0.00    +0.000 C 
ENDBRANCH  15  22
BRANCH  17  24
ATOM     24  O   UNL     1      61.136  83.626  80.895  0.00  0.00    +0.000 OA
ATOM     25  H   UNL     1      61.585  84.002  81.676  0.00  0.00    +0.000 HD
ENDBRANCH  17  24
TORSDOF 4
ENDMDL
