MODEL 1
REMARK VINA RESULT:      -6.1      0.000      0.000
REMARK  Name = 
REMARK  9 active torsions:
REMARK  status: ('A' for Active; 'I' for Inactive)
REMARK    1  A    between atoms: O_1  and  N_7
REMARK    2  A    between atoms: O_1  and  C_20
REMARK    3  A    between atoms: O_2  and  C_14
REMARK    4  A    between atoms: O_3  and  C_18
REMARK    5  A    between atoms: O_4  and  C_25
REMARK    6  A    between atoms: C_8  and  C_10
REMARK    7  A    between atoms: C_17  and  C_18
REMARK    8  A    between atoms: C_17  and  C_20
REMARK    9  A    between atoms: C_18  and  C_25
REMARK                            x       y       z     vdW  Elec       q    Type
REMARK                         _______ _______ _______ _____ _____    ______ ____
ROOT
ATOM      1  N   UNL     1      60.276  50.851  59.230  0.00  0.00    +0.000 NA
ATOM      2  N   UNL     1      60.637  54.345  58.733  0.00  0.00    +0.000 NA
ATOM      3  C   UNL     1      59.775  52.035  58.982  0.00  0.00    +0.000 C 
ATOM      4  C   UNL     1      60.871  53.076  58.847  0.00  0.00    +0.000 C 
ATOM      5  C   UNL     1      62.105  52.311  58.967  0.00  0.00    +0.000 A 
ATOM      6  C   UNL     1      61.673  51.007  59.211  0.00  0.00    +0.000 A 
ATOM      7  C   UNL     1      63.445  52.648  58.904  0.00  0.00    +0.000 A 
ATOM      8  C   UNL     1      62.595  49.993  59.400  0.00  0.00    +0.000 A 
ATOM      9  C   UNL     1      64.378  51.626  59.094  0.00  0.00    +0.000 A 
ATOM     10  C   UNL     1      63.957  50.308  59.341  0.00  0.00    +0.000 A 
ENDROOT
BRANCH   3  12
ATOM     11  N   UNL     1      56.298  53.045  59.202  0.00  0.00    +0.000 N 
ATOM     12  C   UNL     1      58.346  52.225  58.889  0.00  0.00    +0.000 A 
ATOM     13  C   UNL     1      57.417  51.479  58.087  0.00  0.00    +0.000 A 
ATOM     14  C   UNL     1      56.146  52.007  58.315  0.00  0.00    +0.000 A 
ATOM     15  C   UNL     1      57.617  53.204  59.541  0.00  0.00    +0.000 A 
ATOM     16  C   UNL     1      57.536  50.391  57.196  0.00  0.00    +0.000 A 
ATOM     17  C   UNL     1      54.992  51.508  57.699  0.00  0.00    +0.000 A 
ATOM     18  C   UNL     1      56.394  49.878  56.571  0.00  0.00    +0.000 A 
ATOM     19  C   UNL     1      55.140  50.430  56.821  0.00  0.00    +0.000 A 
ATOM     20  H   UNL     1      55.536  53.620  59.528  0.00  0.00    +0.000 HD
BRANCH  15  21
ATOM     21  O   UNL     1      58.019  54.188  60.337  0.00  0.00    +0.000 OA
ATOM     22  H   UNL     1      57.324  54.858  60.429  0.00  0.00    +0.000 HD
ENDBRANCH  15  21
ENDBRANCH   3  12
BRANCH   2  23
ATOM     23  O   UNL     1      61.813  55.096  58.673  0.00  0.00    +0.000 OA
BRANCH  23  24
ATOM     24  C   UNL     1      61.462  56.475  58.596  0.00  0.00    +0.000 C 
BRANCH  24  25
ATOM     25  C   UNL     1      61.813  57.160  59.909  0.00  0.00    +0.000 C 
BRANCH  25  26
ATOM     26  C   UNL     1      60.778  56.958  61.016  0.00  0.00    +0.000 C 
BRANCH  26  27
ATOM     27  O   UNL     1      59.542  56.570  60.397  0.00  0.00    +0.000 OA
ATOM     28  H   UNL     1      59.631  56.865  59.469  0.00  0.00    +0.000 HD
ENDBRANCH  26  27
BRANCH  26  29
ATOM     29  C   UNL     1      61.160  55.884  62.039  0.00  0.00    +0.000 C 
BRANCH  29  30
ATOM     30  O   UNL     1      60.068  54.963  62.147  0.00  0.00    +0.000 OA
ATOM     31  H   UNL     1      59.422  55.218  61.464  0.00  0.00    +0.000 HD
ENDBRANCH  29  30
ENDBRANCH  26  29
ENDBRANCH  25  26
ENDBRANCH  24  25
ENDBRANCH  23  24
ENDBRANCH   2  23
TORSDOF 9
ENDMDL
MODEL 2
REMARK VINA RESULT:      -6.1     11.772     14.709
REMARK  Name = 
REMARK  9 active torsions:
REMARK  status: ('A' for Active; 'I' for Inactive)
REMARK    1  A    between atoms: O_1  and  N_7
REMARK    2  A    between atoms: O_1  and  C_20
REMARK    3  A    between atoms: O_2  and  C_14
REMARK    4  A    between atoms: O_3  and  C_18
REMARK    5  A    between atoms: O_4  and  C_25
REMARK    6  A    between atoms: C_8  and  C_10
REMARK    7  A    between atoms: C_17  and  C_18
REMARK    8  A    between atoms: C_17  and  C_20
REMARK    9  A    between atoms: C_18  and  C_25
REMARK                            x       y       z     vdW  Elec       q    Type
REMARK                         _______ _______ _______ _____ _____    ______ ____
ROOT
ATOM      1  N   UNL     1      64.628  41.494  51.986  0.00  0.00    +0.000 NA
ATOM      2  N   UNL     1      62.659  41.569  54.936  0.00  0.00    +0.000 NA
ATOM      3  C   UNL     1      64.405  41.904  53.210  0.00  0.00    +0.000 C 
ATOM      4  C   UNL     1      63.171  41.240  53.793  0.00  0.00    +0.000 C 
ATOM      5  C   UNL     1      62.747  40.307  52.757  0.00  0.00    +0.000 A 
ATOM      6  C   UNL     1      63.645  40.528  51.713  0.00  0.00    +0.000 A 
ATOM      7  C   UNL     1      61.719  39.385  52.669  0.00  0.00    +0.000 A 
ATOM      8  C   UNL     1      63.529  39.814  50.534  0.00  0.00    +0.000 A 
ATOM      9  C   UNL     1      61.600  38.663  51.480  0.00  0.00    +0.000 A 
ATOM     10  C   UNL     1      62.498  38.876  50.419  0.00  0.00    +0.000 A 
ENDROOT
BRANCH   3  12
ATOM     11  N   UNL     1      67.072  43.850  54.712  0.00  0.00    +0.000 N 
ATOM     12  C   UNL     1      65.270  42.882  53.827  0.00  0.00    +0.000 A 
ATOM     13  C   UNL     1      64.938  44.225  54.209  0.00  0.00    +0.000 A 
ATOM     14  C   UNL     1      66.079  44.799  54.769  0.00  0.00    +0.000 A 
ATOM     15  C   UNL     1      66.609  42.699  54.128  0.00  0.00    +0.000 A 
ATOM     16  C   UNL     1      63.764  45.007  54.143  0.00  0.00    +0.000 A 
ATOM     17  C   UNL     1      66.110  46.108  55.263  0.00  0.00    +0.000 A 
ATOM     18  C   UNL     1      63.776  46.318  54.632  0.00  0.00    +0.000 A 
ATOM     19  C   UNL     1      64.933  46.858  55.185  0.00  0.00    +0.000 A 
ATOM     20  H   UNL     1      68.015  44.007  55.033  0.00  0.00    +0.000 HD
BRANCH  15  21
ATOM     21  O   UNL     1      67.407  41.661  53.904  0.00  0.00    +0.000 OA
ATOM     22  H   UNL     1      67.168  41.221  53.072  0.00  0.00    +0.000 HD
ENDBRANCH  15  21
ENDBRANCH   3  12
BRANCH   2  23
ATOM     23  O   UNL     1      61.500  40.845  55.225  0.00  0.00    +0.000 OA
BRANCH  23  24
ATOM     24  C   UNL     1      61.748  40.042  56.376  0.00  0.00    +0.000 C 
BRANCH  24  25
ATOM     25  C   UNL     1      61.076  38.687  56.202  0.00  0.00    +0.000 C 
BRANCH  25  26
ATOM     26  C   UNL     1      61.751  37.551  56.971  0.00  0.00    +0.000 C 
BRANCH  26  27
ATOM     27  O   UNL     1      61.057  36.334  56.658  0.00  0.00    +0.000 OA
ATOM     28  H   UNL     1      61.744  35.641  56.714  0.00  0.00    +0.000 HD
ENDBRANCH  26  27
BRANCH  26  29
ATOM     29  C   UNL     1      63.232  37.359  56.629  0.00  0.00    +0.000 C 
BRANCH  29  30
ATOM     30  O   UNL     1      63.997  37.581  57.819  0.00  0.00    +0.000 OA
ATOM     31  H   UNL     1      64.618  36.834  57.892  0.00  0.00    +0.000 HD
ENDBRANCH  29  30
ENDBRANCH  26  29
ENDBRANCH  25  26
ENDBRANCH  24  25
ENDBRANCH  23  24
ENDBRANCH   2  23
TORSDOF 9
ENDMDL
MODEL 3
REMARK VINA RESULT:      -6.0     18.050     19.736
REMARK  Name = 
REMARK  9 active torsions:
REMARK  status: ('A' for Active; 'I' for Inactive)
REMARK    1  A    between atoms: O_1  and  N_7
REMARK    2  A    between atoms: O_1  and  C_20
REMARK    3  A    between atoms: O_2  and  C_14
REMARK    4  A    between atoms: O_3  and  C_18
REMARK    5  A    between atoms: O_4  and  C_25
REMARK    6  A    between atoms: C_8  and  C_10
REMARK    7  A    between atoms: C_17  and  C_18
REMARK    8  A    between atoms: C_17  and  C_20
REMARK    9  A    between atoms: C_18  and  C_25
REMARK                            x       y       z     vdW  Elec       q    Type
REMARK                         _______ _______ _______ _____ _____    ______ ____
ROOT
ATOM      1  N   UNL     1      49.693  35.864  59.943  0.00  0.00    +0.000 NA
ATOM      2  N   UNL     1      53.123  35.735  60.837  0.00  0.00    +0.000 NA
ATOM      3  C   UNL     1      50.956  35.702  59.636  0.00  0.00    +0.000 C 
ATOM      4  C   UNL     1      51.829  35.739  60.878  0.00  0.00    +0.000 C 
ATOM      5  C   UNL     1      50.880  35.860  61.976  0.00  0.00    +0.000 A 
ATOM      6  C   UNL     1      49.639  35.948  61.345  0.00  0.00    +0.000 A 
ATOM      7  C   UNL     1      51.018  35.915  63.352  0.00  0.00    +0.000 A 
ATOM      8  C   UNL     1      48.486  36.094  62.095  0.00  0.00    +0.000 A 
ATOM      9  C   UNL     1      49.855  36.062  64.112  0.00  0.00    +0.000 A 
ATOM     10  C   UNL     1      48.598  36.152  63.489  0.00  0.00    +0.000 A 
ENDROOT
BRANCH   3  12
ATOM     11  N   UNL     1      51.640  35.906  56.080  0.00  0.00    +0.000 N 
ATOM     12  C   UNL     1      51.364  35.538  58.261  0.00  0.00    +0.000 A 
ATOM     13  C   UNL     1      52.148  34.473  57.703  0.00  0.00    +0.000 A 
ATOM     14  C   UNL     1      52.292  34.725  56.339  0.00  0.00    +0.000 A 
ATOM     15  C   UNL     1      51.095  36.420  57.229  0.00  0.00    +0.000 A 
ATOM     16  C   UNL     1      52.739  33.304  58.230  0.00  0.00    +0.000 A 
ATOM     17  C   UNL     1      52.995  33.875  55.477  0.00  0.00    +0.000 A 
ATOM     18  C   UNL     1      53.446  32.443  57.384  0.00  0.00    +0.000 A 
ATOM     19  C   UNL     1      53.571  32.726  56.027  0.00  0.00    +0.000 A 
ATOM     20  H   UNL     1      51.602  36.338  55.169  0.00  0.00    +0.000 HD
BRANCH  15  21
ATOM     21  O   UNL     1      50.470  37.593  57.240  0.00  0.00    +0.000 OA
ATOM     22  H   UNL     1      49.523  37.476  57.059  0.00  0.00    +0.000 HD
ENDBRANCH  15  21
ENDBRANCH   3  12
BRANCH   2  23
ATOM     23  O   UNL     1      53.693  35.822  62.109  0.00  0.00    +0.000 OA
BRANCH  23  24
ATOM     24  C   UNL     1      54.358  34.594  62.389  0.00  0.00    +0.000 C 
BRANCH  24  25
ATOM     25  C   UNL     1      54.770  34.564  63.854  0.00  0.00    +0.000 C 
BRANCH  25  26
ATOM     26  C   UNL     1      55.843  35.589  64.223  0.00  0.00    +0.000 C 
BRANCH  26  27
ATOM     27  O   UNL     1      56.424  36.076  63.004  0.00  0.00    +0.000 OA
ATOM     28  H   UNL     1      55.750  35.887  62.320  0.00  0.00    +0.000 HD
ENDBRANCH  26  27
BRANCH  26  29
ATOM     29  C   UNL     1      55.313  36.790  65.014  0.00  0.00    +0.000 C 
BRANCH  29  30
ATOM     30  O   UNL     1      56.310  37.169  65.968  0.00  0.00    +0.000 OA
ATOM     31  H   UNL     1      57.172  36.946  65.573  0.00  0.00    +0.000 HD
ENDBRANCH  29  30
ENDBRANCH  26  29
ENDBRANCH  25  26
ENDBRANCH  24  25
ENDBRANCH  23  24
ENDBRANCH   2  23
TORSDOF 9
ENDMDL
MODEL 4
REMARK VINA RESULT:      -5.8     11.014     14.014
REMARK  Name = 
REMARK  9 active torsions:
REMARK  status: ('A' for Active; 'I' for Inactive)
REMARK    1  A    between atoms: O_1  and  N_7
REMARK    2  A    between atoms: O_1  and  C_20
REMARK    3  A    between atoms: O_2  and  C_14
REMARK    4  A    between atoms: O_3  and  C_18
REMARK    5  A    between atoms: O_4  and  C_25
REMARK    6  A    between atoms: C_8  and  C_10
REMARK    7  A    between atoms: C_17  and  C_18
REMARK    8  A    between atoms: C_17  and  C_20
REMARK    9  A    between atoms: C_18  and  C_25
REMARK                            x       y       z     vdW  Elec       q    Type
REMARK                         _______ _______ _______ _____ _____    ______ ____
ROOT
ATOM      1  N   UNL     1      65.914  43.027  52.638  0.00  0.00    +0.000 NA
ATOM      2  N   UNL     1      63.292  41.853  54.720  0.00  0.00    +0.000 NA
ATOM      3  C   UNL     1      65.020  43.213  53.578  0.00  0.00    +0.000 C 
ATOM      4  C   UNL     1      64.309  41.917  53.919  0.00  0.00    +0.000 C 
ATOM      5  C   UNL     1      64.979  40.917  53.099  0.00  0.00    +0.000 A 
ATOM      6  C   UNL     1      65.903  41.651  52.356  0.00  0.00    +0.000 A 
ATOM      7  C   UNL     1      64.834  39.548  52.960  0.00  0.00    +0.000 A 
ATOM      8  C   UNL     1      66.719  41.014  51.437  0.00  0.00    +0.000 A 
ATOM      9  C   UNL     1      65.658  38.903  52.034  0.00  0.00    +0.000 A 
ATOM     10  C   UNL     1      66.593  39.631  51.277  0.00  0.00    +0.000 A 
ENDROOT
BRANCH   3  12
ATOM     11  N   UNL     1      63.816  46.437  54.723  0.00  0.00    +0.000 N 
ATOM     12  C   UNL     1      64.803  44.527  54.136  0.00  0.00    +0.000 A 
ATOM     13  C   UNL     1      65.740  45.331  54.868  0.00  0.00    +0.000 A 
ATOM     14  C   UNL     1      65.098  46.522  55.209  0.00  0.00    +0.000 A 
ATOM     15  C   UNL     1      63.614  45.235  54.095  0.00  0.00    +0.000 A 
ATOM     16  C   UNL     1      67.086  45.165  55.261  0.00  0.00    +0.000 A 
ATOM     17  C   UNL     1      65.727  47.550  55.921  0.00  0.00    +0.000 A 
ATOM     18  C   UNL     1      67.731  46.181  55.974  0.00  0.00    +0.000 A 
ATOM     19  C   UNL     1      67.059  47.356  56.298  0.00  0.00    +0.000 A 
ATOM     20  H   UNL     1      63.121  47.158  54.847  0.00  0.00    +0.000 HD
BRANCH  15  21
ATOM     21  O   UNL     1      62.428  44.896  53.601  0.00  0.00    +0.000 OA
ATOM     22  H   UNL     1      62.269  43.946  53.719  0.00  0.00    +0.000 HD
ENDBRANCH  15  21
ENDBRANCH   3  12
BRANCH   2  23
ATOM     23  O   UNL     1      62.788  40.556  54.832  0.00  0.00    +0.000 OA
BRANCH  23  24
ATOM     24  C   UNL     1      61.751  40.560  55.809  0.00  0.00    +0.000 C 
BRANCH  24  25
ATOM     25  C   UNL     1      61.106  39.183  55.868  0.00  0.00    +0.000 C 
BRANCH  25  26
ATOM     26  C   UNL     1      61.657  38.282  56.974  0.00  0.00    +0.000 C 
BRANCH  26  27
ATOM     27  O   UNL     1      60.617  37.369  57.357  0.00  0.00    +0.000 OA
ATOM     28  H   UNL     1      60.045  37.888  57.956  0.00  0.00    +0.000 HD
ENDBRANCH  26  27
BRANCH  26  29
ATOM     29  C   UNL     1      62.884  37.464  56.560  0.00  0.00    +0.000 C 
BRANCH  29  30
ATOM     30  O   UNL     1      63.820  37.485  57.643  0.00  0.00    +0.000 OA
ATOM     31  H   UNL     1      64.428  36.738  57.499  0.00  0.00    +0.000 HD
ENDBRANCH  29  30
ENDBRANCH  26  29
ENDBRANCH  25  26
ENDBRANCH  24  25
ENDBRANCH  23  24
ENDBRANCH   2  23
TORSDOF 9
ENDMDL
MODEL 5
REMARK VINA RESULT:      -5.8     16.316     18.736
REMARK  Name = 
REMARK  9 active torsions:
REMARK  status: ('A' for Active; 'I' for Inactive)
REMARK    1  A    between atoms: O_1  and  N_7
REMARK    2  A    between atoms: O_1  and  C_20
REMARK    3  A    between atoms: O_2  and  C_14
REMARK    4  A    between atoms: O_3  and  C_18
REMARK    5  A    between atoms: O_4  and  C_25
REMARK    6  A    between atoms: C_8  and  C_10
REMARK    7  A    between atoms: C_17  and  C_18
REMARK    8  A    between atoms: C_17  and  C_20
REMARK    9  A    between atoms: C_18  and  C_25
REMARK                            x       y       z     vdW  Elec       q    Type
REMARK                         _______ _______ _______ _____ _____    ______ ____
ROOT
ATOM      1  N   UNL     1      66.918  35.051  55.722  0.00  0.00    +0.000 NA
ATOM      2  N   UNL     1      64.319  37.014  54.317  0.00  0.00    +0.000 NA
ATOM      3  C   UNL     1      65.671  35.218  55.358  0.00  0.00    +0.000 C 
ATOM      4  C   UNL     1      65.479  36.551  54.658  0.00  0.00    +0.000 C 
ATOM      5  C   UNL     1      66.822  37.111  54.586  0.00  0.00    +0.000 A 
ATOM      6  C   UNL     1      67.615  36.176  55.252  0.00  0.00    +0.000 A 
ATOM      7  C   UNL     1      67.340  38.275  54.048  0.00  0.00    +0.000 A 
ATOM      8  C   UNL     1      68.974  36.395  55.396  0.00  0.00    +0.000 A 
ATOM      9  C   UNL     1      68.712  38.498  54.192  0.00  0.00    +0.000 A 
ATOM     10  C   UNL     1      69.523  37.566  54.862  0.00  0.00    +0.000 A 
ENDROOT
BRANCH   3  12
ATOM     11  N   UNL     1      62.853  33.211  56.448  0.00  0.00    +0.000 N 
ATOM     12  C   UNL     1      64.678  34.210  55.650  0.00  0.00    +0.000 A 
ATOM     13  C   UNL     1      64.665  32.844  55.211  0.00  0.00    +0.000 A 
ATOM     14  C   UNL     1      63.520  32.243  55.736  0.00  0.00    +0.000 A 
ATOM     15  C   UNL     1      63.524  34.405  56.389  0.00  0.00    +0.000 A 
ATOM     16  C   UNL     1      65.530  32.052  54.425  0.00  0.00    +0.000 A 
ATOM     17  C   UNL     1      63.195  30.900  55.516  0.00  0.00    +0.000 A 
ATOM     18  C   UNL     1      65.222  30.707  54.194  0.00  0.00    +0.000 A 
ATOM     19  C   UNL     1      64.070  30.141  54.733  0.00  0.00    +0.000 A 
ATOM     20  H   UNL     1      61.975  33.054  56.920  0.00  0.00    +0.000 HD
BRANCH  15  21
ATOM     21  O   UNL     1      63.037  35.508  56.948  0.00  0.00    +0.000 OA
ATOM     22  H   UNL     1      62.667  36.098  56.273  0.00  0.00    +0.000 HD
ENDBRANCH  15  21
ENDBRANCH   3  12
BRANCH   2  23
ATOM     23  O   UNL     1      64.406  38.280  53.732  0.00  0.00    +0.000 OA
BRANCH  23  24
ATOM     24  C   UNL     1      63.203  38.989  54.014  0.00  0.00    +0.000 C 
BRANCH  24  25
ATOM     25  C   UNL     1      62.099  37.997  54.352  0.00  0.00    +0.000 C 
BRANCH  25  26
ATOM     26  C   UNL     1      61.301  38.354  55.606  0.00  0.00    +0.000 C 
BRANCH  26  27
ATOM     27  O   UNL     1      60.948  37.129  56.266  0.00  0.00    +0.000 OA
ATOM     28  H   UNL     1      61.626  37.024  56.964  0.00  0.00    +0.000 HD
ENDBRANCH  26  27
BRANCH  26  29
ATOM     29  C   UNL     1      62.065  39.232  56.603  0.00  0.00    +0.000 C 
BRANCH  29  30
ATOM     30  O   UNL     1      62.538  38.394  57.663  0.00  0.00    +0.000 OA
ATOM     31  H   UNL     1      62.317  38.849  58.496  0.00  0.00    +0.000 HD
ENDBRANCH  29  30
ENDBRANCH  26  29
ENDBRANCH  25  26
ENDBRANCH  24  25
ENDBRANCH  23  24
ENDBRANCH   2  23
TORSDOF 9
ENDMDL
MODEL 6
REMARK VINA RESULT:      -5.8      2.506      5.583
REMARK  Name = 
REMARK  9 active torsions:
REMARK  status: ('A' for Active; 'I' for Inactive)
REMARK    1  A    between atoms: O_1  and  N_7
REMARK    2  A    between atoms: O_1  and  C_20
REMARK    3  A    between atoms: O_2  and  C_14
REMARK    4  A    between atoms: O_3  and  C_18
REMARK    5  A    between atoms: O_4  and  C_25
REMARK    6  A    between atoms: C_8  and  C_10
REMARK    7  A    between atoms: C_17  and  C_18
REMARK    8  A    between atoms: C_17  and  C_20
REMARK    9  A    between atoms: C_18  and  C_25
REMARK                            x       y       z     vdW  Elec       q    Type
REMARK                         _______ _______ _______ _____ _____    ______ ____
ROOT
ATOM      1  N   UNL     1      59.943  54.764  58.415  0.00  0.00    +0.000 NA
ATOM      2  N   UNL     1      61.391  54.700  61.652  0.00  0.00    +0.000 NA
ATOM      3  C   UNL     1      60.467  54.120  59.428  0.00  0.00    +0.000 C 
ATOM      4  C   UNL     1      60.753  55.060  60.584  0.00  0.00    +0.000 C 
ATOM      5  C   UNL     1      60.237  56.346  60.134  0.00  0.00    +0.000 A 
ATOM      6  C   UNL     1      59.791  56.096  58.836  0.00  0.00    +0.000 A 
ATOM      7  C   UNL     1      60.158  57.598  60.717  0.00  0.00    +0.000 A 
ATOM      8  C   UNL     1      59.245  57.118  58.080  0.00  0.00    +0.000 A 
ATOM      9  C   UNL     1      59.607  58.631  59.956  0.00  0.00    +0.000 A 
ATOM     10  C   UNL     1      59.154  58.394  58.646  0.00  0.00    +0.000 A 
ENDROOT
BRANCH   3  12
ATOM     11  N   UNL     1      60.393  50.500  59.217  0.00  0.00    +0.000 N 
ATOM     12  C   UNL     1      60.720  52.700  59.346  0.00  0.00    +0.000 A 
ATOM     13  C   UNL     1      61.994  52.042  59.286  0.00  0.00    +0.000 A 
ATOM     14  C   UNL     1      61.756  50.669  59.219  0.00  0.00    +0.000 A 
ATOM     15  C   UNL     1      59.754  51.712  59.270  0.00  0.00    +0.000 A 
ATOM     16  C   UNL     1      63.334  52.485  59.297  0.00  0.00    +0.000 A 
ATOM     17  C   UNL     1      62.783  49.720  59.160  0.00  0.00    +0.000 A 
ATOM     18  C   UNL     1      64.374  51.552  59.238  0.00  0.00    +0.000 A 
ATOM     19  C   UNL     1      64.100  50.188  59.171  0.00  0.00    +0.000 A 
ATOM     20  H   UNL     1      59.940  49.600  59.154  0.00  0.00    +0.000 HD
BRANCH  15  21
ATOM     21  O   UNL     1      58.430  51.806  59.214  0.00  0.00    +0.000 OA
ATOM     22  H   UNL     1      58.034  51.554  60.063  0.00  0.00    +0.000 HD
ENDBRANCH  15  21
ENDBRANCH   3  12
BRANCH   2  23
ATOM     23  O   UNL     1      61.568  55.759  62.545  0.00  0.00    +0.000 OA
BRANCH  23  24
ATOM     24  C   UNL     1      62.957  55.869  62.844  0.00  0.00    +0.000 C 
BRANCH  24  25
ATOM     25  C   UNL     1      63.559  57.011  62.038  0.00  0.00    +0.000 C 
BRANCH  25  26
ATOM     26  C   UNL     1      64.325  56.562  60.793  0.00  0.00    +0.000 C 
BRANCH  26  27
ATOM     27  O   UNL     1      64.295  55.127  60.752  0.00  0.00    +0.000 OA
ATOM     28  H   UNL     1      63.449  54.888  61.182  0.00  0.00    +0.000 HD
ENDBRANCH  26  27
BRANCH  26  29
ATOM     29  C   UNL     1      63.744  57.091  59.478  0.00  0.00    +0.000 C 
BRANCH  29  30
ATOM     30  O   UNL     1      63.536  55.978  58.603  0.00  0.00    +0.000 OA
ATOM     31  H   UNL     1      64.038  55.232  58.978  0.00  0.00    +0.000 HD
ENDBRANCH  29  30
ENDBRANCH  26  29
ENDBRANCH  25  26
ENDBRANCH  24  25
ENDBRANCH  23  24
ENDBRANCH   2  23
TORSDOF 9
ENDMDL
MODEL 7
REMARK VINA RESULT:      -5.7      1.893      5.889
REMARK  Name = 
REMARK  9 active torsions:
REMARK  status: ('A' for Active; 'I' for Inactive)
REMARK    1  A    between atoms: O_1  and  N_7
REMARK    2  A    between atoms: O_1  and  C_20
REMARK    3  A    between atoms: O_2  and  C_14
REMARK    4  A    between atoms: O_3  and  C_18
REMARK    5  A    between atoms: O_4  and  C_25
REMARK    6  A    between atoms: C_8  and  C_10
REMARK    7  A    between atoms: C_17  and  C_18
REMARK    8  A    between atoms: C_17  and  C_20
REMARK    9  A    between atoms: C_18  and  C_25
REMARK                            x       y       z     vdW  Elec       q    Type
REMARK                         _______ _______ _______ _____ _____    ______ ____
ROOT
ATOM      1  N   UNL     1      63.004  54.521  59.893  0.00  0.00    +0.000 NA
ATOM      2  N   UNL     1      59.755  53.180  59.415  0.00  0.00    +0.000 NA
ATOM      3  C   UNL     1      61.699  54.631  59.921  0.00  0.00    +0.000 C 
ATOM      4  C   UNL     1      61.032  53.309  59.584  0.00  0.00    +0.000 C 
ATOM      5  C   UNL     1      62.143  52.378  59.437  0.00  0.00    +0.000 A 
ATOM      6  C   UNL     1      63.277  53.171  59.615  0.00  0.00    +0.000 A 
ATOM      7  C   UNL     1      62.220  51.024  59.165  0.00  0.00    +0.000 A 
ATOM      8  C   UNL     1      64.538  52.611  59.522  0.00  0.00    +0.000 A 
ATOM      9  C   UNL     1      63.493  50.456  59.072  0.00  0.00    +0.000 A 
ATOM     10  C   UNL     1      64.644  51.243  59.248  0.00  0.00    +0.000 A 
ENDROOT
BRANCH   3  12
ATOM     11  N   UNL     1      59.691  57.417  61.085  0.00  0.00    +0.000 N 
ATOM     12  C   UNL     1      61.073  55.896  60.225  0.00  0.00    +0.000 A 
ATOM     13  C   UNL     1      61.463  57.197  59.759  0.00  0.00    +0.000 A 
ATOM     14  C   UNL     1      60.573  58.123  60.303  0.00  0.00    +0.000 A 
ATOM     15  C   UNL     1      59.991  56.080  61.067  0.00  0.00    +0.000 A 
ATOM     16  C   UNL     1      62.484  57.675  58.910  0.00  0.00    +0.000 A 
ATOM     17  C   UNL     1      60.651  59.497  60.046  0.00  0.00    +0.000 A 
ATOM     18  C   UNL     1      62.578  59.045  58.641  0.00  0.00    +0.000 A 
ATOM     19  C   UNL     1      61.673  59.942  59.202  0.00  0.00    +0.000 A 
ATOM     20  H   UNL     1      58.948  57.845  61.617  0.00  0.00    +0.000 HD
BRANCH  15  21
ATOM     21  O   UNL     1      59.315  55.203  61.802  0.00  0.00    +0.000 OA
ATOM     22  H   UNL     1      59.209  54.366  61.323  0.00  0.00    +0.000 HD
ENDBRANCH  15  21
ENDBRANCH   3  12
BRANCH   2  23
ATOM     23  O   UNL     1      59.397  51.876  59.066  0.00  0.00    +0.000 OA
BRANCH  23  24
ATOM     24  C   UNL     1      58.893  51.891  57.733  0.00  0.00    +0.000 C 
BRANCH  24  25
ATOM     25  C   UNL     1      57.381  51.721  57.761  0.00  0.00    +0.000 C 
BRANCH  25  26
ATOM     26  C   UNL     1      56.608  53.032  57.914  0.00  0.00    +0.000 C 
BRANCH  26  27
ATOM     27  O   UNL     1      55.515  53.009  56.984  0.00  0.00    +0.000 OA
ATOM     28  H   UNL     1      54.844  53.599  57.382  0.00  0.00    +0.000 HD
ENDBRANCH  26  27
BRANCH  26  29
ATOM     29  C   UNL     1      56.037  53.259  59.318  0.00  0.00    +0.000 C 
BRANCH  29  30
ATOM     30  O   UNL     1      57.103  53.700  60.166  0.00  0.00    +0.000 OA
ATOM     31  H   UNL     1      57.293  54.622  59.916  0.00  0.00    +0.000 HD
ENDBRANCH  29  30
ENDBRANCH  26  29
ENDBRANCH  25  26
ENDBRANCH  24  25
ENDBRANCH  23  24
ENDBRANCH   2  23
TORSDOF 9
ENDMDL
MODEL 8
REMARK VINA RESULT:      -5.7     19.964     21.947
REMARK  Name = 
REMARK  9 active torsions:
REMARK  status: ('A' for Active; 'I' for Inactive)
REMARK    1  A    between atoms: O_1  and  N_7
REMARK    2  A    between atoms: O_1  and  C_20
REMARK    3  A    between atoms: O_2  and  C_14
REMARK    4  A    between atoms: O_3  and  C_18
REMARK    5  A    between atoms: O_4  and  C_25
REMARK    6  A    between atoms: C_8  and  C_10
REMARK    7  A    between atoms: C_17  and  C_18
REMARK    8  A    between atoms: C_17  and  C_20
REMARK    9  A    between atoms: C_18  and  C_25
REMARK                            x       y       z     vdW  Elec       q    Type
REMARK                         _______ _______ _______ _____ _____    ______ ____
ROOT
ATOM      1  N   UNL     1      49.027  43.078  71.014  0.00  0.00    +0.000 NA
ATOM      2  N   UNL     1      47.573  40.890  73.398  0.00  0.00    +0.000 NA
ATOM      3  C   UNL     1      47.988  42.599  71.652  0.00  0.00    +0.000 C 
ATOM      4  C   UNL     1      48.412  41.604  72.717  0.00  0.00    +0.000 C 
ATOM      5  C   UNL     1      49.868  41.632  72.670  0.00  0.00    +0.000 A 
ATOM      6  C   UNL     1      50.157  42.512  71.627  0.00  0.00    +0.000 A 
ATOM      7  C   UNL     1      50.856  40.988  73.394  0.00  0.00    +0.000 A 
ATOM      8  C   UNL     1      51.471  42.770  71.280  0.00  0.00    +0.000 A 
ATOM      9  C   UNL     1      52.184  41.249  73.046  0.00  0.00    +0.000 A 
ATOM     10  C   UNL     1      52.490  42.132  71.996  0.00  0.00    +0.000 A 
ENDROOT
BRANCH   3  12
ATOM     11  N   UNL     1      44.736  44.152  71.244  0.00  0.00    +0.000 N 
ATOM     12  C   UNL     1      46.651  43.014  71.297  0.00  0.00    +0.000 A 
ATOM     13  C   UNL     1      45.785  42.425  70.315  0.00  0.00    +0.000 A 
ATOM     14  C   UNL     1      44.594  43.150  70.315  0.00  0.00    +0.000 A 
ATOM     15  C   UNL     1      45.975  44.099  71.828  0.00  0.00    +0.000 A 
ATOM     16  C   UNL     1      45.898  41.329  69.432  0.00  0.00    +0.000 A 
ATOM     17  C   UNL     1      43.513  42.840  69.481  0.00  0.00    +0.000 A 
ATOM     18  C   UNL     1      44.829  41.004  68.591  0.00  0.00    +0.000 A 
ATOM     19  C   UNL     1      43.654  41.750  68.616  0.00  0.00    +0.000 A 
ATOM     20  H   UNL     1      44.026  44.843  71.437  0.00  0.00    +0.000 HD
BRANCH  15  21
ATOM     21  O   UNL     1      46.369  45.008  72.713  0.00  0.00    +0.000 OA
ATOM     22  H   UNL     1      47.087  44.658  73.265  0.00  0.00    +0.000 HD
ENDBRANCH  15  21
ENDBRANCH   3  12
BRANCH   2  23
ATOM     23  O   UNL     1      48.214  40.018  74.280  0.00  0.00    +0.000 OA
BRANCH  23  24
ATOM     24  C   UNL     1      47.602  38.736  74.168  0.00  0.00    +0.000 C 
BRANCH  24  25
ATOM     25  C   UNL     1      46.167  38.815  74.667  0.00  0.00    +0.000 C 
BRANCH  25  26
ATOM     26  C   UNL     1      45.999  38.470  76.147  0.00  0.00    +0.000 C 
BRANCH  26  27
ATOM     27  O   UNL     1      47.042  39.137  76.875  0.00  0.00    +0.000 OA
ATOM     28  H   UNL     1      46.884  38.890  77.808  0.00  0.00    +0.000 HD
ENDBRANCH  26  27
BRANCH  26  29
ATOM     29  C   UNL     1      44.653  38.899  76.739  0.00  0.00    +0.000 C 
BRANCH  29  30
ATOM     30  O   UNL     1      44.852  40.116  77.465  0.00  0.00    +0.000 OA
ATOM     31  H   UNL     1      44.743  39.899  78.408  0.00  0.00    +0.000 HD
ENDBRANCH  29  30
ENDBRANCH  26  29
ENDBRANCH  25  26
ENDBRANCH  24  25
ENDBRANCH  23  24
ENDBRANCH   2  23
TORSDOF 9
ENDMDL
MODEL 9
REMARK VINA RESULT:      -5.5      2.117      6.173
REMARK  Name = 
REMARK  9 active torsions:
REMARK  status: ('A' for Active; 'I' for Inactive)
REMARK    1  A    between atoms: O_1  and  N_7
REMARK    2  A    between atoms: O_1  and  C_20
REMARK    3  A    between atoms: O_2  and  C_14
REMARK    4  A    between atoms: O_3  and  C_18
REMARK    5  A    between atoms: O_4  and  C_25
REMARK    6  A    between atoms: C_8  and  C_10
REMARK    7  A    between atoms: C_17  and  C_18
REMARK    8  A    between atoms: C_17  and  C_20
REMARK    9  A    between atoms: C_18  and  C_25
REMARK                            x       y       z     vdW  Elec       q    Type
REMARK                         _______ _______ _______ _____ _____    ______ ____
ROOT
ATOM      1  N   UNL     1      62.723  54.205  59.827  0.00  0.00    +0.000 NA
ATOM      2  N   UNL     1      59.341  53.211  59.432  0.00  0.00    +0.000 NA
ATOM      3  C   UNL     1      61.438  54.453  59.879  0.00  0.00    +0.000 C 
ATOM      4  C   UNL     1      60.628  53.206  59.575  0.00  0.00    +0.000 C 
ATOM      5  C   UNL     1      61.630  52.160  59.420  0.00  0.00    +0.000 A 
ATOM      6  C   UNL     1      62.845  52.831  59.564  0.00  0.00    +0.000 A 
ATOM      7  C   UNL     1      61.558  50.802  59.167  0.00  0.00    +0.000 A 
ATOM      8  C   UNL     1      64.038  52.138  59.456  0.00  0.00    +0.000 A 
ATOM      9  C   UNL     1      62.761  50.101  59.058  0.00  0.00    +0.000 A 
ATOM     10  C   UNL     1      63.993  50.764  59.200  0.00  0.00    +0.000 A 
ENDROOT
BRANCH   3  12
ATOM     11  N   UNL     1      59.779  57.454  61.061  0.00  0.00    +0.000 N 
ATOM     12  C   UNL     1      60.956  55.782  60.176  0.00  0.00    +0.000 A 
ATOM     13  C   UNL     1      61.442  57.025  59.648  0.00  0.00    +0.000 A 
ATOM     14  C   UNL     1      60.679  58.049  60.210  0.00  0.00    +0.000 A 
ATOM     15  C   UNL     1      59.947  56.093  61.070  0.00  0.00    +0.000 A 
ATOM     16  C   UNL     1      62.455  57.378  58.730  0.00  0.00    +0.000 A 
ATOM     17  C   UNL     1      60.875  59.401  59.905  0.00  0.00    +0.000 A 
ATOM     18  C   UNL     1      62.666  58.724  58.413  0.00  0.00    +0.000 A 
ATOM     19  C   UNL     1      61.885  59.720  58.993  0.00  0.00    +0.000 A 
ATOM     20  H   UNL     1      59.112  57.966  61.619  0.00  0.00    +0.000 HD
BRANCH  15  21
ATOM     21  O   UNL     1      59.233  55.307  61.868  0.00  0.00    +0.000 OA
ATOM     22  H   UNL     1      58.767  54.630  61.352  0.00  0.00    +0.000 HD
ENDBRANCH  15  21
ENDBRANCH   3  12
BRANCH   2  23
ATOM     23  O   UNL     1      58.839  51.948  59.109  0.00  0.00    +0.000 OA
BRANCH  23  24
ATOM     24  C   UNL     1      57.416  52.006  59.150  0.00  0.00    +0.000 C 
BRANCH  24  25
ATOM     25  C   UNL     1      56.843  51.134  58.042  0.00  0.00    +0.000 C 
BRANCH  25  26
ATOM     26  C   UNL     1      56.963  51.740  56.644  0.00  0.00    +0.000 C 
BRANCH  26  27
ATOM     27  O   UNL     1      57.696  52.970  56.758  0.00  0.00    +0.000 OA
ATOM     28  H   UNL     1      57.270  53.438  57.504  0.00  0.00    +0.000 HD
ENDBRANCH  26  27
BRANCH  26  29
ATOM     29  C   UNL     1      57.688  50.844  55.635  0.00  0.00    +0.000 C 
BRANCH  29  30
ATOM     30  O   UNL     1      58.391  49.831  56.363  0.00  0.00    +0.000 OA
ATOM     31  H   UNL     1      57.971  49.779  57.241  0.00  0.00    +0.000 HD
ENDBRANCH  29  30
ENDBRANCH  26  29
ENDBRANCH  25  26
ENDBRANCH  24  25
ENDBRANCH  23  24
ENDBRANCH   2  23
TORSDOF 9
ENDMDL
