MODEL 1
REMARK VINA RESULT:      -6.4      0.000      0.000
REMARK  Name = IPA3.pdbqt.pdb
REMARK  5 active torsions:
REMARK  status: ('A' for Active; 'I' for Inactive)
REMARK    1  A    between atoms: S_1  and  S_2
REMARK    2  A    between atoms: S_1  and  C_15
REMARK    3  A    between atoms: S_2  and  C_3
REMARK    4  A    between atoms: C_10  and  O_13
REMARK    5  A    between atoms: C_22  and  O_25
REMARK                            x       y       z     vdW  Elec       q    Type
REMARK                         _______ _______ _______ _____ _____    ______ ____
ROOT
ATOM      1  S   UNL     1      59.609  57.417  59.583  0.00  0.00    +0.000 S 
ENDROOT
BRANCH   1   2
ATOM      2  C   UNL     1      60.865  56.791  60.709  0.00  0.00    +0.000 A 
ATOM      3  C   UNL     1      62.216  57.202  60.601  0.00  0.00    +0.000 A 
ATOM      4  C   UNL     1      63.160  56.702  61.528  0.00  0.00    +0.000 A 
ATOM      5  C   UNL     1      62.679  58.099  59.622  0.00  0.00    +0.000 A 
ATOM      6  C   UNL     1      62.771  55.806  62.521  0.00  0.00    +0.000 A 
ATOM      7  C   UNL     1      64.494  57.104  61.467  0.00  0.00    +0.000 A 
ATOM      8  C   UNL     1      61.449  55.392  62.615  0.00  0.00    +0.000 A 
ATOM      9  C   UNL     1      60.506  55.882  61.717  0.00  0.00    +0.000 A 
ATOM     10  C   UNL     1      64.920  58.000  60.491  0.00  0.00    +0.000 A 
ATOM     11  C   UNL     1      64.012  58.499  59.566  0.00  0.00    +0.000 A 
BRANCH   9  12
ATOM     12  O   UNL     1      59.221  55.436  61.879  0.00  0.00    +0.000 OA
ATOM     13  H   UNL     1      58.733  56.113  62.382  0.00  0.00    +0.000 HD
ENDBRANCH   9  12
ENDBRANCH   1   2
BRANCH   1  14
ATOM     14  S   UNL     1      60.066  56.405  57.847  0.00  0.00    +0.000 S 
BRANCH  14  15
ATOM     15  C   UNL     1      60.073  54.698  58.412  0.00  0.00    +0.000 A 
ATOM     16  C   UNL     1      61.288  54.011  58.649  0.00  0.00    +0.000 A 
ATOM     17  C   UNL     1      61.241  52.678  59.119  0.00  0.00    +0.000 A 
ATOM     18  C   UNL     1      62.557  54.586  58.455  0.00  0.00    +0.000 A 
ATOM     19  C   UNL     1      60.019  52.045  59.329  0.00  0.00    +0.000 A 
ATOM     20  C   UNL     1      62.417  51.978  59.386  0.00  0.00    +0.000 A 
ATOM     21  C   UNL     1      58.827  52.716  59.080  0.00  0.00    +0.000 A 
ATOM     22  C   UNL     1      58.857  54.030  58.628  0.00  0.00    +0.000 A 
ATOM     23  C   UNL     1      63.658  52.579  59.193  0.00  0.00    +0.000 A 
ATOM     24  C   UNL     1      63.729  53.885  58.724  0.00  0.00    +0.000 A 
BRANCH  22  25
ATOM     25  O   UNL     1      57.643  54.628  58.414  0.00  0.00    +0.000 OA
ATOM     26  H   UNL     1      57.795  55.589  58.348  0.00  0.00    +0.000 HD
ENDBRANCH  22  25
ENDBRANCH  14  15
ENDBRANCH   1  14
TORSDOF 5
ENDMDL
MODEL 2
REMARK VINA RESULT:      -5.6      1.501      2.429
REMARK  Name = IPA3.pdbqt.pdb
REMARK  5 active torsions:
REMARK  status: ('A' for Active; 'I' for Inactive)
REMARK    1  A    between atoms: S_1  and  S_2
REMARK    2  A    between atoms: S_1  and  C_15
REMARK    3  A    between atoms: S_2  and  C_3
REMARK    4  A    between atoms: C_10  and  O_13
REMARK    5  A    between atoms: C_22  and  O_25
REMARK                            x       y       z     vdW  Elec       q    Type
REMARK                         _______ _______ _______ _____ _____    ______ ____
ROOT
ATOM      1  S   UNL     1      59.627  57.350  59.557  0.00  0.00    +0.000 S 
ENDROOT
BRANCH   1   2
ATOM      2  C   UNL     1      60.880  56.770  60.711  0.00  0.00    +0.000 A 
ATOM      3  C   UNL     1      62.228  57.187  60.597  0.00  0.00    +0.000 A 
ATOM      4  C   UNL     1      63.170  56.725  61.546  0.00  0.00    +0.000 A 
ATOM      5  C   UNL     1      62.692  58.054  59.592  0.00  0.00    +0.000 A 
ATOM      6  C   UNL     1      62.781  55.861  62.566  0.00  0.00    +0.000 A 
ATOM      7  C   UNL     1      64.502  57.133  61.480  0.00  0.00    +0.000 A 
ATOM      8  C   UNL     1      61.460  55.440  62.666  0.00  0.00    +0.000 A 
ATOM      9  C   UNL     1      60.520  55.894  61.747  0.00  0.00    +0.000 A 
ATOM     10  C   UNL     1      64.927  57.999  60.477  0.00  0.00    +0.000 A 
ATOM     11  C   UNL     1      64.022  58.460  59.530  0.00  0.00    +0.000 A 
BRANCH   9  12
ATOM     12  O   UNL     1      59.237  55.445  61.915  0.00  0.00    +0.000 OA
ATOM     13  H   UNL     1      58.652  56.223  61.951  0.00  0.00    +0.000 HD
ENDBRANCH   9  12
ENDBRANCH   1   2
BRANCH   1  14
ATOM     14  S   UNL     1      59.469  55.745  58.274  0.00  0.00    +0.000 S 
BRANCH  14  15
ATOM     15  C   UNL     1      61.141  55.635  57.621  0.00  0.00    +0.000 A 
ATOM     16  C   UNL     1      62.062  54.686  58.126  0.00  0.00    +0.000 A 
ATOM     17  C   UNL     1      63.357  54.620  57.560  0.00  0.00    +0.000 A 
ATOM     18  C   UNL     1      61.760  53.783  59.162  0.00  0.00    +0.000 A 
ATOM     19  C   UNL     1      63.726  55.487  56.535  0.00  0.00    +0.000 A 
ATOM     20  C   UNL     1      64.284  53.683  58.016  0.00  0.00    +0.000 A 
ATOM     21  C   UNL     1      62.826  56.429  56.051  0.00  0.00    +0.000 A 
ATOM     22  C   UNL     1      61.546  56.499  56.590  0.00  0.00    +0.000 A 
ATOM     23  C   UNL     1      63.950  52.796  59.037  0.00  0.00    +0.000 A 
ATOM     24  C   UNL     1      62.687  52.848  59.613  0.00  0.00    +0.000 A 
BRANCH  22  25
ATOM     25  O   UNL     1      60.711  57.445  56.056  0.00  0.00    +0.000 OA
ATOM     26  H   UNL     1      60.222  57.028  55.324  0.00  0.00    +0.000 HD
ENDBRANCH  22  25
ENDBRANCH  14  15
ENDBRANCH   1  14
TORSDOF 5
ENDMDL
MODEL 3
REMARK VINA RESULT:      -5.5      1.315      2.930
REMARK  Name = IPA3.pdbqt.pdb
REMARK  5 active torsions:
REMARK  status: ('A' for Active; 'I' for Inactive)
REMARK    1  A    between atoms: S_1  and  S_2
REMARK    2  A    between atoms: S_1  and  C_15
REMARK    3  A    between atoms: S_2  and  C_3
REMARK    4  A    between atoms: C_10  and  O_13
REMARK    5  A    between atoms: C_22  and  O_25
REMARK                            x       y       z     vdW  Elec       q    Type
REMARK                         _______ _______ _______ _____ _____    ______ ____
ROOT
ATOM      1  S   UNL     1      59.617  57.125  59.398  0.00  0.00    +0.000 S 
ENDROOT
BRANCH   1   2
ATOM      2  C   UNL     1      60.860  56.633  60.602  0.00  0.00    +0.000 A 
ATOM      3  C   UNL     1      62.193  57.104  60.512  0.00  0.00    +0.000 A 
ATOM      4  C   UNL     1      63.126  56.710  61.500  0.00  0.00    +0.000 A 
ATOM      5  C   UNL     1      62.647  57.961  59.495  0.00  0.00    +0.000 A 
ATOM      6  C   UNL     1      62.745  55.859  62.534  0.00  0.00    +0.000 A 
ATOM      7  C   UNL     1      64.441  57.173  61.457  0.00  0.00    +0.000 A 
ATOM      8  C   UNL     1      61.442  55.385  62.611  0.00  0.00    +0.000 A 
ATOM      9  C   UNL     1      60.509  55.772  61.653  0.00  0.00    +0.000 A 
ATOM     10  C   UNL     1      64.858  58.028  60.441  0.00  0.00    +0.000 A 
ATOM     11  C   UNL     1      63.961  58.423  59.457  0.00  0.00    +0.000 A 
BRANCH   9  12
ATOM     12  O   UNL     1      59.242  55.273  61.800  0.00  0.00    +0.000 OA
ATOM     13  H   UNL     1      58.958  54.925  60.935  0.00  0.00    +0.000 HD
ENDBRANCH   9  12
ENDBRANCH   1   2
BRANCH   1  14
ATOM     14  S   UNL     1      60.169  56.015  57.753  0.00  0.00    +0.000 S 
BRANCH  14  15
ATOM     15  C   UNL     1      60.040  54.337  58.386  0.00  0.00    +0.000 A 
ATOM     16  C   UNL     1      58.782  53.702  58.525  0.00  0.00    +0.000 A 
ATOM     17  C   UNL     1      58.735  52.371  59.001  0.00  0.00    +0.000 A 
ATOM     18  C   UNL     1      57.560  54.320  58.203  0.00  0.00    +0.000 A 
ATOM     19  C   UNL     1      59.906  51.701  59.344  0.00  0.00    +0.000 A 
ATOM     20  C   UNL     1      57.516  51.707  59.130  0.00  0.00    +0.000 A 
ATOM     21  C   UNL     1      61.139  52.331  59.221  0.00  0.00    +0.000 A 
ATOM     22  C   UNL     1      61.203  53.635  58.745  0.00  0.00    +0.000 A 
ATOM     23  C   UNL     1      56.324  52.342  58.793  0.00  0.00    +0.000 A 
ATOM     24  C   UNL     1      56.345  53.652  58.331  0.00  0.00    +0.000 A 
BRANCH  22  25
ATOM     25  O   UNL     1      62.453  54.186  58.642  0.00  0.00    +0.000 OA
ATOM     26  H   UNL     1      62.396  55.108  58.954  0.00  0.00    +0.000 HD
ENDBRANCH  22  25
ENDBRANCH  14  15
ENDBRANCH   1  14
TORSDOF 5
ENDMDL
MODEL 4
REMARK VINA RESULT:      -5.5      1.426      2.294
REMARK  Name = IPA3.pdbqt.pdb
REMARK  5 active torsions:
REMARK  status: ('A' for Active; 'I' for Inactive)
REMARK    1  A    between atoms: S_1  and  S_2
REMARK    2  A    between atoms: S_1  and  C_15
REMARK    3  A    between atoms: S_2  and  C_3
REMARK    4  A    between atoms: C_10  and  O_13
REMARK    5  A    between atoms: C_22  and  O_25
REMARK                            x       y       z     vdW  Elec       q    Type
REMARK                         _______ _______ _______ _____ _____    ______ ____
ROOT
ATOM      1  S   UNL     1      59.670  57.169  59.394  0.00  0.00    +0.000 S 
ENDROOT
BRANCH   1   2
ATOM      2  C   UNL     1      60.880  56.660  60.624  0.00  0.00    +0.000 A 
ATOM      3  C   UNL     1      62.227  57.093  60.549  0.00  0.00    +0.000 A 
ATOM      4  C   UNL     1      63.133  56.688  61.557  0.00  0.00    +0.000 A 
ATOM      5  C   UNL     1      62.721  57.922  59.526  0.00  0.00    +0.000 A 
ATOM      6  C   UNL     1      62.712  55.864  62.597  0.00  0.00    +0.000 A 
ATOM      7  C   UNL     1      64.461  57.114  61.529  0.00  0.00    +0.000 A 
ATOM      8  C   UNL     1      61.395  55.427  62.660  0.00  0.00    +0.000 A 
ATOM      9  C   UNL     1      60.489  55.825  61.683  0.00  0.00    +0.000 A 
ATOM     10  C   UNL     1      64.917  57.942  60.507  0.00  0.00    +0.000 A 
ATOM     11  C   UNL     1      64.047  58.346  59.503  0.00  0.00    +0.000 A 
BRANCH   9  12
ATOM     12  O   UNL     1      59.206  55.364  61.816  0.00  0.00    +0.000 OA
ATOM     13  H   UNL     1      59.058  54.692  61.126  0.00  0.00    +0.000 HD
ENDBRANCH   9  12
ENDBRANCH   1   2
BRANCH   1  14
ATOM     14  S   UNL     1      59.393  55.422  58.337  0.00  0.00    +0.000 S 
BRANCH  14  15
ATOM     15  C   UNL     1      61.028  54.678  58.427  0.00  0.00    +0.000 A 
ATOM     16  C   UNL     1      62.098  55.169  57.641  0.00  0.00    +0.000 A 
ATOM     17  C   UNL     1      63.373  54.568  57.769  0.00  0.00    +0.000 A 
ATOM     18  C   UNL     1      61.974  56.240  56.739  0.00  0.00    +0.000 A 
ATOM     19  C   UNL     1      63.567  53.500  58.640  0.00  0.00    +0.000 A 
ATOM     20  C   UNL     1      64.457  55.039  57.028  0.00  0.00    +0.000 A 
ATOM     21  C   UNL     1      62.511  53.009  59.399  0.00  0.00    +0.000 A 
ATOM     22  C   UNL     1      61.255  53.596  59.292  0.00  0.00    +0.000 A 
ATOM     23  C   UNL     1      64.302  56.108  56.149  0.00  0.00    +0.000 A 
ATOM     24  C   UNL     1      63.058  56.709  56.002  0.00  0.00    +0.000 A 
BRANCH  22  25
ATOM     25  O   UNL     1      60.266  53.065  60.078  0.00  0.00    +0.000 OA
ATOM     26  H   UNL     1      60.140  52.136  59.808  0.00  0.00    +0.000 HD
ENDBRANCH  22  25
ENDBRANCH  14  15
ENDBRANCH   1  14
TORSDOF 5
ENDMDL
MODEL 5
REMARK VINA RESULT:      -5.4      1.991      4.162
REMARK  Name = IPA3.pdbqt.pdb
REMARK  5 active torsions:
REMARK  status: ('A' for Active; 'I' for Inactive)
REMARK    1  A    between atoms: S_1  and  S_2
REMARK    2  A    between atoms: S_1  and  C_15
REMARK    3  A    between atoms: S_2  and  C_3
REMARK    4  A    between atoms: C_10  and  O_13
REMARK    5  A    between atoms: C_22  and  O_25
REMARK                            x       y       z     vdW  Elec       q    Type
REMARK                         _______ _______ _______ _____ _____    ______ ____
ROOT
ATOM      1  S   UNL     1      59.822  53.469  59.288  0.00  0.00    +0.000 S 
ENDROOT
BRANCH   1   2
ATOM      2  C   UNL     1      60.906  54.341  60.427  0.00  0.00    +0.000 A 
ATOM      3  C   UNL     1      62.314  54.289  60.283  0.00  0.00    +0.000 A 
ATOM      4  C   UNL     1      63.123  55.016  61.188  0.00  0.00    +0.000 A 
ATOM      5  C   UNL     1      62.965  53.559  59.273  0.00  0.00    +0.000 A 
ATOM      6  C   UNL     1      62.544  55.757  62.216  0.00  0.00    +0.000 A 
ATOM      7  C   UNL     1      64.512  55.006  61.063  0.00  0.00    +0.000 A 
ATOM      8  C   UNL     1      61.164  55.794  62.365  0.00  0.00    +0.000 A 
ATOM      9  C   UNL     1      60.354  55.093  61.477  0.00  0.00    +0.000 A 
ATOM     10  C   UNL     1      65.126  54.280  60.046  0.00  0.00    +0.000 A 
ATOM     11  C   UNL     1      64.353  53.554  59.150  0.00  0.00    +0.000 A 
BRANCH   9  12
ATOM     12  O   UNL     1      59.003  55.185  61.680  0.00  0.00    +0.000 OA
ATOM     13  H   UNL     1      58.571  55.201  60.807  0.00  0.00    +0.000 HD
ENDBRANCH   9  12
ENDBRANCH   1   2
BRANCH   1  14
ATOM     14  S   UNL     1      59.041  55.023  58.183  0.00  0.00    +0.000 S 
BRANCH  14  15
ATOM     15  C   UNL     1      60.512  55.997  57.835  0.00  0.00    +0.000 A 
ATOM     16  C   UNL     1      60.744  57.231  58.489  0.00  0.00    +0.000 A 
ATOM     17  C   UNL     1      61.930  57.947  58.201  0.00  0.00    +0.000 A 
ATOM     18  C   UNL     1      59.860  57.792  59.429  0.00  0.00    +0.000 A 
ATOM     19  C   UNL     1      62.846  57.454  57.277  0.00  0.00    +0.000 A 
ATOM     20  C   UNL     1      62.202  59.155  58.842  0.00  0.00    +0.000 A 
ATOM     21  C   UNL     1      62.610  56.249  56.624  0.00  0.00    +0.000 A 
ATOM     22  C   UNL     1      61.453  55.530  56.904  0.00  0.00    +0.000 A 
ATOM     23  C   UNL     1      61.312  59.678  59.776  0.00  0.00    +0.000 A 
ATOM     24  C   UNL     1      60.137  58.997  60.069  0.00  0.00    +0.000 A 
BRANCH  22  25
ATOM     25  O   UNL     1      61.294  54.348  56.230  0.00  0.00    +0.000 OA
ATOM     26  H   UNL     1      62.020  53.754  56.498  0.00  0.00    +0.000 HD
ENDBRANCH  22  25
ENDBRANCH  14  15
ENDBRANCH   1  14
TORSDOF 5
ENDMDL
MODEL 6
REMARK VINA RESULT:      -5.2     28.008     30.218
REMARK  Name = IPA3.pdbqt.pdb
REMARK  5 active torsions:
REMARK  status: ('A' for Active; 'I' for Inactive)
REMARK    1  A    between atoms: S_1  and  S_2
REMARK    2  A    between atoms: S_1  and  C_15
REMARK    3  A    between atoms: S_2  and  C_3
REMARK    4  A    between atoms: C_10  and  O_13
REMARK    5  A    between atoms: C_22  and  O_25
REMARK                            x       y       z     vdW  Elec       q    Type
REMARK                         _______ _______ _______ _____ _____    ______ ____
ROOT
ATOM      1  S   UNL     1      57.472  73.911  84.920  0.00  0.00    +0.000 S 
ENDROOT
BRANCH   1   2
ATOM      2  C   UNL     1      58.229  72.724  86.040  0.00  0.00    +0.000 A 
ATOM      3  C   UNL     1      58.423  71.375  85.656  0.00  0.00    +0.000 A 
ATOM      4  C   UNL     1      59.048  70.488  86.564  0.00  0.00    +0.000 A 
ATOM      5  C   UNL     1      58.039  70.861  84.406  0.00  0.00    +0.000 A 
ATOM      6  C   UNL     1      59.451  70.930  87.821  0.00  0.00    +0.000 A 
ATOM      7  C   UNL     1      59.277  69.159  86.211  0.00  0.00    +0.000 A 
ATOM      8  C   UNL     1      59.244  72.250  88.202  0.00  0.00    +0.000 A 
ATOM      9  C   UNL     1      58.641  73.137  87.318  0.00  0.00    +0.000 A 
ATOM     10  C   UNL     1      58.892  68.682  84.961  0.00  0.00    +0.000 A 
ATOM     11  C   UNL     1      58.271  69.532  84.057  0.00  0.00    +0.000 A 
BRANCH   9  12
ATOM     12  O   UNL     1      58.480  74.424  87.759  0.00  0.00    +0.000 OA
ATOM     13  H   UNL     1      57.582  74.712  87.514  0.00  0.00    +0.000 HD
ENDBRANCH   9  12
ENDBRANCH   1   2
BRANCH   1  14
ATOM     14  S   UNL     1      59.127  74.858  84.138  0.00  0.00    +0.000 S 
BRANCH  14  15
ATOM     15  C   UNL     1      58.603  75.167  82.445  0.00  0.00    +0.000 A 
ATOM     16  C   UNL     1      58.544  74.119  81.495  0.00  0.00    +0.000 A 
ATOM     17  C   UNL     1      58.099  74.407  80.184  0.00  0.00    +0.000 A 
ATOM     18  C   UNL     1      58.893  72.787  81.784  0.00  0.00    +0.000 A 
ATOM     19  C   UNL     1      57.742  75.705  79.828  0.00  0.00    +0.000 A 
ATOM     20  C   UNL     1      58.005  73.396  79.228  0.00  0.00    +0.000 A 
ATOM     21  C   UNL     1      57.816  76.736  80.758  0.00  0.00    +0.000 A 
ATOM     22  C   UNL     1      58.241  76.466  82.053  0.00  0.00    +0.000 A 
ATOM     23  C   UNL     1      58.350  72.085  79.548  0.00  0.00    +0.000 A 
ATOM     24  C   UNL     1      58.797  71.780  80.827  0.00  0.00    +0.000 A 
BRANCH  22  25
ATOM     25  O   UNL     1      58.279  77.530  82.916  0.00  0.00    +0.000 OA
ATOM     26  H   UNL     1      59.216  77.756  83.065  0.00  0.00    +0.000 HD
ENDBRANCH  22  25
ENDBRANCH  14  15
ENDBRANCH   1  14
TORSDOF 5
ENDMDL
MODEL 7
REMARK VINA RESULT:      -5.1     22.837     25.219
REMARK  Name = IPA3.pdbqt.pdb
REMARK  5 active torsions:
REMARK  status: ('A' for Active; 'I' for Inactive)
REMARK    1  A    between atoms: S_1  and  S_2
REMARK    2  A    between atoms: S_1  and  C_15
REMARK    3  A    between atoms: S_2  and  C_3
REMARK    4  A    between atoms: C_10  and  O_13
REMARK    5  A    between atoms: C_22  and  O_25
REMARK                            x       y       z     vdW  Elec       q    Type
REMARK                         _______ _______ _______ _____ _____    ______ ____
ROOT
ATOM      1  S   UNL     1      52.350  59.757  85.150  0.00  0.00    +0.000 S 
ENDROOT
BRANCH   1   2
ATOM      2  C   UNL     1      53.904  60.642  85.341  0.00  0.00    +0.000 A 
ATOM      3  C   UNL     1      54.368  61.532  84.342  0.00  0.00    +0.000 A 
ATOM      4  C   UNL     1      55.583  62.225  84.553  0.00  0.00    +0.000 A 
ATOM      5  C   UNL     1      53.677  61.782  83.143  0.00  0.00    +0.000 A 
ATOM      6  C   UNL     1      56.320  62.023  85.716  0.00  0.00    +0.000 A 
ATOM      7  C   UNL     1      56.058  63.128  83.601  0.00  0.00    +0.000 A 
ATOM      8  C   UNL     1      55.872  61.137  86.688  0.00  0.00    +0.000 A 
ATOM      9  C   UNL     1      54.674  60.455  86.501  0.00  0.00    +0.000 A 
ATOM     10  C   UNL     1      55.346  63.359  82.428  0.00  0.00    +0.000 A 
ATOM     11  C   UNL     1      54.155  62.685  82.197  0.00  0.00    +0.000 A 
BRANCH   9  12
ATOM     12  O   UNL     1      54.292  59.606  87.506  0.00  0.00    +0.000 OA
ATOM     13  H   UNL     1      54.989  59.620  88.187  0.00  0.00    +0.000 HD
ENDBRANCH   9  12
ENDBRANCH   1   2
BRANCH   1  14
ATOM     14  S   UNL     1      53.006  57.867  84.655  0.00  0.00    +0.000 S 
BRANCH  14  15
ATOM     15  C   UNL     1      54.161  58.219  83.324  0.00  0.00    +0.000 A 
ATOM     16  C   UNL     1      53.703  58.558  82.028  0.00  0.00    +0.000 A 
ATOM     17  C   UNL     1      54.652  58.853  81.021  0.00  0.00    +0.000 A 
ATOM     18  C   UNL     1      52.342  58.631  81.679  0.00  0.00    +0.000 A 
ATOM     19  C   UNL     1      56.015  58.796  81.296  0.00  0.00    +0.000 A 
ATOM     20  C   UNL     1      54.237  59.213  79.739  0.00  0.00    +0.000 A 
ATOM     21  C   UNL     1      56.464  58.448  82.564  0.00  0.00    +0.000 A 
ATOM     22  C   UNL     1      55.543  58.164  83.567  0.00  0.00    +0.000 A 
ATOM     23  C   UNL     1      52.882  59.286  79.428  0.00  0.00    +0.000 A 
ATOM     24  C   UNL     1      51.932  58.992  80.398  0.00  0.00    +0.000 A 
BRANCH  22  25
ATOM     25  O   UNL     1      56.060  57.839  84.794  0.00  0.00    +0.000 OA
ATOM     26  H   UNL     1      56.448  58.648  85.175  0.00  0.00    +0.000 HD
ENDBRANCH  22  25
ENDBRANCH  14  15
ENDBRANCH   1  14
TORSDOF 5
ENDMDL
MODEL 8
REMARK VINA RESULT:      -5.0      3.387      5.521
REMARK  Name = IPA3.pdbqt.pdb
REMARK  5 active torsions:
REMARK  status: ('A' for Active; 'I' for Inactive)
REMARK    1  A    between atoms: S_1  and  S_2
REMARK    2  A    between atoms: S_1  and  C_15
REMARK    3  A    between atoms: S_2  and  C_3
REMARK    4  A    between atoms: C_10  and  O_13
REMARK    5  A    between atoms: C_22  and  O_25
REMARK                            x       y       z     vdW  Elec       q    Type
REMARK                         _______ _______ _______ _____ _____    ______ ____
ROOT
ATOM      1  S   UNL     1      62.056  55.176  57.824  0.00  0.00    +0.000 S 
ENDROOT
BRANCH   1   2
ATOM      2  C   UNL     1      63.537  54.694  56.922  0.00  0.00    +0.000 A 
ATOM      3  C   UNL     1      63.569  53.509  56.148  0.00  0.00    +0.000 A 
ATOM      4  C   UNL     1      64.748  53.189  55.435  0.00  0.00    +0.000 A 
ATOM      5  C   UNL     1      62.480  52.627  56.033  0.00  0.00    +0.000 A 
ATOM      6  C   UNL     1      65.866  54.016  55.508  0.00  0.00    +0.000 A 
ATOM      7  C   UNL     1      64.808  52.042  54.643  0.00  0.00    +0.000 A 
ATOM      8  C   UNL     1      65.837  55.170  56.281  0.00  0.00    +0.000 A 
ATOM      9  C   UNL     1      64.682  55.505  56.980  0.00  0.00    +0.000 A 
ATOM     10  C   UNL     1      63.710  51.193  54.543  0.00  0.00    +0.000 A 
ATOM     11  C   UNL     1      62.544  51.484  55.239  0.00  0.00    +0.000 A 
BRANCH   9  12
ATOM     12  O   UNL     1      64.726  56.661  57.712  0.00  0.00    +0.000 OA
ATOM     13  H   UNL     1      63.810  56.970  57.835  0.00  0.00    +0.000 HD
ENDBRANCH   9  12
ENDBRANCH   1   2
BRANCH   1  14
ATOM     14  S   UNL     1      62.495  54.519  59.727  0.00  0.00    +0.000 S 
BRANCH  14  15
ATOM     15  C   UNL     1      62.459  52.734  59.512  0.00  0.00    +0.000 A 
ATOM     16  C   UNL     1      63.655  51.989  59.373  0.00  0.00    +0.000 A 
ATOM     17  C   UNL     1      63.575  50.584  59.235  0.00  0.00    +0.000 A 
ATOM     18  C   UNL     1      64.937  52.569  59.376  0.00  0.00    +0.000 A 
ATOM     19  C   UNL     1      62.339  49.944  59.218  0.00  0.00    +0.000 A 
ATOM     20  C   UNL     1      64.733  49.815  59.118  0.00  0.00    +0.000 A 
ATOM     21  C   UNL     1      61.164  50.678  59.339  0.00  0.00    +0.000 A 
ATOM     22  C   UNL     1      61.227  52.059  59.486  0.00  0.00    +0.000 A 
ATOM     23  C   UNL     1      65.988  50.419  59.135  0.00  0.00    +0.000 A 
ATOM     24  C   UNL     1      66.090  51.798  59.262  0.00  0.00    +0.000 A 
BRANCH  22  25
ATOM     25  O   UNL     1      60.030  52.714  59.610  0.00  0.00    +0.000 OA
ATOM     26  H   UNL     1      59.766  52.673  60.548  0.00  0.00    +0.000 HD
ENDBRANCH  22  25
ENDBRANCH  14  15
ENDBRANCH   1  14
TORSDOF 5
ENDMDL
MODEL 9
REMARK VINA RESULT:      -4.9     20.450     22.452
REMARK  Name = IPA3.pdbqt.pdb
REMARK  5 active torsions:
REMARK  status: ('A' for Active; 'I' for Inactive)
REMARK    1  A    between atoms: S_1  and  S_2
REMARK    2  A    between atoms: S_1  and  C_15
REMARK    3  A    between atoms: S_2  and  C_3
REMARK    4  A    between atoms: C_10  and  O_13
REMARK    5  A    between atoms: C_22  and  O_25
REMARK                            x       y       z     vdW  Elec       q    Type
REMARK                         _______ _______ _______ _____ _____    ______ ____
ROOT
ATOM      1  S   UNL     1      73.465  46.408  78.486  0.00  0.00    +0.000 S 
ENDROOT
BRANCH   1   2
ATOM      2  C   UNL     1      72.319  47.050  79.716  0.00  0.00    +0.000 A 
ATOM      3  C   UNL     1      71.952  48.417  79.731  0.00  0.00    +0.000 A 
ATOM      4  C   UNL     1      71.025  48.867  80.701  0.00  0.00    +0.000 A 
ATOM      5  C   UNL     1      72.448  49.365  78.819  0.00  0.00    +0.000 A 
ATOM      6  C   UNL     1      70.497  47.982  81.638  0.00  0.00    +0.000 A 
ATOM      7  C   UNL     1      70.622  50.201  80.731  0.00  0.00    +0.000 A 
ATOM      8  C   UNL     1      70.871  46.645  81.632  0.00  0.00    +0.000 A 
ATOM      9  C   UNL     1      71.773  46.184  80.678  0.00  0.00    +0.000 A 
ATOM     10  C   UNL     1      71.126  51.114  79.809  0.00  0.00    +0.000 A 
ATOM     11  C   UNL     1      72.041  50.697  78.852  0.00  0.00    +0.000 A 
BRANCH   9  12
ATOM     12  O   UNL     1      72.087  44.852  80.728  0.00  0.00    +0.000 OA
ATOM     13  H   UNL     1      73.048  44.779  80.872  0.00  0.00    +0.000 HD
ENDBRANCH   9  12
ENDBRANCH   1   2
BRANCH   1  14
ATOM     14  S   UNL     1      72.174  45.599  77.098  0.00  0.00    +0.000 S 
BRANCH  14  15
ATOM     15  C   UNL     1      71.140  47.013  76.695  0.00  0.00    +0.000 A 
ATOM     16  C   UNL     1      69.867  47.182  77.290  0.00  0.00    +0.000 A 
ATOM     17  C   UNL     1      69.102  48.326  76.961  0.00  0.00    +0.000 A 
ATOM     18  C   UNL     1      69.312  46.274  78.211  0.00  0.00    +0.000 A 
ATOM     19  C   UNL     1      69.587  49.262  76.053  0.00  0.00    +0.000 A 
ATOM     20  C   UNL     1      67.854  48.537  77.545  0.00  0.00    +0.000 A 
ATOM     21  C   UNL     1      70.831  49.088  75.458  0.00  0.00    +0.000 A 
ATOM     22  C   UNL     1      71.598  47.974  75.779  0.00  0.00    +0.000 A 
ATOM     23  C   UNL     1      67.337  47.624  78.461  0.00  0.00    +0.000 A 
ATOM     24  C   UNL     1      68.066  46.489  78.794  0.00  0.00    +0.000 A 
BRANCH  22  25
ATOM     25  O   UNL     1      72.817  47.874  75.160  0.00  0.00    +0.000 OA
ATOM     26  H   UNL     1      73.084  48.772  74.889  0.00  0.00    +0.000 HD
ENDBRANCH  22  25
ENDBRANCH  14  15
ENDBRANCH   1  14
TORSDOF 5
ENDMDL
