MODEL 1
REMARK VINA RESULT:      -7.5      0.000      0.000
REMARK  Name = 
REMARK  8 active torsions:
REMARK  status: ('A' for Active; 'I' for Inactive)
REMARK    1  A    between atoms: O_1  and  C_21
REMARK    2  A    between atoms: O_1  and  C_38
REMARK    3  A    between atoms: O_4  and  C_26
REMARK    4  A    between atoms: N_7  and  C_11
REMARK    5  A    between atoms: C_26  and  C_33
REMARK    6  A    between atoms: C_29  and  C_37
REMARK    7  A    between atoms: C_33  and  C_42
REMARK    8  A    between atoms: C_37  and  C_43
REMARK                            x       y       z     vdW  Elec       q    Type
REMARK                         _______ _______ _______ _____ _____    ______ ____
ROOT
ATOM      1  O   UNL     1      61.073  37.967  72.167  0.00  0.00    +0.000 OA
ATOM      2  O   UNL     1      61.244  36.555  68.202  0.00  0.00    +0.000 OA
ATOM      3  O   UNL     1      59.864  39.353  73.458  0.00  0.00    +0.000 OA
ATOM      4  N   UNL     1      58.981  36.815  67.923  0.00  0.00    +0.000 N 
ATOM      5  N   UNL     1      55.439  37.166  67.475  0.00  0.00    +0.000 NA
ATOM      6  C   UNL     1      57.735  37.113  68.436  0.00  0.00    +0.000 A 
ATOM      7  C   UNL     1      57.433  36.593  66.211  0.00  0.00    +0.000 A 
ATOM      8  C   UNL     1      58.901  36.469  66.501  0.00  0.00    +0.000 C 
ATOM      9  C   UNL     1      58.748  37.519  70.584  0.00  0.00    +0.000 A 
ATOM     10  C   UNL     1      58.589  37.860  72.044  0.00  0.00    +0.000 C 
ATOM     11  C   UNL     1      56.756  36.973  67.363  0.00  0.00    +0.000 A 
ATOM     12  C   UNL     1      59.968  37.230  70.089  0.00  0.00    +0.000 A 
ATOM     13  C   UNL     1      56.717  36.389  65.040  0.00  0.00    +0.000 A 
ATOM     14  C   UNL     1      57.576  37.457  69.718  0.00  0.00    +0.000 A 
ATOM     15  C   UNL     1      60.139  36.838  68.654  0.00  0.00    +0.000 A 
ATOM     16  C   UNL     1      55.305  36.567  65.108  0.00  0.00    +0.000 A 
ATOM     17  C   UNL     1      61.204  37.258  70.918  0.00  0.00    +0.000 C 
ATOM     18  C   UNL     1      54.725  36.961  66.358  0.00  0.00    +0.000 A 
ATOM     19  C   UNL     1      59.896  38.472  72.597  0.00  0.00    +0.000 C 
ATOM     20  C   UNL     1      53.069  36.553  64.140  0.00  0.00    +0.000 A 
ATOM     21  C   UNL     1      54.444  36.374  64.005  0.00  0.00    +0.000 A 
ATOM     22  C   UNL     1      53.352  37.148  66.439  0.00  0.00    +0.000 A 
ATOM     23  C   UNL     1      52.512  36.957  65.342  0.00  0.00    +0.000 A 
ENDROOT
BRANCH  10  24
ATOM     24  O   UNL     1      57.543  38.831  72.179  0.00  0.00    +0.000 OA
ATOM     25  H   UNL     1      57.967  39.643  72.524  0.00  0.00    +0.000 HD
ENDBRANCH  10  24
BRANCH  10  26
ATOM     26  C   UNL     1      58.213  36.601  72.855  0.00  0.00    +0.000 C 
ATOM     27  C   UNL     1      57.417  36.882  74.127  0.00  0.00    +0.000 C 
ENDBRANCH  10  26
BRANCH  13  28
ATOM     28  C   UNL     1      57.439  35.963  63.784  0.00  0.00    +0.000 C 
ATOM     29  C   UNL     1      57.915  37.153  62.965  0.00  0.00    +0.000 C 
ENDBRANCH  13  28
BRANCH  20  30
ATOM     30  O   UNL     1      52.250  36.397  63.021  0.00  0.00    +0.000 OA
BRANCH  30  38
ATOM     31  O   UNL     1      51.922  34.196  63.662  0.00  0.00    +0.000 OA
ATOM     32  N   UNL     1      51.161  34.923  61.614  0.00  0.00    +0.000 N 
ATOM     33  C   UNL     1      50.782  34.226  58.797  0.00  0.00    +0.000 C 
ATOM     34  C   UNL     1      51.410  35.566  59.257  0.00  0.00    +0.000 C 
ATOM     35  C   UNL     1      51.028  33.168  59.902  0.00  0.00    +0.000 C 
ATOM     36  C   UNL     1      50.943  35.986  60.648  0.00  0.00    +0.000 C 
ATOM     37  C   UNL     1      50.569  33.643  61.277  0.00  0.00    +0.000 C 
ATOM     38  C   UNL     1      51.788  35.097  62.839  0.00  0.00    +0.000 C 
BRANCH  33  39
ATOM     39  N   UNL     1      51.316  33.781  57.471  0.00  0.00    +0.000 NA
ATOM     40  C   UNL     1      52.205  34.793  56.863  0.00  0.00    +0.000 C 
ATOM     41  C   UNL     1      52.018  32.483  57.559  0.00  0.00    +0.000 C 
ATOM     42  C   UNL     1      52.738  34.369  55.492  0.00  0.00    +0.000 C 
ATOM     43  C   UNL     1      52.547  32.001  56.206  0.00  0.00    +0.000 C 
ATOM     44  C   UNL     1      53.457  33.033  55.563  0.00  0.00    +0.000 C 
ENDBRANCH  33  39
ENDBRANCH  30  38
ENDBRANCH  20  30
TORSDOF 6
ENDMDL
MODEL 2
REMARK VINA RESULT:      -6.8     19.153     21.164
REMARK  Name = 
REMARK  8 active torsions:
REMARK  status: ('A' for Active; 'I' for Inactive)
REMARK    1  A    between atoms: O_1  and  C_21
REMARK    2  A    between atoms: O_1  and  C_38
REMARK    3  A    between atoms: O_4  and  C_26
REMARK    4  A    between atoms: N_7  and  C_11
REMARK    5  A    between atoms: C_26  and  C_33
REMARK    6  A    between atoms: C_29  and  C_37
REMARK    7  A    between atoms: C_33  and  C_42
REMARK    8  A    between atoms: C_37  and  C_43
REMARK                            x       y       z     vdW  Elec       q    Type
REMARK                         _______ _______ _______ _____ _____    ______ ____
ROOT
ATOM      1  O   UNL     1      72.252  58.134  66.686  0.00  0.00    +0.000 OA
ATOM      2  O   UNL     1      71.662  53.963  66.634  0.00  0.00    +0.000 OA
ATOM      3  O   UNL     1      72.472  59.867  65.273  0.00  0.00    +0.000 OA
ATOM      4  N   UNL     1      70.521  54.065  64.646  0.00  0.00    +0.000 N 
ATOM      5  N   UNL     1      68.690  54.201  61.564  0.00  0.00    +0.000 NA
ATOM      6  C   UNL     1      69.943  54.799  63.630  0.00  0.00    +0.000 A 
ATOM      7  C   UNL     1      69.585  52.577  63.135  0.00  0.00    +0.000 A 
ATOM      8  C   UNL     1      70.350  52.626  64.425  0.00  0.00    +0.000 C 
ATOM      9  C   UNL     1      70.653  56.823  64.728  0.00  0.00    +0.000 A 
ATOM     10  C   UNL     1      70.671  58.330  64.775  0.00  0.00    +0.000 C 
ATOM     11  C   UNL     1      69.350  53.868  62.676  0.00  0.00    +0.000 A 
ATOM     12  C   UNL     1      71.219  56.112  65.724  0.00  0.00    +0.000 A 
ATOM     13  C   UNL     1      69.112  51.500  62.398  0.00  0.00    +0.000 A 
ATOM     14  C   UNL     1      69.982  56.135  63.631  0.00  0.00    +0.000 A 
ATOM     15  C   UNL     1      71.166  54.616  65.722  0.00  0.00    +0.000 A 
ATOM     16  C   UNL     1      68.387  51.801  61.209  0.00  0.00    +0.000 A 
ATOM     17  C   UNL     1      71.906  56.747  66.881  0.00  0.00    +0.000 C 
ATOM     18  C   UNL     1      68.213  53.175  60.843  0.00  0.00    +0.000 A 
ATOM     19  C   UNL     1      71.889  58.827  65.586  0.00  0.00    +0.000 C 
ATOM     20  C   UNL     1      67.118  51.172  59.226  0.00  0.00    +0.000 A 
ATOM     21  C   UNL     1      67.828  50.812  60.370  0.00  0.00    +0.000 A 
ATOM     22  C   UNL     1      67.516  53.485  59.682  0.00  0.00    +0.000 A 
ATOM     23  C   UNL     1      66.970  52.499  58.861  0.00  0.00    +0.000 A 
ENDROOT
BRANCH  10  24
ATOM     24  O   UNL     1      70.785  58.831  63.436  0.00  0.00    +0.000 OA
ATOM     25  H   UNL     1      70.621  59.794  63.490  0.00  0.00    +0.000 HD
ENDBRANCH  10  24
BRANCH  10  26
ATOM     26  C   UNL     1      69.366  58.867  65.402  0.00  0.00    +0.000 C 
ATOM     27  C   UNL     1      68.443  59.586  64.422  0.00  0.00    +0.000 C 
ENDBRANCH  10  26
BRANCH  13  28
ATOM     28  C   UNL     1      69.348  50.093  62.891  0.00  0.00    +0.000 C 
ATOM     29  C   UNL     1      70.596  49.473  62.282  0.00  0.00    +0.000 C 
ENDBRANCH  13  28
BRANCH  20  30
ATOM     30  O   UNL     1      66.615  50.170  58.395  0.00  0.00    +0.000 OA
BRANCH  30  38
ATOM     31  O   UNL     1      64.524  50.224  59.390  0.00  0.00    +0.000 OA
ATOM     32  N   UNL     1      64.713  49.821  57.130  0.00  0.00    +0.000 N 
ATOM     33  C   UNL     1      63.662  48.310  54.855  0.00  0.00    +0.000 C 
ATOM     34  C   UNL     1      65.177  48.436  55.156  0.00  0.00    +0.000 C 
ATOM     35  C   UNL     1      62.885  48.482  56.185  0.00  0.00    +0.000 C 
ATOM     36  C   UNL     1      65.519  49.708  55.926  0.00  0.00    +0.000 C 
ATOM     37  C   UNL     1      63.278  49.754  56.930  0.00  0.00    +0.000 C 
ATOM     38  C   UNL     1      65.226  50.086  58.391  0.00  0.00    +0.000 C 
BRANCH  33  39
ATOM     39  N   UNL     1      63.329  47.017  54.179  0.00  0.00    +0.000 NA
ATOM     40  C   UNL     1      64.259  45.934  54.564  0.00  0.00    +0.000 C 
ATOM     41  C   UNL     1      61.935  46.596  54.433  0.00  0.00    +0.000 C 
ATOM     42  C   UNL     1      63.953  44.609  53.860  0.00  0.00    +0.000 C 
ATOM     43  C   UNL     1      61.571  45.288  53.727  0.00  0.00    +0.000 C 
ATOM     44  C   UNL     1      62.521  44.166  54.106  0.00  0.00    +0.000 C 
ENDBRANCH  33  39
ENDBRANCH  30  38
ENDBRANCH  20  30
TORSDOF 6
ENDMDL
MODEL 3
REMARK VINA RESULT:      -6.7     30.514     36.979
REMARK  Name = 
REMARK  8 active torsions:
REMARK  status: ('A' for Active; 'I' for Inactive)
REMARK    1  A    between atoms: O_1  and  C_21
REMARK    2  A    between atoms: O_1  and  C_38
REMARK    3  A    between atoms: O_4  and  C_26
REMARK    4  A    between atoms: N_7  and  C_11
REMARK    5  A    between atoms: C_26  and  C_33
REMARK    6  A    between atoms: C_29  and  C_37
REMARK    7  A    between atoms: C_33  and  C_42
REMARK    8  A    between atoms: C_37  and  C_43
REMARK                            x       y       z     vdW  Elec       q    Type
REMARK                         _______ _______ _______ _____ _____    ______ ____
ROOT
ATOM      1  O   UNL     1      71.737  55.184  83.955  0.00  0.00    +0.000 OA
ATOM      2  O   UNL     1      75.384  56.682  85.442  0.00  0.00    +0.000 OA
ATOM      3  O   UNL     1      69.984  55.829  82.706  0.00  0.00    +0.000 OA
ATOM      4  N   UNL     1      75.615  58.116  83.665  0.00  0.00    +0.000 N 
ATOM      5  N   UNL     1      76.028  60.331  80.875  0.00  0.00    +0.000 NA
ATOM      6  C   UNL     1      75.189  58.588  82.441  0.00  0.00    +0.000 A 
ATOM      7  C   UNL     1      77.074  59.790  83.000  0.00  0.00    +0.000 A 
ATOM      8  C   UNL     1      76.818  58.820  84.118  0.00  0.00    +0.000 C 
ATOM      9  C   UNL     1      73.363  57.017  82.504  0.00  0.00    +0.000 A 
ATOM     10  C   UNL     1      72.164  56.402  81.827  0.00  0.00    +0.000 C 
ATOM     11  C   UNL     1      76.105  59.641  82.015  0.00  0.00    +0.000 A 
ATOM     12  C   UNL     1      73.774  56.551  83.700  0.00  0.00    +0.000 A 
ATOM     13  C   UNL     1      78.075  60.736  82.828  0.00  0.00    +0.000 A 
ATOM     14  C   UNL     1      74.106  58.084  81.842  0.00  0.00    +0.000 A 
ATOM     15  C   UNL     1      74.993  57.114  84.363  0.00  0.00    +0.000 A 
ATOM     16  C   UNL     1      78.048  61.491  81.620  0.00  0.00    +0.000 A 
ATOM     17  C   UNL     1      73.075  55.455  84.424  0.00  0.00    +0.000 C 
ATOM     18  C   UNL     1      76.993  61.243  80.682  0.00  0.00    +0.000 A 
ATOM     19  C   UNL     1      71.204  55.802  82.879  0.00  0.00    +0.000 C 
ATOM     20  C   UNL     1      78.936  63.169  80.092  0.00  0.00    +0.000 A 
ATOM     21  C   UNL     1      79.010  62.473  81.297  0.00  0.00    +0.000 A 
ATOM     22  C   UNL     1      76.947  61.977  79.504  0.00  0.00    +0.000 A 
ATOM     23  C   UNL     1      77.903  62.946  79.197  0.00  0.00    +0.000 A 
ENDROOT
BRANCH  10  24
ATOM     24  O   UNL     1      71.464  57.427  81.109  0.00  0.00    +0.000 OA
ATOM     25  H   UNL     1      71.913  57.509  80.243  0.00  0.00    +0.000 HD
ENDBRANCH  10  24
BRANCH  10  26
ATOM     26  C   UNL     1      72.607  55.306  80.834  0.00  0.00    +0.000 C 
ATOM     27  C   UNL     1      72.005  55.438  79.437  0.00  0.00    +0.000 C 
ENDBRANCH  10  26
BRANCH  13  28
ATOM     28  C   UNL     1      79.142  60.899  83.884  0.00  0.00    +0.000 C 
ATOM     29  C   UNL     1      80.359  60.030  83.608  0.00  0.00    +0.000 C 
ENDBRANCH  13  28
BRANCH  20  30
ATOM     30  O   UNL     1      79.877  64.163  79.822  0.00  0.00    +0.000 OA
BRANCH  30  38
ATOM     31  O   UNL     1      78.734  66.040  80.554  0.00  0.00    +0.000 OA
ATOM     32  N   UNL     1      79.511  65.938  78.388  0.00  0.00    +0.000 N 
ATOM     33  C   UNL     1      78.958  66.612  75.594  0.00  0.00    +0.000 C 
ATOM     34  C   UNL     1      79.450  65.213  76.043  0.00  0.00    +0.000 C 
ATOM     35  C   UNL     1      78.216  67.271  76.784  0.00  0.00    +0.000 C 
ATOM     36  C   UNL     1      80.254  65.260  77.339  0.00  0.00    +0.000 C 
ATOM     37  C   UNL     1      79.048  67.273  78.063  0.00  0.00    +0.000 C 
ATOM     38  C   UNL     1      79.326  65.432  79.666  0.00  0.00    +0.000 C 
BRANCH  33  39
ATOM     39  N   UNL     1      78.096  66.540  74.372  0.00  0.00    +0.000 NA
ATOM     40  C   UNL     1      76.753  66.001  74.672  0.00  0.00    +0.000 C 
ATOM     41  C   UNL     1      77.974  67.848  73.697  0.00  0.00    +0.000 C 
ATOM     42  C   UNL     1      75.866  65.891  73.429  0.00  0.00    +0.000 C 
ATOM     43  C   UNL     1      77.118  67.785  72.430  0.00  0.00    +0.000 C 
ATOM     44  C   UNL     1      75.736  67.227  72.718  0.00  0.00    +0.000 C 
ENDBRANCH  33  39
ENDBRANCH  30  38
ENDBRANCH  20  30
TORSDOF 6
ENDMDL
MODEL 4
REMARK VINA RESULT:      -6.6     22.846     25.858
REMARK  Name = 
REMARK  8 active torsions:
REMARK  status: ('A' for Active; 'I' for Inactive)
REMARK    1  A    between atoms: O_1  and  C_21
REMARK    2  A    between atoms: O_1  and  C_38
REMARK    3  A    between atoms: O_4  and  C_26
REMARK    4  A    between atoms: N_7  and  C_11
REMARK    5  A    between atoms: C_26  and  C_33
REMARK    6  A    between atoms: C_29  and  C_37
REMARK    7  A    between atoms: C_33  and  C_42
REMARK    8  A    between atoms: C_37  and  C_43
REMARK                            x       y       z     vdW  Elec       q    Type
REMARK                         _______ _______ _______ _____ _____    ______ ____
ROOT
ATOM      1  O   UNL     1      68.850  64.865  64.019  0.00  0.00    +0.000 OA
ATOM      2  O   UNL     1      69.567  62.088  67.106  0.00  0.00    +0.000 OA
ATOM      3  O   UNL     1      69.221  65.139  61.820  0.00  0.00    +0.000 OA
ATOM      4  N   UNL     1      69.546  60.325  65.638  0.00  0.00    +0.000 N 
ATOM      5  N   UNL     1      69.469  57.544  63.373  0.00  0.00    +0.000 NA
ATOM      6  C   UNL     1      69.347  59.822  64.368  0.00  0.00    +0.000 A 
ATOM      7  C   UNL     1      69.917  58.038  65.710  0.00  0.00    +0.000 A 
ATOM      8  C   UNL     1      69.917  59.263  66.577  0.00  0.00    +0.000 C 
ATOM      9  C   UNL     1      68.835  62.048  63.600  0.00  0.00    +0.000 A 
ATOM     10  C   UNL     1      68.401  62.961  62.481  0.00  0.00    +0.000 C 
ATOM     11  C   UNL     1      69.577  58.382  64.407  0.00  0.00    +0.000 A 
ATOM     12  C   UNL     1      69.028  62.545  64.838  0.00  0.00    +0.000 A 
ATOM     13  C   UNL     1      70.183  56.709  66.012  0.00  0.00    +0.000 A 
ATOM     14  C   UNL     1      69.001  60.620  63.353  0.00  0.00    +0.000 A 
ATOM     15  C   UNL     1      69.408  61.646  65.973  0.00  0.00    +0.000 A 
ATOM     16  C   UNL     1      70.067  55.770  64.946  0.00  0.00    +0.000 A 
ATOM     17  C   UNL     1      68.862  63.988  65.165  0.00  0.00    +0.000 C 
ATOM     18  C   UNL     1      69.710  56.253  63.645  0.00  0.00    +0.000 A 
ATOM     19  C   UNL     1      68.881  64.406  62.750  0.00  0.00    +0.000 C 
ATOM     20  C   UNL     1      70.145  53.515  64.026  0.00  0.00    +0.000 A 
ATOM     21  C   UNL     1      70.287  54.384  65.106  0.00  0.00    +0.000 A 
ATOM     22  C   UNL     1      69.602  55.352  62.594  0.00  0.00    +0.000 A 
ATOM     23  C   UNL     1      69.823  53.985  62.764  0.00  0.00    +0.000 A 
ENDROOT
BRANCH  10  24
ATOM     24  O   UNL     1      68.997  62.507  61.258  0.00  0.00    +0.000 OA
ATOM     25  H   UNL     1      68.617  63.061  60.547  0.00  0.00    +0.000 HD
ENDBRANCH  10  24
BRANCH  10  26
ATOM     26  C   UNL     1      66.865  62.937  62.329  0.00  0.00    +0.000 C 
ATOM     27  C   UNL     1      66.365  63.201  60.912  0.00  0.00    +0.000 C 
ENDBRANCH  10  26
BRANCH  13  28
ATOM     28  C   UNL     1      70.540  56.319  67.425  0.00  0.00    +0.000 C 
ATOM     29  C   UNL     1      72.029  56.468  67.703  0.00  0.00    +0.000 C 
ENDBRANCH  13  28
BRANCH  20  30
ATOM     30  O   UNL     1      70.411  52.157  64.207  0.00  0.00    +0.000 OA
BRANCH  30  38
ATOM     31  O   UNL     1      72.575  52.035  63.389  0.00  0.00    +0.000 OA
ATOM     32  N   UNL     1      70.929  50.699  62.490  0.00  0.00    +0.000 N 
ATOM     33  C   UNL     1      69.867  49.499  60.042  0.00  0.00    +0.000 C 
ATOM     34  C   UNL     1      68.976  50.235  61.075  0.00  0.00    +0.000 C 
ATOM     35  C   UNL     1      71.306  50.064  60.150  0.00  0.00    +0.000 C 
ATOM     36  C   UNL     1      69.563  50.203  62.483  0.00  0.00    +0.000 C 
ATOM     37  C   UNL     1      71.839  50.034  61.578  0.00  0.00    +0.000 C 
ATOM     38  C   UNL     1      71.405  51.662  63.367  0.00  0.00    +0.000 C 
BRANCH  33  39
ATOM     39  N   UNL     1      69.326  49.615  58.650  0.00  0.00    +0.000 NA
ATOM     40  C   UNL     1      67.875  49.898  58.640  0.00  0.00    +0.000 C 
ATOM     41  C   UNL     1      70.042  50.634  57.856  0.00  0.00    +0.000 C 
ATOM     42  C   UNL     1      67.297  49.989  57.226  0.00  0.00    +0.000 C 
ATOM     43  C   UNL     1      69.519  50.746  56.422  0.00  0.00    +0.000 C 
ATOM     44  C   UNL     1      68.027  51.029  56.393  0.00  0.00    +0.000 C 
ENDBRANCH  33  39
ENDBRANCH  30  38
ENDBRANCH  20  30
TORSDOF 6
ENDMDL
MODEL 5
REMARK VINA RESULT:      -6.6     32.937     35.890
REMARK  Name = 
REMARK  8 active torsions:
REMARK  status: ('A' for Active; 'I' for Inactive)
REMARK    1  A    between atoms: O_1  and  C_21
REMARK    2  A    between atoms: O_1  and  C_38
REMARK    3  A    between atoms: O_4  and  C_26
REMARK    4  A    between atoms: N_7  and  C_11
REMARK    5  A    between atoms: C_26  and  C_33
REMARK    6  A    between atoms: C_29  and  C_37
REMARK    7  A    between atoms: C_33  and  C_42
REMARK    8  A    between atoms: C_37  and  C_43
REMARK                            x       y       z     vdW  Elec       q    Type
REMARK                         _______ _______ _______ _____ _____    ______ ____
ROOT
ATOM      1  O   UNL     1      62.361  78.409  70.604  0.00  0.00    +0.000 OA
ATOM      2  O   UNL     1      60.044  74.977  69.830  0.00  0.00    +0.000 OA
ATOM      3  O   UNL     1      64.440  78.986  71.234  0.00  0.00    +0.000 OA
ATOM      4  N   UNL     1      61.889  73.773  69.188  0.00  0.00    +0.000 N 
ATOM      5  N   UNL     1      64.749  71.884  68.132  0.00  0.00    +0.000 NA
ATOM      6  C   UNL     1      63.237  73.705  68.900  0.00  0.00    +0.000 A 
ATOM      7  C   UNL     1      62.374  71.597  68.553  0.00  0.00    +0.000 A 
ATOM      8  C   UNL     1      61.239  72.473  68.999  0.00  0.00    +0.000 C 
ATOM      9  C   UNL     1      63.440  76.045  69.438  0.00  0.00    +0.000 A 
ATOM     10  C   UNL     1      64.298  77.283  69.522  0.00  0.00    +0.000 C 
ATOM     11  C   UNL     1      63.548  72.338  68.498  0.00  0.00    +0.000 A 
ATOM     12  C   UNL     1      62.124  76.119  69.721  0.00  0.00    +0.000 A 
ATOM     13  C   UNL     1      62.404  70.253  68.210  0.00  0.00    +0.000 A 
ATOM     14  C   UNL     1      64.024  74.781  69.006  0.00  0.00    +0.000 A 
ATOM     15  C   UNL     1      61.245  74.913  69.593  0.00  0.00    +0.000 A 
ATOM     16  C   UNL     1      63.659  69.721  67.797  0.00  0.00    +0.000 A 
ATOM     17  C   UNL     1      61.459  77.378  70.152  0.00  0.00    +0.000 C 
ATOM     18  C   UNL     1      64.799  70.589  67.783  0.00  0.00    +0.000 A 
ATOM     19  C   UNL     1      63.704  78.280  70.542  0.00  0.00    +0.000 C 
ATOM     20  C   UNL     1      65.093  67.922  66.992  0.00  0.00    +0.000 A 
ATOM     21  C   UNL     1      63.840  68.378  67.398  0.00  0.00    +0.000 A 
ATOM     22  C   UNL     1      66.032  70.084  67.391  0.00  0.00    +0.000 A 
ATOM     23  C   UNL     1      66.198  68.755  67.001  0.00  0.00    +0.000 A 
ENDROOT
BRANCH  10  24
ATOM     24  O   UNL     1      65.608  76.906  69.969  0.00  0.00    +0.000 OA
ATOM     25  H   UNL     1      66.237  77.470  69.477  0.00  0.00    +0.000 HD
ENDBRANCH  10  24
BRANCH  10  26
ATOM     26  C   UNL     1      64.415  77.954  68.136  0.00  0.00    +0.000 C 
ATOM     27  C   UNL     1      65.821  77.940  67.543  0.00  0.00    +0.000 C 
ENDBRANCH  10  26
BRANCH  13  28
ATOM     28  C   UNL     1      61.133  69.439  68.253  0.00  0.00    +0.000 C 
ATOM     29  C   UNL     1      60.859  68.876  69.639  0.00  0.00    +0.000 C 
ENDBRANCH  13  28
BRANCH  20  30
ATOM     30  O   UNL     1      65.247  66.579  66.646  0.00  0.00    +0.000 OA
BRANCH  30  38
ATOM     31  O   UNL     1      64.408  66.855  64.504  0.00  0.00    +0.000 OA
ATOM     32  N   UNL     1      66.205  65.461  64.865  0.00  0.00    +0.000 N 
ATOM     33  C   UNL     1      67.498  62.948  64.104  0.00  0.00    +0.000 C 
ATOM     34  C   UNL     1      67.285  63.373  65.579  0.00  0.00    +0.000 C 
ATOM     35  C   UNL     1      66.413  63.635  63.237  0.00  0.00    +0.000 C 
ATOM     36  C   UNL     1      67.208  64.888  65.747  0.00  0.00    +0.000 C 
ATOM     37  C   UNL     1      66.358  65.144  63.458  0.00  0.00    +0.000 C 
ATOM     38  C   UNL     1      65.218  66.345  65.274  0.00  0.00    +0.000 C 
BRANCH  33  39
ATOM     39  N   UNL     1      67.482  61.460  63.940  0.00  0.00    +0.000 NA
ATOM     40  C   UNL     1      67.131  61.058  62.561  0.00  0.00    +0.000 C 
ATOM     41  C   UNL     1      68.764  60.840  64.334  0.00  0.00    +0.000 C 
ATOM     42  C   UNL     1      67.079  59.539  62.380  0.00  0.00    +0.000 C 
ATOM     43  C   UNL     1      68.753  59.315  64.197  0.00  0.00    +0.000 C 
ATOM     44  C   UNL     1      68.388  58.885  62.788  0.00  0.00    +0.000 C 
ENDBRANCH  33  39
ENDBRANCH  30  38
ENDBRANCH  20  30
TORSDOF 6
ENDMDL
MODEL 6
REMARK VINA RESULT:      -6.6      5.211      7.839
REMARK  Name = 
REMARK  8 active torsions:
REMARK  status: ('A' for Active; 'I' for Inactive)
REMARK    1  A    between atoms: O_1  and  C_21
REMARK    2  A    between atoms: O_1  and  C_38
REMARK    3  A    between atoms: O_4  and  C_26
REMARK    4  A    between atoms: N_7  and  C_11
REMARK    5  A    between atoms: C_26  and  C_33
REMARK    6  A    between atoms: C_29  and  C_37
REMARK    7  A    between atoms: C_33  and  C_42
REMARK    8  A    between atoms: C_37  and  C_43
REMARK                            x       y       z     vdW  Elec       q    Type
REMARK                         _______ _______ _______ _____ _____    ______ ____
ROOT
ATOM      1  O   UNL     1      67.856  39.636  73.314  0.00  0.00    +0.000 OA
ATOM      2  O   UNL     1      66.160  40.056  69.480  0.00  0.00    +0.000 OA
ATOM      3  O   UNL     1      67.330  39.929  75.479  0.00  0.00    +0.000 OA
ATOM      4  N   UNL     1      64.045  39.671  70.282  0.00  0.00    +0.000 N 
ATOM      5  N   UNL     1      60.734  39.024  71.500  0.00  0.00    +0.000 NA
ATOM      6  C   UNL     1      63.197  39.326  71.315  0.00  0.00    +0.000 A 
ATOM      7  C   UNL     1      61.879  39.670  69.457  0.00  0.00    +0.000 A 
ATOM      8  C   UNL     1      63.301  39.915  69.043  0.00  0.00    +0.000 C 
ATOM      9  C   UNL     1      65.103  39.142  72.778  0.00  0.00    +0.000 A 
ATOM     10  C   UNL     1      65.661  38.803  74.137  0.00  0.00    +0.000 C 
ATOM     11  C   UNL     1      61.832  39.321  70.802  0.00  0.00    +0.000 A 
ATOM     12  C   UNL     1      65.937  39.479  71.774  0.00  0.00    +0.000 A 
ATOM     13  C   UNL     1      60.697  39.733  68.732  0.00  0.00    +0.000 A 
ATOM     14  C   UNL     1      63.667  39.061  72.538  0.00  0.00    +0.000 A 
ATOM     15  C   UNL     1      65.406  39.768  70.403  0.00  0.00    +0.000 A 
ATOM     16  C   UNL     1      59.496  39.410  69.427  0.00  0.00    +0.000 A 
ATOM     17  C   UNL     1      67.413  39.567  71.943  0.00  0.00    +0.000 C 
ATOM     18  C   UNL     1      59.581  39.066  70.815  0.00  0.00    +0.000 A 
ATOM     19  C   UNL     1      67.010  39.525  74.359  0.00  0.00    +0.000 C 
ATOM     20  C   UNL     1      57.086  39.072  69.549  0.00  0.00    +0.000 A 
ATOM     21  C   UNL     1      58.222  39.410  68.817  0.00  0.00    +0.000 A 
ATOM     22  C   UNL     1      58.418  38.758  71.510  0.00  0.00    +0.000 A 
ATOM     23  C   UNL     1      57.166  38.763  70.897  0.00  0.00    +0.000 A 
ENDROOT
BRANCH  10  24
ATOM     24  O   UNL     1      64.738  39.251  75.140  0.00  0.00    +0.000 OA
ATOM     25  H   UNL     1      64.746  40.229  75.100  0.00  0.00    +0.000 HD
ENDBRANCH  10  24
BRANCH  10  26
ATOM     26  C   UNL     1      65.851  37.277  74.278  0.00  0.00    +0.000 C 
ATOM     27  C   UNL     1      65.350  36.696  75.597  0.00  0.00    +0.000 C 
ENDBRANCH  10  26
BRANCH  13  28
ATOM     28  C   UNL     1      60.734  40.097  67.268  0.00  0.00    +0.000 C 
ATOM     29  C   UNL     1      60.942  41.588  67.052  0.00  0.00    +0.000 C 
ENDBRANCH  13  28
BRANCH  20  30
ATOM     30  O   UNL     1      55.837  39.123  68.929  0.00  0.00    +0.000 OA
BRANCH  30  38
ATOM     31  O   UNL     1      55.771  36.808  68.917  0.00  0.00    +0.000 OA
ATOM     32  N   UNL     1      53.823  38.015  68.690  0.00  0.00    +0.000 N 
ATOM     33  C   UNL     1      51.217  38.160  67.368  0.00  0.00    +0.000 C 
ATOM     34  C   UNL     1      52.183  39.368  67.461  0.00  0.00    +0.000 C 
ATOM     35  C   UNL     1      52.056  36.859  67.440  0.00  0.00    +0.000 C 
ATOM     36  C   UNL     1      53.114  39.283  68.668  0.00  0.00    +0.000 C 
ATOM     37  C   UNL     1      52.987  36.831  68.647  0.00  0.00    +0.000 C 
ATOM     38  C   UNL     1      55.195  37.890  68.854  0.00  0.00    +0.000 C 
BRANCH  33  39
ATOM     39  N   UNL     1      50.373  38.210  66.132  0.00  0.00    +0.000 NA
ATOM     40  C   UNL     1      50.192  36.873  65.529  0.00  0.00    +0.000 C 
ATOM     41  C   UNL     1      49.055  38.831  66.381  0.00  0.00    +0.000 C 
ATOM     42  C   UNL     1      49.357  36.907  64.247  0.00  0.00    +0.000 C 
ATOM     43  C   UNL     1      48.189  38.913  65.121  0.00  0.00    +0.000 C 
ATOM     44  C   UNL     1      48.001  37.548  64.484  0.00  0.00    +0.000 C 
ENDBRANCH  33  39
ENDBRANCH  30  38
ENDBRANCH  20  30
TORSDOF 6
ENDMDL
MODEL 7
REMARK VINA RESULT:      -6.6      7.579     11.036
REMARK  Name = 
REMARK  8 active torsions:
REMARK  status: ('A' for Active; 'I' for Inactive)
REMARK    1  A    between atoms: O_1  and  C_21
REMARK    2  A    between atoms: O_1  and  C_38
REMARK    3  A    between atoms: O_4  and  C_26
REMARK    4  A    between atoms: N_7  and  C_11
REMARK    5  A    between atoms: C_26  and  C_33
REMARK    6  A    between atoms: C_29  and  C_37
REMARK    7  A    between atoms: C_33  and  C_42
REMARK    8  A    between atoms: C_37  and  C_43
REMARK                            x       y       z     vdW  Elec       q    Type
REMARK                         _______ _______ _______ _____ _____    ______ ____
ROOT
ATOM      1  O   UNL     1      68.282  41.599  76.947  0.00  0.00    +0.000 OA
ATOM      2  O   UNL     1      69.114  39.973  73.151  0.00  0.00    +0.000 OA
ATOM      3  O   UNL     1      66.810  42.962  77.960  0.00  0.00    +0.000 OA
ATOM      4  N   UNL     1      66.901  40.042  72.544  0.00  0.00    +0.000 N 
ATOM      5  N   UNL     1      63.444  40.092  71.588  0.00  0.00    +0.000 NA
ATOM      6  C   UNL     1      65.577  40.272  72.858  0.00  0.00    +0.000 A 
ATOM      7  C   UNL     1      65.633  39.600  70.655  0.00  0.00    +0.000 A 
ATOM      8  C   UNL     1      67.049  39.607  71.152  0.00  0.00    +0.000 C 
ATOM      9  C   UNL     1      66.244  40.882  75.092  0.00  0.00    +0.000 A 
ATOM     10  C   UNL     1      65.855  41.295  76.490  0.00  0.00    +0.000 C 
ATOM     11  C   UNL     1      64.773  39.994  71.673  0.00  0.00    +0.000 A 
ATOM     12  C   UNL     1      67.539  40.658  74.793  0.00  0.00    +0.000 A 
ATOM     13  C   UNL     1      65.107  39.273  69.413  0.00  0.00    +0.000 A 
ATOM     14  C   UNL     1      65.215  40.678  74.079  0.00  0.00    +0.000 A 
ATOM     15  C   UNL     1      67.939  40.196  73.425  0.00  0.00    +0.000 A 
ATOM     16  C   UNL     1      63.691  39.346  69.273  0.00  0.00    +0.000 A 
ATOM     17  C   UNL     1      68.639  40.830  75.780  0.00  0.00    +0.000 C 
ATOM     18  C   UNL     1      62.913  39.767  70.400  0.00  0.00    +0.000 A 
ATOM     19  C   UNL     1      67.025  42.037  77.174  0.00  0.00    +0.000 C 
ATOM     20  C   UNL     1      61.622  39.103  68.008  0.00  0.00    +0.000 A 
ATOM     21  C   UNL     1      63.012  39.023  68.078  0.00  0.00    +0.000 A 
ATOM     22  C   UNL     1      61.532  39.853  70.277  0.00  0.00    +0.000 A 
ATOM     23  C   UNL     1      60.873  39.533  69.090  0.00  0.00    +0.000 A 
ENDROOT
BRANCH  10  24
ATOM     24  O   UNL     1      64.737  42.189  76.411  0.00  0.00    +0.000 OA
ATOM     25  H   UNL     1      64.456  42.193  75.474  0.00  0.00    +0.000 HD
ENDBRANCH  10  24
BRANCH  10  26
ATOM     26  C   UNL     1      65.453  40.061  77.326  0.00  0.00    +0.000 C 
ATOM     27  C   UNL     1      64.516  40.365  78.492  0.00  0.00    +0.000 C 
ENDBRANCH  10  26
BRANCH  13  28
ATOM     28  C   UNL     1      66.028  38.831  68.302  0.00  0.00    +0.000 C 
ATOM     29  C   UNL     1      66.247  37.325  68.302  0.00  0.00    +0.000 C 
ENDBRANCH  13  28
BRANCH  20  30
ATOM     30  O   UNL     1      60.984  38.819  66.800  0.00  0.00    +0.000 OA
BRANCH  30  38
ATOM     31  O   UNL     1      58.944  37.872  67.353  0.00  0.00    +0.000 OA
ATOM     32  N   UNL     1      60.580  36.585  66.367  0.00  0.00    +0.000 N 
ATOM     33  C   UNL     1      61.853  33.952  66.284  0.00  0.00    +0.000 C 
ATOM     34  C   UNL     1      62.656  35.275  66.342  0.00  0.00    +0.000 C 
ATOM     35  C   UNL     1      60.462  34.198  66.923  0.00  0.00    +0.000 C 
ATOM     36  C   UNL     1      61.890  36.455  65.751  0.00  0.00    +0.000 C 
ATOM     37  C   UNL     1      59.746  35.400  66.317  0.00  0.00    +0.000 C 
ATOM     38  C   UNL     1      60.072  37.770  66.878  0.00  0.00    +0.000 C 
BRANCH  33  39
ATOM     39  N   UNL     1      62.578  32.823  66.947  0.00  0.00    +0.000 NA
ATOM     40  C   UNL     1      64.035  32.877  66.698  0.00  0.00    +0.000 C 
ATOM     41  C   UNL     1      62.318  32.769  68.401  0.00  0.00    +0.000 C 
ATOM     42  C   UNL     1      64.792  31.713  67.343  0.00  0.00    +0.000 C 
ATOM     43  C   UNL     1      63.033  31.603  69.089  0.00  0.00    +0.000 C 
ATOM     44  C   UNL     1      64.529  31.640  68.838  0.00  0.00    +0.000 C 
ENDBRANCH  33  39
ENDBRANCH  30  38
ENDBRANCH  20  30
TORSDOF 6
ENDMDL
MODEL 8
REMARK VINA RESULT:      -6.5     14.437     18.429
REMARK  Name = 
REMARK  8 active torsions:
REMARK  status: ('A' for Active; 'I' for Inactive)
REMARK    1  A    between atoms: O_1  and  C_21
REMARK    2  A    between atoms: O_1  and  C_38
REMARK    3  A    between atoms: O_4  and  C_26
REMARK    4  A    between atoms: N_7  and  C_11
REMARK    5  A    between atoms: C_26  and  C_33
REMARK    6  A    between atoms: C_29  and  C_37
REMARK    7  A    between atoms: C_33  and  C_42
REMARK    8  A    between atoms: C_37  and  C_43
REMARK                            x       y       z     vdW  Elec       q    Type
REMARK                         _______ _______ _______ _____ _____    ______ ____
ROOT
ATOM      1  O   UNL     1      36.207  48.805  72.978  0.00  0.00    +0.000 OA
ATOM      2  O   UNL     1      37.228  44.725  73.216  0.00  0.00    +0.000 OA
ATOM      3  O   UNL     1      37.168  50.835  73.049  0.00  0.00    +0.000 OA
ATOM      4  N   UNL     1      39.320  45.112  72.356  0.00  0.00    +0.000 N 
ATOM      5  N   UNL     1      42.579  45.681  70.969  0.00  0.00    +0.000 NA
ATOM      6  C   UNL     1      40.247  45.965  71.791  0.00  0.00    +0.000 A 
ATOM      7  C   UNL     1      41.248  43.895  71.939  0.00  0.00    +0.000 A 
ATOM      8  C   UNL     1      39.861  43.757  72.498  0.00  0.00    +0.000 C 
ATOM      9  C   UNL     1      38.644  47.758  71.942  0.00  0.00    +0.000 A 
ATOM     10  C   UNL     1      38.283  49.195  71.662  0.00  0.00    +0.000 C 
ATOM     11  C   UNL     1      41.462  45.204  71.524  0.00  0.00    +0.000 A 
ATOM     12  C   UNL     1      37.735  46.931  72.494  0.00  0.00    +0.000 A 
ATOM     13  C   UNL     1      42.263  42.961  71.787  0.00  0.00    +0.000 A 
ATOM     14  C   UNL     1      39.961  47.252  71.572  0.00  0.00    +0.000 A 
ATOM     15  C   UNL     1      38.057  45.488  72.731  0.00  0.00    +0.000 A 
ATOM     16  C   UNL     1      43.472  43.415  71.185  0.00  0.00    +0.000 A 
ATOM     17  C   UNL     1      36.368  47.375  72.882  0.00  0.00    +0.000 C 
ATOM     18  C   UNL     1      43.569  44.792  70.800  0.00  0.00    +0.000 A 
ATOM     19  C   UNL     1      37.185  49.672  72.641  0.00  0.00    +0.000 C 
ATOM     20  C   UNL     1      45.734  43.080  70.342  0.00  0.00    +0.000 A 
ATOM     21  C   UNL     1      44.584  42.577  70.946  0.00  0.00    +0.000 A 
ATOM     22  C   UNL     1      44.744  45.254  70.221  0.00  0.00    +0.000 A 
ATOM     23  C   UNL     1      45.836  44.416  69.992  0.00  0.00    +0.000 A 
ENDROOT
BRANCH  10  24
ATOM     24  O   UNL     1      39.448  50.010  71.858  0.00  0.00    +0.000 OA
ATOM     25  H   UNL     1      40.102  49.444  72.315  0.00  0.00    +0.000 HD
ENDBRANCH  10  24
BRANCH  10  26
ATOM     26  C   UNL     1      37.797  49.357  70.206  0.00  0.00    +0.000 C 
ATOM     27  C   UNL     1      38.058  50.733  69.601  0.00  0.00    +0.000 C 
ENDBRANCH  10  26
BRANCH  13  28
ATOM     28  C   UNL     1      42.040  41.533  72.220  0.00  0.00    +0.000 C 
ATOM     29  C   UNL     1      41.417  40.689  71.118  0.00  0.00    +0.000 C 
ENDBRANCH  13  28
BRANCH  20  30
ATOM     30  O   UNL     1      46.831  42.236  70.159  0.00  0.00    +0.000 OA
BRANCH  30  38
ATOM     31  O   UNL     1      47.771  43.087  72.098  0.00  0.00    +0.000 OA
ATOM     32  N   UNL     1      48.509  41.079  71.246  0.00  0.00    +0.000 N 
ATOM     33  C   UNL     1      50.834  39.360  70.796  0.00  0.00    +0.000 C 
ATOM     34  C   UNL     1      49.782  39.660  69.699  0.00  0.00    +0.000 C 
ATOM     35  C   UNL     1      50.838  40.538  71.802  0.00  0.00    +0.000 C 
ATOM     36  C   UNL     1      48.412  40.002  70.276  0.00  0.00    +0.000 C 
ATOM     37  C   UNL     1      49.444  40.858  72.333  0.00  0.00    +0.000 C 
ATOM     38  C   UNL     1      47.706  42.209  71.241  0.00  0.00    +0.000 C 
BRANCH  33  39
ATOM     39  N   UNL     1      52.194  39.115  70.220  0.00  0.00    +0.000 NA
ATOM     40  C   UNL     1      52.756  40.328  69.590  0.00  0.00    +0.000 C 
ATOM     41  C   UNL     1      53.140  38.586  71.225  0.00  0.00    +0.000 C 
ATOM     42  C   UNL     1      54.134  40.091  68.968  0.00  0.00    +0.000 C 
ATOM     43  C   UNL     1      54.528  38.305  70.645  0.00  0.00    +0.000 C 
ATOM     44  C   UNL     1      55.117  39.540  69.987  0.00  0.00    +0.000 C 
ENDBRANCH  33  39
ENDBRANCH  30  38
ENDBRANCH  20  30
TORSDOF 6
ENDMDL
MODEL 9
REMARK VINA RESULT:      -6.5     15.102     19.356
REMARK  Name = 
REMARK  8 active torsions:
REMARK  status: ('A' for Active; 'I' for Inactive)
REMARK    1  A    between atoms: O_1  and  C_21
REMARK    2  A    between atoms: O_1  and  C_38
REMARK    3  A    between atoms: O_4  and  C_26
REMARK    4  A    between atoms: N_7  and  C_11
REMARK    5  A    between atoms: C_26  and  C_33
REMARK    6  A    between atoms: C_29  and  C_37
REMARK    7  A    between atoms: C_33  and  C_42
REMARK    8  A    between atoms: C_37  and  C_43
REMARK                            x       y       z     vdW  Elec       q    Type
REMARK                         _______ _______ _______ _____ _____    ______ ____
ROOT
ATOM      1  O   UNL     1      36.185  48.612  73.124  0.00  0.00    +0.000 OA
ATOM      2  O   UNL     1      37.186  44.526  72.888  0.00  0.00    +0.000 OA
ATOM      3  O   UNL     1      37.153  50.613  73.454  0.00  0.00    +0.000 OA
ATOM      4  N   UNL     1      39.295  45.002  72.116  0.00  0.00    +0.000 N 
ATOM      5  N   UNL     1      42.579  45.714  70.861  0.00  0.00    +0.000 NA
ATOM      6  C   UNL     1      40.234  45.910  71.673  0.00  0.00    +0.000 A 
ATOM      7  C   UNL     1      41.225  43.832  71.587  0.00  0.00    +0.000 A 
ATOM      8  C   UNL     1      39.828  43.637  72.103  0.00  0.00    +0.000 C 
ATOM      9  C   UNL     1      38.636  47.682  72.011  0.00  0.00    +0.000 A 
ATOM     10  C   UNL     1      38.285  49.145  71.900  0.00  0.00    +0.000 C 
ATOM     11  C   UNL     1      41.451  45.180  71.336  0.00  0.00    +0.000 A 
ATOM     12  C   UNL     1      37.714  46.800  72.445  0.00  0.00    +0.000 A 
ATOM     13  C   UNL     1      42.239  42.917  71.341  0.00  0.00    +0.000 A 
ATOM     14  C   UNL     1      39.957  47.216  71.604  0.00  0.00    +0.000 A 
ATOM     15  C   UNL     1      38.027  45.337  72.512  0.00  0.00    +0.000 A 
ATOM     16  C   UNL     1      43.460  43.433  70.819  0.00  0.00    +0.000 A 
ATOM     17  C   UNL     1      36.343  47.202  72.861  0.00  0.00    +0.000 C 
ATOM     18  C   UNL     1      43.569  44.846  70.604  0.00  0.00    +0.000 A 
ATOM     19  C   UNL     1      37.173  49.507  72.910  0.00  0.00    +0.000 C 
ATOM     20  C   UNL     1      45.735  43.188  69.979  0.00  0.00    +0.000 A 
ATOM     21  C   UNL     1      44.572  42.623  70.499  0.00  0.00    +0.000 A 
ATOM     22  C   UNL     1      44.755  45.367  70.103  0.00  0.00    +0.000 A 
ATOM     23  C   UNL     1      45.847  44.556  69.794  0.00  0.00    +0.000 A 
ENDROOT
BRANCH  10  24
ATOM     24  O   UNL     1      39.449  49.923  72.211  0.00  0.00    +0.000 OA
ATOM     25  H   UNL     1      39.838  50.187  71.353  0.00  0.00    +0.000 HD
ENDBRANCH  10  24
BRANCH  10  26
ATOM     26  C   UNL     1      37.825  49.482  70.466  0.00  0.00    +0.000 C 
ATOM     27  C   UNL     1      38.061  50.932  70.050  0.00  0.00    +0.000 C 
ENDBRANCH  10  26
BRANCH  13  28
ATOM     28  C   UNL     1      42.003  41.448  71.597  0.00  0.00    +0.000 C 
ATOM     29  C   UNL     1      42.422  41.035  73.000  0.00  0.00    +0.000 C 
ENDBRANCH  13  28
BRANCH  20  30
ATOM     30  O   UNL     1      46.831  42.366  69.715  0.00  0.00    +0.000 OA
BRANCH  30  38
ATOM     31  O   UNL     1      45.855  40.342  69.154  0.00  0.00    +0.000 OA
ATOM     32  N   UNL     1      47.212  40.490  71.009  0.00  0.00    +0.000 N 
ATOM     33  C   UNL     1      47.636  39.597  73.763  0.00  0.00    +0.000 C 
ATOM     34  C   UNL     1      47.730  41.083  73.335  0.00  0.00    +0.000 C 
ATOM     35  C   UNL     1      46.696  38.863  72.773  0.00  0.00    +0.000 C 
ATOM     36  C   UNL     1      48.108  41.248  71.866  0.00  0.00    +0.000 C 
ATOM     37  C   UNL     1      47.098  39.078  71.318  0.00  0.00    +0.000 C 
ATOM     38  C   UNL     1      46.573  41.010  69.893  0.00  0.00    +0.000 C 
BRANCH  33  39
ATOM     39  N   UNL     1      47.178  39.447  75.180  0.00  0.00    +0.000 NA
ATOM     40  C   UNL     1      45.710  39.572  75.305  0.00  0.00    +0.000 C 
ATOM     41  C   UNL     1      47.627  38.175  75.782  0.00  0.00    +0.000 C 
ATOM     42  C   UNL     1      45.224  39.453  76.751  0.00  0.00    +0.000 C 
ATOM     43  C   UNL     1      47.189  38.019  77.240  0.00  0.00    +0.000 C 
ATOM     44  C   UNL     1      45.684  38.152  77.387  0.00  0.00    +0.000 C 
ENDBRANCH  33  39
ENDBRANCH  30  38
ENDBRANCH  20  30
TORSDOF 6
ENDMDL
