MODEL 1
REMARK VINA RESULT:      -7.6      0.000      0.000
REMARK  Name = 
REMARK  8 active torsions:
REMARK  status: ('A' for Active; 'I' for Inactive)
REMARK    1  A    between atoms: O_1  and  C_21
REMARK    2  A    between atoms: O_1  and  C_38
REMARK    3  A    between atoms: O_4  and  C_26
REMARK    4  A    between atoms: N_7  and  C_11
REMARK    5  A    between atoms: C_26  and  C_33
REMARK    6  A    between atoms: C_29  and  C_37
REMARK    7  A    between atoms: C_33  and  C_42
REMARK    8  A    between atoms: C_37  and  C_43
REMARK                            x       y       z     vdW  Elec       q    Type
REMARK                         _______ _______ _______ _____ _____    ______ ____
ROOT
ATOM      1  O   UNL     1      65.074  68.278  65.049  0.00  0.00    +0.000 OA
ATOM      2  O   UNL     1      65.257  65.019  62.385  0.00  0.00    +0.000 OA
ATOM      3  O   UNL     1      65.097  68.712  67.254  0.00  0.00    +0.000 OA
ATOM      4  N   UNL     1      66.504  63.777  63.859  0.00  0.00    +0.000 N 
ATOM      5  N   UNL     1      68.494  61.832  66.122  0.00  0.00    +0.000 NA
ATOM      6  C   UNL     1      67.201  63.665  65.044  0.00  0.00    +0.000 A 
ATOM      7  C   UNL     1      67.366  61.629  63.979  0.00  0.00    +0.000 A 
ATOM      8  C   UNL     1      66.545  62.525  63.098  0.00  0.00    +0.000 C 
ATOM      9  C   UNL     1      66.636  65.951  65.557  0.00  0.00    +0.000 A 
ATOM     10  C   UNL     1      66.763  67.138  66.478  0.00  0.00    +0.000 C 
ATOM     11  C   UNL     1      67.749  62.316  65.125  0.00  0.00    +0.000 A 
ATOM     12  C   UNL     1      65.953  66.067  64.401  0.00  0.00    +0.000 A 
ATOM     13  C   UNL     1      67.769  60.311  63.813  0.00  0.00    +0.000 A 
ATOM     14  C   UNL     1      67.292  64.693  65.894  0.00  0.00    +0.000 A 
ATOM     15  C   UNL     1      65.861  64.915  63.448  0.00  0.00    +0.000 A 
ATOM     16  C   UNL     1      68.581  59.750  64.841  0.00  0.00    +0.000 A 
ATOM     17  C   UNL     1      65.273  67.324  63.985  0.00  0.00    +0.000 C 
ATOM     18  C   UNL     1      68.906  60.563  65.975  0.00  0.00    +0.000 A 
ATOM     19  C   UNL     1      65.559  68.090  66.296  0.00  0.00    +0.000 C 
ATOM     20  C   UNL     1      69.882  57.945  65.834  0.00  0.00    +0.000 A 
ATOM     21  C   UNL     1      69.083  58.431  64.801  0.00  0.00    +0.000 A 
ATOM     22  C   UNL     1      69.688  60.029  66.991  0.00  0.00    +0.000 A 
ATOM     23  C   UNL     1      70.177  58.723  66.941  0.00  0.00    +0.000 A 
ENDROOT
BRANCH  10  24
ATOM     24  O   UNL     1      66.767  66.670  67.834  0.00  0.00    +0.000 OA
ATOM     25  H   UNL     1      67.613  66.195  67.956  0.00  0.00    +0.000 HD
ENDBRANCH  10  24
BRANCH  10  26
ATOM     26  C   UNL     1      68.080  67.896  66.206  0.00  0.00    +0.000 C 
ATOM     27  C   UNL     1      68.856  68.288  67.460  0.00  0.00    +0.000 C 
ENDBRANCH  10  26
BRANCH  13  28
ATOM     28  C   UNL     1      67.373  59.557  62.567  0.00  0.00    +0.000 C 
ATOM     29  C   UNL     1      68.360  59.768  61.430  0.00  0.00    +0.000 C 
ENDBRANCH  13  28
BRANCH  20  30
ATOM     30  O   UNL     1      70.327  56.623  65.785  0.00  0.00    +0.000 OA
BRANCH  30  38
ATOM     31  O   UNL     1      71.609  57.190  63.942  0.00  0.00    +0.000 OA
ATOM     32  N   UNL     1      71.302  54.975  64.492  0.00  0.00    +0.000 N 
ATOM     33  C   UNL     1      70.897  52.268  63.458  0.00  0.00    +0.000 C 
ATOM     34  C   UNL     1      70.041  52.871  64.600  0.00  0.00    +0.000 C 
ATOM     35  C   UNL     1      71.439  53.431  62.589  0.00  0.00    +0.000 C 
ATOM     36  C   UNL     1      70.783  53.952  65.382  0.00  0.00    +0.000 C 
ATOM     37  C   UNL     1      72.150  54.497  63.417  0.00  0.00    +0.000 C 
ATOM     38  C   UNL     1      71.122  56.338  64.679  0.00  0.00    +0.000 C 
BRANCH  33  39
ATOM     39  N   UNL     1      70.128  51.275  62.643  0.00  0.00    +0.000 NA
ATOM     40  C   UNL     1      69.280  51.932  61.626  0.00  0.00    +0.000 C 
ATOM     41  C   UNL     1      71.010  50.281  61.996  0.00  0.00    +0.000 C 
ATOM     42  C   UNL     1      68.461  50.935  60.802  0.00  0.00    +0.000 C 
ATOM     43  C   UNL     1      70.236  49.243  61.180  0.00  0.00    +0.000 C 
ATOM     44  C   UNL     1      69.352  49.901  60.135  0.00  0.00    +0.000 C 
ENDBRANCH  33  39
ENDBRANCH  30  38
ENDBRANCH  20  30
TORSDOF 6
ENDMDL
MODEL 2
REMARK VINA RESULT:      -7.3      8.346     10.885
REMARK  Name = 
REMARK  8 active torsions:
REMARK  status: ('A' for Active; 'I' for Inactive)
REMARK    1  A    between atoms: O_1  and  C_21
REMARK    2  A    between atoms: O_1  and  C_38
REMARK    3  A    between atoms: O_4  and  C_26
REMARK    4  A    between atoms: N_7  and  C_11
REMARK    5  A    between atoms: C_26  and  C_33
REMARK    6  A    between atoms: C_29  and  C_37
REMARK    7  A    between atoms: C_33  and  C_42
REMARK    8  A    between atoms: C_37  and  C_43
REMARK                            x       y       z     vdW  Elec       q    Type
REMARK                         _______ _______ _______ _____ _____    ______ ____
ROOT
ATOM      1  O   UNL     1      59.159  56.830  59.231  0.00  0.00    +0.000 OA
ATOM      2  O   UNL     1      60.232  52.898  58.161  0.00  0.00    +0.000 OA
ATOM      3  O   UNL     1      59.693  58.423  60.722  0.00  0.00    +0.000 OA
ATOM      4  N   UNL     1      62.381  53.192  58.913  0.00  0.00    +0.000 N 
ATOM      5  N   UNL     1      65.759  53.638  60.033  0.00  0.00    +0.000 NA
ATOM      6  C   UNL     1      63.375  54.004  59.419  0.00  0.00    +0.000 A 
ATOM      7  C   UNL     1      64.293  51.906  59.167  0.00  0.00    +0.000 A 
ATOM      8  C   UNL     1      62.863  51.822  58.715  0.00  0.00    +0.000 C 
ATOM      9  C   UNL     1      61.826  55.850  59.417  0.00  0.00    +0.000 A 
ATOM     10  C   UNL     1      61.562  57.316  59.656  0.00  0.00    +0.000 C 
ATOM     11  C   UNL     1      64.582  53.201  59.579  0.00  0.00    +0.000 A 
ATOM     12  C   UNL     1      60.851  55.063  58.923  0.00  0.00    +0.000 A 
ATOM     13  C   UNL     1      65.288  50.940  59.219  0.00  0.00    +0.000 A 
ATOM     14  C   UNL     1      63.151  55.297  59.676  0.00  0.00    +0.000 A 
ATOM     15  C   UNL     1      61.110  53.617  58.629  0.00  0.00    +0.000 A 
ATOM     16  C   UNL     1      66.569  51.358  59.682  0.00  0.00    +0.000 A 
ATOM     17  C   UNL     1      59.482  55.563  58.621  0.00  0.00    +0.000 C 
ATOM     18  C   UNL     1      66.740  52.724  60.079  0.00  0.00    +0.000 A 
ATOM     19  C   UNL     1      60.059  57.551  59.932  0.00  0.00    +0.000 C 
ATOM     20  C   UNL     1      68.913  50.968  60.219  0.00  0.00    +0.000 A 
ATOM     21  C   UNL     1      67.683  50.494  59.770  0.00  0.00    +0.000 A 
ATOM     22  C   UNL     1      67.980  53.146  60.542  0.00  0.00    +0.000 A 
ATOM     23  C   UNL     1      69.072  52.282  60.626  0.00  0.00    +0.000 A 
ENDROOT
BRANCH  10  24
ATOM     24  O   UNL     1      62.304  57.736  60.810  0.00  0.00    +0.000 OA
ATOM     25  H   UNL     1      63.145  58.104  60.474  0.00  0.00    +0.000 HD
ENDBRANCH  10  24
BRANCH  10  26
ATOM     26  C   UNL     1      62.012  58.152  58.439  0.00  0.00    +0.000 C 
ATOM     27  C   UNL     1      62.343  59.607  58.759  0.00  0.00    +0.000 C 
ENDBRANCH  10  26
BRANCH  13  28
ATOM     28  C   UNL     1      64.991  49.532  58.762  0.00  0.00    +0.000 C 
ATOM     29  C   UNL     1      65.187  49.362  57.263  0.00  0.00    +0.000 C 
ENDBRANCH  13  28
BRANCH  20  30
ATOM     30  O   UNL     1      69.983  50.079  60.335  0.00  0.00    +0.000 OA
BRANCH  30  38
ATOM     31  O   UNL     1      69.921  49.779  58.040  0.00  0.00    +0.000 OA
ATOM     32  N   UNL     1      71.070  48.286  59.365  0.00  0.00    +0.000 N 
ATOM     33  C   UNL     1      71.775  45.476  59.778  0.00  0.00    +0.000 C 
ATOM     34  C   UNL     1      71.265  46.394  60.918  0.00  0.00    +0.000 C 
ATOM     35  C   UNL     1      71.229  46.020  58.433  0.00  0.00    +0.000 C 
ATOM     36  C   UNL     1      71.568  47.868  60.664  0.00  0.00    +0.000 C 
ATOM     37  C   UNL     1      71.534  47.502  58.236  0.00  0.00    +0.000 C 
ATOM     38  C   UNL     1      70.294  49.416  59.152  0.00  0.00    +0.000 C 
BRANCH  33  39
ATOM     39  N   UNL     1      71.393  44.045  59.995  0.00  0.00    +0.000 NA
ATOM     40  C   UNL     1      72.558  43.140  59.904  0.00  0.00    +0.000 C 
ATOM     41  C   UNL     1      70.698  43.841  61.283  0.00  0.00    +0.000 C 
ATOM     42  C   UNL     1      72.183  41.668  60.093  0.00  0.00    +0.000 C 
ATOM     43  C   UNL     1      70.277  42.387  61.508  0.00  0.00    +0.000 C 
ATOM     44  C   UNL     1      71.461  41.442  61.410  0.00  0.00    +0.000 C 
ENDBRANCH  33  39
ENDBRANCH  30  38
ENDBRANCH  20  30
TORSDOF 6
ENDMDL
MODEL 3
REMARK VINA RESULT:      -7.2      8.215     16.372
REMARK  Name = 
REMARK  8 active torsions:
REMARK  status: ('A' for Active; 'I' for Inactive)
REMARK    1  A    between atoms: O_1  and  C_21
REMARK    2  A    between atoms: O_1  and  C_38
REMARK    3  A    between atoms: O_4  and  C_26
REMARK    4  A    between atoms: N_7  and  C_11
REMARK    5  A    between atoms: C_26  and  C_33
REMARK    6  A    between atoms: C_29  and  C_37
REMARK    7  A    between atoms: C_33  and  C_42
REMARK    8  A    between atoms: C_37  and  C_43
REMARK                            x       y       z     vdW  Elec       q    Type
REMARK                         _______ _______ _______ _____ _____    ______ ____
ROOT
ATOM      1  O   UNL     1      67.938  44.897  54.399  0.00  0.00    +0.000 OA
ATOM      2  O   UNL     1      68.777  48.336  56.684  0.00  0.00    +0.000 OA
ATOM      3  O   UNL     1      66.339  43.340  54.141  0.00  0.00    +0.000 OA
ATOM      4  N   UNL     1      66.548  48.832  56.910  0.00  0.00    +0.000 N 
ATOM      5  N   UNL     1      63.072  49.658  57.237  0.00  0.00    +0.000 NA
ATOM      6  C   UNL     1      65.226  48.583  56.601  0.00  0.00    +0.000 A 
ATOM      7  C   UNL     1      65.250  50.398  58.021  0.00  0.00    +0.000 A 
ATOM      8  C   UNL     1      66.676  49.976  57.817  0.00  0.00    +0.000 C 
ATOM      9  C   UNL     1      65.926  46.737  55.220  0.00  0.00    +0.000 A 
ATOM     10  C   UNL     1      65.564  45.629  54.263  0.00  0.00    +0.000 C 
ATOM     11  C   UNL     1      64.403  49.567  57.296  0.00  0.00    +0.000 A 
ATOM     12  C   UNL     1      67.219  46.974  55.517  0.00  0.00    +0.000 A 
ATOM     13  C   UNL     1      64.706  51.429  58.774  0.00  0.00    +0.000 A 
ATOM     14  C   UNL     1      64.880  47.581  55.787  0.00  0.00    +0.000 A 
ATOM     15  C   UNL     1      67.601  48.103  56.424  0.00  0.00    +0.000 A 
ATOM     16  C   UNL     1      63.289  51.579  58.733  0.00  0.00    +0.000 A 
ATOM     17  C   UNL     1      68.338  46.163  54.964  0.00  0.00    +0.000 C 
ATOM     18  C   UNL     1      62.526  50.657  57.946  0.00  0.00    +0.000 A 
ATOM     19  C   UNL     1      66.645  44.525  54.287  0.00  0.00    +0.000 C 
ATOM     20  C   UNL     1      61.209  52.696  59.338  0.00  0.00    +0.000 A 
ATOM     21  C   UNL     1      62.596  52.594  59.429  0.00  0.00    +0.000 A 
ATOM     22  C   UNL     1      61.144  50.783  57.903  0.00  0.00    +0.000 A 
ATOM     23  C   UNL     1      60.470  51.789  58.597  0.00  0.00    +0.000 A 
ENDROOT
BRANCH  10  24
ATOM     24  O   UNL     1      64.318  45.051  54.677  0.00  0.00    +0.000 OA
ATOM     25  H   UNL     1      63.818  45.767  55.118  0.00  0.00    +0.000 HD
ENDBRANCH  10  24
BRANCH  10  26
ATOM     26  C   UNL     1      65.408  46.182  52.830  0.00  0.00    +0.000 C 
ATOM     27  C   UNL     1      64.166  45.690  52.093  0.00  0.00    +0.000 C 
ENDBRANCH  10  26
BRANCH  13  28
ATOM     28  C   UNL     1      65.614  52.347  59.556  0.00  0.00    +0.000 C 
ATOM     29  C   UNL     1      66.112  53.513  58.716  0.00  0.00    +0.000 C 
ENDBRANCH  13  28
BRANCH  20  30
ATOM     30  O   UNL     1      60.550  53.683  60.072  0.00  0.00    +0.000 OA
BRANCH  30  38
ATOM     31  O   UNL     1      60.080  55.269  58.451  0.00  0.00    +0.000 OA
ATOM     32  N   UNL     1      61.398  55.824  60.256  0.00  0.00    +0.000 N 
ATOM     33  C   UNL     1      63.726  57.347  61.164  0.00  0.00    +0.000 C 
ATOM     34  C   UNL     1      63.486  55.866  61.548  0.00  0.00    +0.000 C 
ATOM     35  C   UNL     1      63.009  57.624  59.818  0.00  0.00    +0.000 C 
ATOM     36  C   UNL     1      62.008  55.487  61.531  0.00  0.00    +0.000 C 
ATOM     37  C   UNL     1      61.542  57.207  59.842  0.00  0.00    +0.000 C 
ATOM     38  C   UNL     1      60.626  54.951  59.504  0.00  0.00    +0.000 C 
BRANCH  33  39
ATOM     39  N   UNL     1      65.183  57.682  61.097  0.00  0.00    +0.000 NA
ATOM     40  C   UNL     1      66.000  56.523  60.679  0.00  0.00    +0.000 C 
ATOM     41  C   UNL     1      65.453  58.832  60.209  0.00  0.00    +0.000 C 
ATOM     42  C   UNL     1      67.498  56.836  60.634  0.00  0.00    +0.000 C 
ATOM     43  C   UNL     1      66.936  59.204  60.151  0.00  0.00    +0.000 C 
ATOM     44  C   UNL     1      67.791  58.021  59.731  0.00  0.00    +0.000 C 
ENDBRANCH  33  39
ENDBRANCH  30  38
ENDBRANCH  20  30
TORSDOF 6
ENDMDL
MODEL 4
REMARK VINA RESULT:      -7.2     10.581     14.600
REMARK  Name = 
REMARK  8 active torsions:
REMARK  status: ('A' for Active; 'I' for Inactive)
REMARK    1  A    between atoms: O_1  and  C_21
REMARK    2  A    between atoms: O_1  and  C_38
REMARK    3  A    between atoms: O_4  and  C_26
REMARK    4  A    between atoms: N_7  and  C_11
REMARK    5  A    between atoms: C_26  and  C_33
REMARK    6  A    between atoms: C_29  and  C_37
REMARK    7  A    between atoms: C_33  and  C_42
REMARK    8  A    between atoms: C_37  and  C_43
REMARK                            x       y       z     vdW  Elec       q    Type
REMARK                         _______ _______ _______ _____ _____    ______ ____
ROOT
ATOM      1  O   UNL     1      54.726  62.289  63.623  0.00  0.00    +0.000 OA
ATOM      2  O   UNL     1      56.223  63.359  67.413  0.00  0.00    +0.000 OA
ATOM      3  O   UNL     1      54.690  63.037  61.504  0.00  0.00    +0.000 OA
ATOM      4  N   UNL     1      57.998  64.482  66.487  0.00  0.00    +0.000 N 
ATOM      5  N   UNL     1      60.808  66.202  65.069  0.00  0.00    +0.000 NA
ATOM      6  C   UNL     1      58.744  64.847  65.385  0.00  0.00    +0.000 A 
ATOM      7  C   UNL     1      59.765  65.789  67.224  0.00  0.00    +0.000 A 
ATOM      8  C   UNL     1      58.565  65.035  67.720  0.00  0.00    +0.000 C 
ATOM      9  C   UNL     1      57.218  63.619  63.982  0.00  0.00    +0.000 A 
ATOM     10  C   UNL     1      56.840  63.121  62.609  0.00  0.00    +0.000 C 
ATOM     11  C   UNL     1      59.859  65.669  65.843  0.00  0.00    +0.000 A 
ATOM     12  C   UNL     1      56.485  63.258  65.053  0.00  0.00    +0.000 A 
ATOM     13  C   UNL     1      60.721  66.527  67.907  0.00  0.00    +0.000 A 
ATOM     14  C   UNL     1      58.404  64.451  64.155  0.00  0.00    +0.000 A 
ATOM     15  C   UNL     1      56.875  63.699  66.431  0.00  0.00    +0.000 A 
ATOM     16  C   UNL     1      61.766  67.106  67.129  0.00  0.00    +0.000 A 
ATOM     17  C   UNL     1      55.274  62.400  64.953  0.00  0.00    +0.000 C 
ATOM     18  C   UNL     1      61.751  66.909  65.710  0.00  0.00    +0.000 A 
ATOM     19  C   UNL     1      55.323  62.834  62.542  0.00  0.00    +0.000 C 
ATOM     20  C   UNL     1      63.819  68.393  66.872  0.00  0.00    +0.000 A 
ATOM     21  C   UNL     1      62.819  67.864  67.686  0.00  0.00    +0.000 A 
ATOM     22  C   UNL     1      62.757  67.474  64.937  0.00  0.00    +0.000 A 
ATOM     23  C   UNL     1      63.791  68.223  65.498  0.00  0.00    +0.000 A 
ENDROOT
BRANCH  10  24
ATOM     24  O   UNL     1      57.151  64.140  61.648  0.00  0.00    +0.000 OA
ATOM     25  H   UNL     1      57.012  64.995  62.103  0.00  0.00    +0.000 HD
ENDBRANCH  10  24
BRANCH  10  26
ATOM     26  C   UNL     1      57.634  61.844  62.260  0.00  0.00    +0.000 C 
ATOM     27  C   UNL     1      58.283  61.861  60.878  0.00  0.00    +0.000 C 
ENDBRANCH  10  26
BRANCH  13  28
ATOM     28  C   UNL     1      60.638  66.655  69.409  0.00  0.00    +0.000 C 
ATOM     29  C   UNL     1      61.293  65.482  70.122  0.00  0.00    +0.000 C 
ENDBRANCH  13  28
BRANCH  20  30
ATOM     30  O   UNL     1      64.821  69.175  67.448  0.00  0.00    +0.000 OA
BRANCH  30  38
ATOM     31  O   UNL     1      66.360  67.444  67.472  0.00  0.00    +0.000 OA
ATOM     32  N   UNL     1      67.052  69.592  67.014  0.00  0.00    +0.000 N 
ATOM     33  C   UNL     1      69.176  71.570  67.383  0.00  0.00    +0.000 C 
ATOM     34  C   UNL     1      67.676  71.893  67.601  0.00  0.00    +0.000 C 
ATOM     35  C   UNL     1      69.387  70.053  67.616  0.00  0.00    +0.000 C 
ATOM     36  C   UNL     1      66.757  70.995  66.778  0.00  0.00    +0.000 C 
ATOM     37  C   UNL     1      68.430  69.197  66.792  0.00  0.00    +0.000 C 
ATOM     38  C   UNL     1      66.098  68.634  67.322  0.00  0.00    +0.000 C 
BRANCH  33  39
ATOM     39  N   UNL     1      70.062  72.396  68.263  0.00  0.00    +0.000 NA
ATOM     40  C   UNL     1      71.494  72.102  68.042  0.00  0.00    +0.000 C 
ATOM     41  C   UNL     1      69.817  73.845  68.102  0.00  0.00    +0.000 C 
ATOM     42  C   UNL     1      72.416  72.914  68.954  0.00  0.00    +0.000 C 
ATOM     43  C   UNL     1      70.697  74.702  69.014  0.00  0.00    +0.000 C 
ATOM     44  C   UNL     1      72.171  74.406  68.805  0.00  0.00    +0.000 C 
ENDBRANCH  33  39
ENDBRANCH  30  38
ENDBRANCH  20  30
TORSDOF 6
ENDMDL
MODEL 5
REMARK VINA RESULT:      -7.0     22.028     26.878
REMARK  Name = 
REMARK  8 active torsions:
REMARK  status: ('A' for Active; 'I' for Inactive)
REMARK    1  A    between atoms: O_1  and  C_21
REMARK    2  A    between atoms: O_1  and  C_38
REMARK    3  A    between atoms: O_4  and  C_26
REMARK    4  A    between atoms: N_7  and  C_11
REMARK    5  A    between atoms: C_26  and  C_33
REMARK    6  A    between atoms: C_29  and  C_37
REMARK    7  A    between atoms: C_33  and  C_42
REMARK    8  A    between atoms: C_37  and  C_43
REMARK                            x       y       z     vdW  Elec       q    Type
REMARK                         _______ _______ _______ _____ _____    ______ ____
ROOT
ATOM      1  O   UNL     1      54.669  60.032  84.625  0.00  0.00    +0.000 OA
ATOM      2  O   UNL     1      56.461  63.439  86.337  0.00  0.00    +0.000 OA
ATOM      3  O   UNL     1      52.978  59.472  83.254  0.00  0.00    +0.000 OA
ATOM      4  N   UNL     1      55.842  64.758  84.564  0.00  0.00    +0.000 N 
ATOM      5  N   UNL     1      54.930  66.833  81.783  0.00  0.00    +0.000 NA
ATOM      6  C   UNL     1      55.286  64.898  83.308  0.00  0.00    +0.000 A 
ATOM      7  C   UNL     1      55.957  66.998  83.979  0.00  0.00    +0.000 A 
ATOM      8  C   UNL     1      56.303  66.047  85.088  0.00  0.00    +0.000 C 
ATOM      9  C   UNL     1      54.858  62.527  83.266  0.00  0.00    +0.000 A 
ATOM     10  C   UNL     1      54.357  61.318  82.517  0.00  0.00    +0.000 C 
ATOM     11  C   UNL     1      55.357  66.306  82.934  0.00  0.00    +0.000 A 
ATOM     12  C   UNL     1      55.399  62.383  84.491  0.00  0.00    +0.000 A 
ATOM     13  C   UNL     1      56.145  68.369  83.865  0.00  0.00    +0.000 A 
ATOM     14  C   UNL     1      54.800  63.846  82.644  0.00  0.00    +0.000 A 
ATOM     15  C   UNL     1      55.950  63.565  85.229  0.00  0.00    +0.000 A 
ATOM     16  C   UNL     1      55.720  68.979  82.650  0.00  0.00    +0.000 A 
ATOM     17  C   UNL     1      55.506  61.068  85.179  0.00  0.00    +0.000 C 
ATOM     18  C   UNL     1      55.114  68.155  81.646  0.00  0.00    +0.000 A 
ATOM     19  C   UNL     1      53.930  60.212  83.509  0.00  0.00    +0.000 C 
ATOM     20  C   UNL     1      55.440  70.892  81.166  0.00  0.00    +0.000 A 
ATOM     21  C   UNL     1      55.865  70.357  82.381  0.00  0.00    +0.000 A 
ATOM     22  C   UNL     1      54.686  68.735  80.459  0.00  0.00    +0.000 A 
ATOM     23  C   UNL     1      54.834  70.099  80.206  0.00  0.00    +0.000 A 
ENDROOT
BRANCH  10  24
ATOM     24  O   UNL     1      53.211  61.697  81.742  0.00  0.00    +0.000 OA
ATOM     25  H   UNL     1      52.429  61.394  82.245  0.00  0.00    +0.000 HD
ENDBRANCH  10  24
BRANCH  10  26
ATOM     26  C   UNL     1      55.449  60.780  81.567  0.00  0.00    +0.000 C 
ATOM     27  C   UNL     1      54.979  59.675  80.625  0.00  0.00    +0.000 C 
ENDBRANCH  10  26
BRANCH  13  28
ATOM     28  C   UNL     1      56.806  69.131  84.987  0.00  0.00    +0.000 C 
ATOM     29  C   UNL     1      58.321  69.153  84.851  0.00  0.00    +0.000 C 
ENDBRANCH  13  28
BRANCH  20  30
ATOM     30  O   UNL     1      55.559  72.265  80.949  0.00  0.00    +0.000 OA
BRANCH  30  38
ATOM     31  O   UNL     1      57.777  72.496  80.323  0.00  0.00    +0.000 OA
ATOM     32  N   UNL     1      57.001  73.545  82.221  0.00  0.00    +0.000 N 
ATOM     33  C   UNL     1      57.628  74.326  84.971  0.00  0.00    +0.000 C 
ATOM     34  C   UNL     1      56.298  73.640  84.572  0.00  0.00    +0.000 C 
ATOM     35  C   UNL     1      58.713  73.922  83.940  0.00  0.00    +0.000 C 
ATOM     36  C   UNL     1      55.915  73.901  83.118  0.00  0.00    +0.000 C 
ATOM     37  C   UNL     1      58.275  74.179  82.501  0.00  0.00    +0.000 C 
ATOM     38  C   UNL     1      56.856  72.748  81.095  0.00  0.00    +0.000 C 
BRANCH  33  39
ATOM     39  N   UNL     1      58.038  73.988  86.370  0.00  0.00    +0.000 NA
ATOM     40  C   UNL     1      58.775  72.709  86.440  0.00  0.00    +0.000 C 
ATOM     41  C   UNL     1      58.837  75.064  86.994  0.00  0.00    +0.000 C 
ATOM     42  C   UNL     1      59.176  72.330  87.867  0.00  0.00    +0.000 C 
ATOM     43  C   UNL     1      59.241  74.745  88.435  0.00  0.00    +0.000 C 
ATOM     44  C   UNL     1      59.994  73.429  88.525  0.00  0.00    +0.000 C 
ENDBRANCH  33  39
ENDBRANCH  30  38
ENDBRANCH  20  30
TORSDOF 6
ENDMDL
MODEL 6
REMARK VINA RESULT:      -6.8     27.420     29.302
REMARK  Name = 
REMARK  8 active torsions:
REMARK  status: ('A' for Active; 'I' for Inactive)
REMARK    1  A    between atoms: O_1  and  C_21
REMARK    2  A    between atoms: O_1  and  C_38
REMARK    3  A    between atoms: O_4  and  C_26
REMARK    4  A    between atoms: N_7  and  C_11
REMARK    5  A    between atoms: C_26  and  C_33
REMARK    6  A    between atoms: C_29  and  C_37
REMARK    7  A    between atoms: C_33  and  C_42
REMARK    8  A    between atoms: C_37  and  C_43
REMARK                            x       y       z     vdW  Elec       q    Type
REMARK                         _______ _______ _______ _____ _____    ______ ____
ROOT
ATOM      1  O   UNL     1      41.248  49.596  80.691  0.00  0.00    +0.000 OA
ATOM      2  O   UNL     1      43.501  52.934  79.451  0.00  0.00    +0.000 OA
ATOM      3  O   UNL     1      41.535  47.528  81.520  0.00  0.00    +0.000 OA
ATOM      4  N   UNL     1      45.203  52.430  80.907  0.00  0.00    +0.000 N 
ATOM      5  N   UNL     1      47.856  51.695  83.207  0.00  0.00    +0.000 NA
ATOM      6  C   UNL     1      45.717  51.666  81.935  0.00  0.00    +0.000 A 
ATOM      7  C   UNL     1      47.317  53.238  81.409  0.00  0.00    +0.000 A 
ATOM      8  C   UNL     1      46.151  53.468  80.492  0.00  0.00    +0.000 C 
ATOM      9  C   UNL     1      43.687  50.367  81.943  0.00  0.00    +0.000 A 
ATOM     10  C   UNL     1      42.859  49.266  82.558  0.00  0.00    +0.000 C 
ATOM     11  C   UNL     1      47.047  52.170  82.257  0.00  0.00    +0.000 A 
ATOM     12  C   UNL     1      43.179  51.110  80.940  0.00  0.00    +0.000 A 
ATOM     13  C   UNL     1      48.532  53.900  81.519  0.00  0.00    +0.000 A 
ATOM     14  C   UNL     1      45.017  50.659  82.467  0.00  0.00    +0.000 A 
ATOM     15  C   UNL     1      43.964  52.242  80.352  0.00  0.00    +0.000 A 
ATOM     16  C   UNL     1      49.427  53.441  82.528  0.00  0.00    +0.000 A 
ATOM     17  C   UNL     1      41.825  50.879  80.368  0.00  0.00    +0.000 C 
ATOM     18  C   UNL     1      49.031  52.329  83.339  0.00  0.00    +0.000 A 
ATOM     19  C   UNL     1      41.843  48.721  81.529  0.00  0.00    +0.000 C 
ATOM     20  C   UNL     1      51.513  53.541  83.784  0.00  0.00    +0.000 A 
ATOM     21  C   UNL     1      50.688  54.029  82.772  0.00  0.00    +0.000 A 
ATOM     22  C   UNL     1      49.895  51.864  84.322  0.00  0.00    +0.000 A 
ATOM     23  C   UNL     1      51.139  52.451  84.552  0.00  0.00    +0.000 A 
ENDROOT
BRANCH  10  24
ATOM     24  O   UNL     1      43.732  48.194  82.943  0.00  0.00    +0.000 OA
ATOM     25  H   UNL     1      44.322  48.035  82.178  0.00  0.00    +0.000 HD
ENDBRANCH  10  24
BRANCH  10  26
ATOM     26  C   UNL     1      42.117  49.782  83.809  0.00  0.00    +0.000 C 
ATOM     27  C   UNL     1      42.454  49.036  85.097  0.00  0.00    +0.000 C 
ENDBRANCH  10  26
BRANCH  13  28
ATOM     28  C   UNL     1      48.833  55.069  80.613  0.00  0.00    +0.000 C 
ATOM     29  C   UNL     1      49.118  54.630  79.184  0.00  0.00    +0.000 C 
ENDBRANCH  13  28
BRANCH  20  30
ATOM     30  O   UNL     1      52.771  54.116  83.972  0.00  0.00    +0.000 OA
BRANCH  30  38
ATOM     31  O   UNL     1      51.925  55.259  85.800  0.00  0.00    +0.000 OA
ATOM     32  N   UNL     1      53.917  55.919  84.850  0.00  0.00    +0.000 N 
ATOM     33  C   UNL     1      55.602  58.198  84.123  0.00  0.00    +0.000 C 
ATOM     34  C   UNL     1      55.305  57.026  83.154  0.00  0.00    +0.000 C 
ATOM     35  C   UNL     1      54.432  58.302  85.134  0.00  0.00    +0.000 C 
ATOM     36  C   UNL     1      54.986  55.726  83.886  0.00  0.00    +0.000 C 
ATOM     37  C   UNL     1      54.135  56.974  85.822  0.00  0.00    +0.000 C 
ATOM     38  C   UNL     1      52.796  55.108  84.948  0.00  0.00    +0.000 C 
BRANCH  33  39
ATOM     39  N   UNL     1      55.825  59.487  83.395  0.00  0.00    +0.000 NA
ATOM     40  C   UNL     1      55.540  59.364  81.949  0.00  0.00    +0.000 C 
ATOM     41  C   UNL     1      55.036  60.597  83.969  0.00  0.00    +0.000 C 
ATOM     42  C   UNL     1      55.791  60.664  81.181  0.00  0.00    +0.000 C 
ATOM     43  C   UNL     1      55.273  61.928  83.252  0.00  0.00    +0.000 C 
ATOM     44  C   UNL     1      54.993  61.817  81.764  0.00  0.00    +0.000 C 
ENDBRANCH  33  39
ENDBRANCH  30  38
ENDBRANCH  20  30
TORSDOF 6
ENDMDL
MODEL 7
REMARK VINA RESULT:      -6.7     10.504     14.947
REMARK  Name = 
REMARK  8 active torsions:
REMARK  status: ('A' for Active; 'I' for Inactive)
REMARK    1  A    between atoms: O_1  and  C_21
REMARK    2  A    between atoms: O_1  and  C_38
REMARK    3  A    between atoms: O_4  and  C_26
REMARK    4  A    between atoms: N_7  and  C_11
REMARK    5  A    between atoms: C_26  and  C_33
REMARK    6  A    between atoms: C_29  and  C_37
REMARK    7  A    between atoms: C_33  and  C_42
REMARK    8  A    between atoms: C_37  and  C_43
REMARK                            x       y       z     vdW  Elec       q    Type
REMARK                         _______ _______ _______ _____ _____    ______ ____
ROOT
ATOM      1  O   UNL     1      55.947  68.784  68.783  0.00  0.00    +0.000 OA
ATOM      2  O   UNL     1      58.941  71.748  68.804  0.00  0.00    +0.000 OA
ATOM      3  O   UNL     1      55.495  66.790  67.852  0.00  0.00    +0.000 OA
ATOM      4  N   UNL     1      60.586  70.208  68.367  0.00  0.00    +0.000 N 
ATOM      5  N   UNL     1      63.182  67.815  67.732  0.00  0.00    +0.000 NA
ATOM      6  C   UNL     1      60.991  68.899  68.202  0.00  0.00    +0.000 A 
ATOM      7  C   UNL     1      62.864  70.215  67.940  0.00  0.00    +0.000 A 
ATOM      8  C   UNL     1      61.710  71.135  68.217  0.00  0.00    +0.000 C 
ATOM      9  C   UNL     1      58.722  68.180  68.577  0.00  0.00    +0.000 A 
ATOM     10  C   UNL     1      57.733  67.052  68.734  0.00  0.00    +0.000 C 
ATOM     11  C   UNL     1      62.425  68.897  67.935  0.00  0.00    +0.000 A 
ATOM     12  C   UNL     1      58.319  69.456  68.739  0.00  0.00    +0.000 A 
ATOM     13  C   UNL     1      64.207  70.484  67.713  0.00  0.00    +0.000 A 
ATOM     14  C   UNL     1      60.123  67.887  68.297  0.00  0.00    +0.000 A 
ATOM     15  C   UNL     1      59.297  70.586  68.639  0.00  0.00    +0.000 A 
ATOM     16  C   UNL     1      65.062  69.363  67.505  0.00  0.00    +0.000 A 
ATOM     17  C   UNL     1      56.910  69.827  69.041  0.00  0.00    +0.000 C 
ATOM     18  C   UNL     1      64.486  68.051  67.523  0.00  0.00    +0.000 A 
ATOM     19  C   UNL     1      56.305  67.541  68.398  0.00  0.00    +0.000 C 
ATOM     20  C   UNL     1      67.237  68.341  67.099  0.00  0.00    +0.000 A 
ATOM     21  C   UNL     1      66.452  69.478  67.283  0.00  0.00    +0.000 A 
ATOM     22  C   UNL     1      65.305  66.948  67.313  0.00  0.00    +0.000 A 
ATOM     23  C   UNL     1      66.676  67.075  67.093  0.00  0.00    +0.000 A 
ENDROOT
BRANCH  10  24
ATOM     24  O   UNL     1      58.079  66.005  67.817  0.00  0.00    +0.000 OA
ATOM     25  H   UNL     1      57.584  66.188  66.994  0.00  0.00    +0.000 HD
ENDBRANCH  10  24
BRANCH  10  26
ATOM     26  C   UNL     1      57.773  66.494  70.172  0.00  0.00    +0.000 C 
ATOM     27  C   UNL     1      56.986  65.202  70.372  0.00  0.00    +0.000 C 
ENDBRANCH  10  26
BRANCH  13  28
ATOM     28  C   UNL     1      64.700  71.910  67.728  0.00  0.00    +0.000 C 
ATOM     29  C   UNL     1      65.130  72.353  69.118  0.00  0.00    +0.000 C 
ENDBRANCH  13  28
BRANCH  20  30
ATOM     30  O   UNL     1      68.599  68.491  66.838  0.00  0.00    +0.000 OA
BRANCH  30  38
ATOM     31  O   UNL     1      69.441  68.943  68.948  0.00  0.00    +0.000 OA
ATOM     32  N   UNL     1      69.721  70.469  67.247  0.00  0.00    +0.000 N 
ATOM     33  C   UNL     1      69.787  73.309  66.543  0.00  0.00    +0.000 C 
ATOM     34  C   UNL     1      68.992  72.257  65.729  0.00  0.00    +0.000 C 
ATOM     35  C   UNL     1      69.923  72.797  67.999  0.00  0.00    +0.000 C 
ATOM     36  C   UNL     1      69.578  70.853  65.853  0.00  0.00    +0.000 C 
ATOM     37  C   UNL     1      70.490  71.383  68.071  0.00  0.00    +0.000 C 
ATOM     38  C   UNL     1      69.269  69.270  67.777  0.00  0.00    +0.000 C 
BRANCH  33  39
ATOM     39  N   UNL     1      69.150  74.662  66.486  0.00  0.00    +0.000 NA
ATOM     40  C   UNL     1      67.708  74.611  66.807  0.00  0.00    +0.000 C 
ATOM     41  C   UNL     1      69.827  75.636  67.368  0.00  0.00    +0.000 C 
ATOM     42  C   UNL     1      67.032  75.982  66.723  0.00  0.00    +0.000 C 
ATOM     43  C   UNL     1      69.204  77.032  67.300  0.00  0.00    +0.000 C 
ATOM     44  C   UNL     1      67.720  76.997  67.620  0.00  0.00    +0.000 C 
ENDBRANCH  33  39
ENDBRANCH  30  38
ENDBRANCH  20  30
TORSDOF 6
ENDMDL
MODEL 8
REMARK VINA RESULT:      -6.5     26.670     31.194
REMARK  Name = 
REMARK  8 active torsions:
REMARK  status: ('A' for Active; 'I' for Inactive)
REMARK    1  A    between atoms: O_1  and  C_21
REMARK    2  A    between atoms: O_1  and  C_38
REMARK    3  A    between atoms: O_4  and  C_26
REMARK    4  A    between atoms: N_7  and  C_11
REMARK    5  A    between atoms: C_26  and  C_33
REMARK    6  A    between atoms: C_29  and  C_37
REMARK    7  A    between atoms: C_33  and  C_42
REMARK    8  A    between atoms: C_37  and  C_43
REMARK                            x       y       z     vdW  Elec       q    Type
REMARK                         _______ _______ _______ _____ _____    ______ ____
ROOT
ATOM      1  O   UNL     1      54.586  35.666  84.625  0.00  0.00    +0.000 OA
ATOM      2  O   UNL     1      51.325  35.295  81.983  0.00  0.00    +0.000 OA
ATOM      3  O   UNL     1      56.833  35.697  84.605  0.00  0.00    +0.000 OA
ATOM      4  N   UNL     1      52.516  36.219  80.252  0.00  0.00    +0.000 N 
ATOM      5  N   UNL     1      54.336  37.705  77.542  0.00  0.00    +0.000 NA
ATOM      6  C   UNL     1      53.652  36.839  79.772  0.00  0.00    +0.000 A 
ATOM      7  C   UNL     1      52.201  36.635  77.993  0.00  0.00    +0.000 A 
ATOM      8  C   UNL     1      51.521  36.039  79.191  0.00  0.00    +0.000 C 
ATOM      9  C   UNL     1      54.612  36.719  81.979  0.00  0.00    +0.000 A 
ATOM     10  C   UNL     1      55.751  37.045  82.912  0.00  0.00    +0.000 C 
ATOM     11  C   UNL     1      53.459  37.105  78.351  0.00  0.00    +0.000 A 
ATOM     12  C   UNL     1      53.506  36.113  82.454  0.00  0.00    +0.000 A 
ATOM     13  C   UNL     1      51.774  36.776  76.680  0.00  0.00    +0.000 A 
ATOM     14  C   UNL     1      54.689  37.101  80.573  0.00  0.00    +0.000 A 
ATOM     15  C   UNL     1      52.343  35.829  81.554  0.00  0.00    +0.000 A 
ATOM     16  C   UNL     1      52.666  37.423  75.777  0.00  0.00    +0.000 A 
ATOM     17  C   UNL     1      53.352  35.710  83.878  0.00  0.00    +0.000 C 
ATOM     18  C   UNL     1      53.938  37.863  76.270  0.00  0.00    +0.000 A 
ATOM     19  C   UNL     1      55.767  36.060  84.103  0.00  0.00    +0.000 C 
ATOM     20  C   UNL     1      53.273  38.306  73.589  0.00  0.00    +0.000 A 
ATOM     21  C   UNL     1      52.362  37.656  74.418  0.00  0.00    +0.000 A 
ATOM     22  C   UNL     1      54.823  38.487  75.401  0.00  0.00    +0.000 A 
ATOM     23  C   UNL     1      54.511  38.710  74.060  0.00  0.00    +0.000 A 
ENDROOT
BRANCH  10  24
ATOM     24  O   UNL     1      56.987  36.909  82.197  0.00  0.00    +0.000 OA
ATOM     25  H   UNL     1      57.153  37.775  81.772  0.00  0.00    +0.000 HD
ENDBRANCH  10  24
BRANCH  10  26
ATOM     26  C   UNL     1      55.628  38.494  83.429  0.00  0.00    +0.000 C 
ATOM     27  C   UNL     1      56.702  39.445  82.908  0.00  0.00    +0.000 C 
ENDBRANCH  10  26
BRANCH  13  28
ATOM     28  C   UNL     1      50.405  36.282  76.280  0.00  0.00    +0.000 C 
ATOM     29  C   UNL     1      49.339  37.356  76.436  0.00  0.00    +0.000 C 
ENDBRANCH  13  28
BRANCH  20  30
ATOM     30  O   UNL     1      52.960  38.482  72.240  0.00  0.00    +0.000 OA
BRANCH  30  38
ATOM     31  O   UNL     1      54.203  40.386  71.797  0.00  0.00    +0.000 OA
ATOM     32  N   UNL     1      51.948  40.351  71.333  0.00  0.00    +0.000 N 
ATOM     33  C   UNL     1      49.462  41.896  71.332  0.00  0.00    +0.000 C 
ATOM     34  C   UNL     1      49.563  40.462  71.910  0.00  0.00    +0.000 C 
ATOM     35  C   UNL     1      50.864  42.552  71.411  0.00  0.00    +0.000 C 
ATOM     36  C   UNL     1      50.679  39.645  71.264  0.00  0.00    +0.000 C 
ATOM     37  C   UNL     1      51.949  41.689  70.774  0.00  0.00    +0.000 C 
ATOM     38  C   UNL     1      53.130  39.788  71.789  0.00  0.00    +0.000 C 
BRANCH  33  39
ATOM     39  N   UNL     1      48.425  42.714  72.036  0.00  0.00    +0.000 NA
ATOM     40  C   UNL     1      47.332  43.124  71.129  0.00  0.00    +0.000 C 
ATOM     41  C   UNL     1      47.866  42.016  73.213  0.00  0.00    +0.000 C 
ATOM     42  C   UNL     1      46.276  43.987  71.823  0.00  0.00    +0.000 C 
ATOM     43  C   UNL     1      46.822  42.850  73.959  0.00  0.00    +0.000 C 
ATOM     44  C   UNL     1      45.696  43.286  73.039  0.00  0.00    +0.000 C 
ENDBRANCH  33  39
ENDBRANCH  30  38
ENDBRANCH  20  30
TORSDOF 6
ENDMDL
MODEL 9
REMARK VINA RESULT:      -6.4     26.969     28.070
REMARK  Name = 
REMARK  8 active torsions:
REMARK  status: ('A' for Active; 'I' for Inactive)
REMARK    1  A    between atoms: O_1  and  C_21
REMARK    2  A    between atoms: O_1  and  C_38
REMARK    3  A    between atoms: O_4  and  C_26
REMARK    4  A    between atoms: N_7  and  C_11
REMARK    5  A    between atoms: C_26  and  C_33
REMARK    6  A    between atoms: C_29  and  C_37
REMARK    7  A    between atoms: C_33  and  C_42
REMARK    8  A    between atoms: C_37  and  C_43
REMARK                            x       y       z     vdW  Elec       q    Type
REMARK                         _______ _______ _______ _____ _____    ______ ____
ROOT
ATOM      1  O   UNL     1      55.336  57.002  85.003  0.00  0.00    +0.000 OA
ATOM      2  O   UNL     1      52.885  53.579  85.153  0.00  0.00    +0.000 OA
ATOM      3  O   UNL     1      56.116  58.507  83.528  0.00  0.00    +0.000 OA
ATOM      4  N   UNL     1      51.635  54.293  83.366  0.00  0.00    +0.000 N 
ATOM      5  N   UNL     1      49.633  55.409  80.606  0.00  0.00    +0.000 NA
ATOM      6  C   UNL     1      51.316  55.260  82.434  0.00  0.00    +0.000 A 
ATOM      7  C   UNL     1      49.901  53.480  82.059  0.00  0.00    +0.000 A 
ATOM      8  C   UNL     1      50.787  53.108  83.213  0.00  0.00    +0.000 C 
ATOM      9  C   UNL     1      53.038  56.673  83.354  0.00  0.00    +0.000 A 
ATOM     10  C   UNL     1      53.757  57.998  83.358  0.00  0.00    +0.000 C 
ATOM     11  C   UNL     1      50.224  54.755  81.609  0.00  0.00    +0.000 A 
ATOM     12  C   UNL     1      53.354  55.733  84.267  0.00  0.00    +0.000 A 
ATOM     13  C   UNL     1      48.879  52.780  81.434  0.00  0.00    +0.000 A 
ATOM     14  C   UNL     1      51.968  56.426  82.394  0.00  0.00    +0.000 A 
ATOM     15  C   UNL     1      52.615  54.431  84.313  0.00  0.00    +0.000 A 
ATOM     16  C   UNL     1      48.205  53.439  80.366  0.00  0.00    +0.000 A 
ATOM     17  C   UNL     1      54.422  55.922  85.286  0.00  0.00    +0.000 C 
ATOM     18  C   UNL     1      48.633  54.755  79.996  0.00  0.00    +0.000 A 
ATOM     19  C   UNL     1      55.173  57.838  83.955  0.00  0.00    +0.000 C 
ATOM     20  C   UNL     1      46.507  53.563  78.623  0.00  0.00    +0.000 A 
ATOM     21  C   UNL     1      47.133  52.861  79.650  0.00  0.00    +0.000 A 
ATOM     22  C   UNL     1      47.993  55.408  78.950  0.00  0.00    +0.000 A 
ATOM     23  C   UNL     1      46.936  54.826  78.250  0.00  0.00    +0.000 A 
ENDROOT
BRANCH  10  24
ATOM     24  O   UNL     1      53.886  58.456  82.005  0.00  0.00    +0.000 OA
ATOM     25  H   UNL     1      53.039  58.893  81.783  0.00  0.00    +0.000 HD
ENDBRANCH  10  24
BRANCH  10  26
ATOM     26  C   UNL     1      52.959  59.044  84.167  0.00  0.00    +0.000 C 
ATOM     27  C   UNL     1      52.947  60.442  83.556  0.00  0.00    +0.000 C 
ENDBRANCH  10  26
BRANCH  13  28
ATOM     28  C   UNL     1      48.509  51.400  81.921  0.00  0.00    +0.000 C 
ATOM     29  C   UNL     1      47.460  51.441  83.022  0.00  0.00    +0.000 C 
ENDBRANCH  13  28
BRANCH  20  30
ATOM     30  O   UNL     1      45.479  52.948  77.907  0.00  0.00    +0.000 OA
BRANCH  30  38
ATOM     31  O   UNL     1      43.980  53.961  79.354  0.00  0.00    +0.000 OA
ATOM     32  N   UNL     1      43.204  52.723  77.573  0.00  0.00    +0.000 N 
ATOM     33  C   UNL     1      41.149  50.855  76.649  0.00  0.00    +0.000 C 
ATOM     34  C   UNL     1      42.661  50.642  76.388  0.00  0.00    +0.000 C 
ATOM     35  C   UNL     1      40.993  51.717  77.928  0.00  0.00    +0.000 C 
ATOM     36  C   UNL     1      43.444  51.952  76.366  0.00  0.00    +0.000 C 
ATOM     37  C   UNL     1      41.812  53.003  77.869  0.00  0.00    +0.000 C 
ATOM     38  C   UNL     1      44.204  53.272  78.362  0.00  0.00    +0.000 C 
BRANCH  33  39
ATOM     39  N   UNL     1      40.409  49.559  76.758  0.00  0.00    +0.000 NA
ATOM     40  C   UNL     1      39.908  49.094  75.447  0.00  0.00    +0.000 C 
ATOM     41  C   UNL     1      41.225  48.500  77.389  0.00  0.00    +0.000 C 
ATOM     42  C   UNL     1      39.121  47.784  75.542  0.00  0.00    +0.000 C 
ATOM     43  C   UNL     1      40.472  47.175  77.532  0.00  0.00    +0.000 C 
ATOM     44  C   UNL     1      39.944  46.687  76.195  0.00  0.00    +0.000 C 
ENDBRANCH  33  39
ENDBRANCH  30  38
ENDBRANCH  20  30
TORSDOF 6
ENDMDL
