MODEL 1
REMARK VINA RESULT:      -5.1      0.000      0.000
REMARK  Name = 
REMARK  4 active torsions:
REMARK  status: ('A' for Active; 'I' for Inactive)
REMARK    1  A    between atoms: C_1  and  C_6
REMARK    2  A    between atoms: C_1  and  C_7
REMARK    3  A    between atoms: C_9  and  C_14
REMARK    4  A    between atoms: C_11  and  C_15
REMARK                            x       y       z     vdW  Elec       q    Type
REMARK                         _______ _______ _______ _____ _____    ______ ____
ROOT
ATOM      1  C   UNL     1      56.091  58.547  85.145  0.00  0.00    +0.000 C 
ATOM      2  C   UNL     1      54.956  59.091  84.281  0.00  0.00    +0.000 C 
ATOM      3  C   UNL     1      55.753  57.901  83.812  0.00  0.00    +0.000 C 
ATOM      4  C   UNL     1      55.070  60.411  83.666  0.00  0.00    +0.000 C 
ATOM      5  C   UNL     1      56.611  57.975  82.588  0.00  0.00    +0.000 C 
ATOM      6  C   UNL     1      57.383  59.312  85.308  0.00  0.00    +0.000 C 
ATOM      7  C   UNL     1      55.700  57.789  86.391  0.00  0.00    +0.000 C 
ATOM      8  C   UNL     1      55.377  60.774  82.405  0.00  0.00    +0.000 C 
ATOM      9  C   UNL     1      54.812  61.627  84.534  0.00  0.00    +0.000 C 
ATOM     10  C   UNL     1      55.778  58.409  81.382  0.00  0.00    +0.000 C 
ATOM     11  C   UNL     1      55.715  59.937  81.193  0.00  0.00    +0.000 C 
ATOM     12  C   UNL     1      55.407  62.275  82.274  0.00  0.00    +0.000 C 
ATOM     13  C   UNL     1      55.460  62.748  83.722  0.00  0.00    +0.000 C 
ATOM     14  C   UNL     1      53.321  61.867  84.763  0.00  0.00    +0.000 C 
ATOM     15  C   UNL     1      54.752  60.244  80.036  0.00  0.00    +0.000 C 
ENDROOT
TORSDOF 0
ENDMDL
MODEL 2
REMARK VINA RESULT:      -5.1     16.215     18.602
REMARK  Name = 
REMARK  4 active torsions:
REMARK  status: ('A' for Active; 'I' for Inactive)
REMARK    1  A    between atoms: C_1  and  C_6
REMARK    2  A    between atoms: C_1  and  C_7
REMARK    3  A    between atoms: C_9  and  C_14
REMARK    4  A    between atoms: C_11  and  C_15
REMARK                            x       y       z     vdW  Elec       q    Type
REMARK                         _______ _______ _______ _____ _____    ______ ____
ROOT
ATOM      1  C   UNL     1      62.176  78.191  79.414  0.00  0.00    +0.000 C 
ATOM      2  C   UNL     1      60.753  78.069  78.877  0.00  0.00    +0.000 C 
ATOM      3  C   UNL     1      60.985  78.247  80.356  0.00  0.00    +0.000 C 
ATOM      4  C   UNL     1      60.294  76.809  78.295  0.00  0.00    +0.000 C 
ATOM      5  C   UNL     1      60.621  77.174  81.333  0.00  0.00    +0.000 C 
ATOM      6  C   UNL     1      63.105  77.000  79.441  0.00  0.00    +0.000 C 
ATOM      7  C   UNL     1      62.899  79.490  79.148  0.00  0.00    +0.000 C 
ATOM      8  C   UNL     1      59.526  75.828  78.807  0.00  0.00    +0.000 C 
ATOM      9  C   UNL     1      60.714  76.485  76.875  0.00  0.00    +0.000 C 
ATOM     10  C   UNL     1      59.143  76.809  81.194  0.00  0.00    +0.000 C 
ATOM     11  C   UNL     1      58.878  75.691  80.166  0.00  0.00    +0.000 C 
ATOM     12  C   UNL     1      59.367  74.703  77.817  0.00  0.00    +0.000 C 
ATOM     13  C   UNL     1      60.467  74.979  76.800  0.00  0.00    +0.000 C 
ATOM     14  C   UNL     1      59.897  77.256  75.841  0.00  0.00    +0.000 C 
ATOM     15  C   UNL     1      57.359  75.509  80.028  0.00  0.00    +0.000 C 
ENDROOT
TORSDOF 0
ENDMDL
MODEL 3
REMARK VINA RESULT:      -4.9     15.934     18.585
REMARK  Name = 
REMARK  4 active torsions:
REMARK  status: ('A' for Active; 'I' for Inactive)
REMARK    1  A    between atoms: C_1  and  C_6
REMARK    2  A    between atoms: C_1  and  C_7
REMARK    3  A    between atoms: C_9  and  C_14
REMARK    4  A    between atoms: C_11  and  C_15
REMARK                            x       y       z     vdW  Elec       q    Type
REMARK                         _______ _______ _______ _____ _____    ______ ____
ROOT
ATOM      1  C   UNL     1      62.435  78.393  79.338  0.00  0.00    +0.000 C 
ATOM      2  C   UNL     1      61.953  77.179  80.126  0.00  0.00    +0.000 C 
ATOM      3  C   UNL     1      62.204  77.061  78.644  0.00  0.00    +0.000 C 
ATOM      4  C   UNL     1      60.611  77.165  80.704  0.00  0.00    +0.000 C 
ATOM      5  C   UNL     1      61.088  76.782  77.688  0.00  0.00    +0.000 C 
ATOM      6  C   UNL     1      61.516  79.559  79.061  0.00  0.00    +0.000 C 
ATOM      7  C   UNL     1      63.870  78.818  79.544  0.00  0.00    +0.000 C 
ATOM      8  C   UNL     1      59.476  76.571  80.286  0.00  0.00    +0.000 C 
ATOM      9  C   UNL     1      60.383  77.925  81.996  0.00  0.00    +0.000 C 
ATOM     10  C   UNL     1      60.362  75.495  78.081  0.00  0.00    +0.000 C 
ATOM     11  C   UNL     1      59.200  75.719  79.069  0.00  0.00    +0.000 C 
ATOM     12  C   UNL     1      58.333  76.891  81.215  0.00  0.00    +0.000 C 
ATOM     13  C   UNL     1      58.862  78.071  82.022  0.00  0.00    +0.000 C 
ATOM     14  C   UNL     1      60.910  77.167  83.213  0.00  0.00    +0.000 C 
ATOM     15  C   UNL     1      58.641  74.349  79.480  0.00  0.00    +0.000 C 
ENDROOT
TORSDOF 0
ENDMDL
MODEL 4
REMARK VINA RESULT:      -4.9     32.922     35.369
REMARK  Name = 
REMARK  4 active torsions:
REMARK  status: ('A' for Active; 'I' for Inactive)
REMARK    1  A    between atoms: C_1  and  C_6
REMARK    2  A    between atoms: C_1  and  C_7
REMARK    3  A    between atoms: C_9  and  C_14
REMARK    4  A    between atoms: C_11  and  C_15
REMARK                            x       y       z     vdW  Elec       q    Type
REMARK                         _______ _______ _______ _____ _____    ______ ____
ROOT
ATOM      1  C   UNL     1      51.127  35.065  61.465  0.00  0.00    +0.000 C 
ATOM      2  C   UNL     1      50.581  35.103  60.041  0.00  0.00    +0.000 C 
ATOM      3  C   UNL     1      50.345  33.889  60.905  0.00  0.00    +0.000 C 
ATOM      4  C   UNL     1      51.497  35.096  58.903  0.00  0.00    +0.000 C 
ATOM      5  C   UNL     1      50.937  32.561  60.555  0.00  0.00    +0.000 C 
ATOM      6  C   UNL     1      52.609  34.929  61.729  0.00  0.00    +0.000 C 
ATOM      7  C   UNL     1      50.429  35.926  62.491  0.00  0.00    +0.000 C 
ATOM      8  C   UNL     1      51.869  34.101  58.075  0.00  0.00    +0.000 C 
ATOM      9  C   UNL     1      52.180  36.398  58.531  0.00  0.00    +0.000 C 
ATOM     10  C   UNL     1      50.515  32.146  59.146  0.00  0.00    +0.000 C 
ATOM     11  C   UNL     1      51.470  32.644  58.043  0.00  0.00    +0.000 C 
ATOM     12  C   UNL     1      52.880  34.593  57.071  0.00  0.00    +0.000 C 
ATOM     13  C   UNL     1      53.345  35.916  57.666  0.00  0.00    +0.000 C 
ATOM     14  C   UNL     1      51.250  37.342  57.773  0.00  0.00    +0.000 C 
ATOM     15  C   UNL     1      50.870  32.274  56.678  0.00  0.00    +0.000 C 
ENDROOT
TORSDOF 0
ENDMDL
MODEL 5
REMARK VINA RESULT:      -4.9     16.468     18.378
REMARK  Name = 
REMARK  4 active torsions:
REMARK  status: ('A' for Active; 'I' for Inactive)
REMARK    1  A    between atoms: C_1  and  C_6
REMARK    2  A    between atoms: C_1  and  C_7
REMARK    3  A    between atoms: C_9  and  C_14
REMARK    4  A    between atoms: C_11  and  C_15
REMARK                            x       y       z     vdW  Elec       q    Type
REMARK                         _______ _______ _______ _____ _____    ______ ____
ROOT
ATOM      1  C   UNL     1      59.114  77.287  82.185  0.00  0.00    +0.000 C 
ATOM      2  C   UNL     1      59.556  77.921  80.869  0.00  0.00    +0.000 C 
ATOM      3  C   UNL     1      58.457  76.890  80.874  0.00  0.00    +0.000 C 
ATOM      4  C   UNL     1      60.890  77.653  80.336  0.00  0.00    +0.000 C 
ATOM      5  C   UNL     1      58.633  75.565  80.200  0.00  0.00    +0.000 C 
ATOM      6  C   UNL     1      60.000  76.305  82.914  0.00  0.00    +0.000 C 
ATOM      7  C   UNL     1      58.303  78.150  83.122  0.00  0.00    +0.000 C 
ATOM      8  C   UNL     1      61.299  76.821  79.360  0.00  0.00    +0.000 C 
ATOM      9  C   UNL     1      62.062  78.405  80.937  0.00  0.00    +0.000 C 
ATOM     10  C   UNL     1      59.000  75.763  78.729  0.00  0.00    +0.000 C 
ATOM     11  C   UNL     1      60.517  75.871  78.481  0.00  0.00    +0.000 C 
ATOM     12  C   UNL     1      62.798  76.873  79.208  0.00  0.00    +0.000 C 
ATOM     13  C   UNL     1      63.253  77.557  80.490  0.00  0.00    +0.000 C 
ATOM     14  C   UNL     1      62.151  79.840  80.424  0.00  0.00    +0.000 C 
ATOM     15  C   UNL     1      60.744  76.194  76.996  0.00  0.00    +0.000 C 
ENDROOT
TORSDOF 0
ENDMDL
MODEL 6
REMARK VINA RESULT:      -4.8     34.115     36.622
REMARK  Name = 
REMARK  4 active torsions:
REMARK  status: ('A' for Active; 'I' for Inactive)
REMARK    1  A    between atoms: C_1  and  C_6
REMARK    2  A    between atoms: C_1  and  C_7
REMARK    3  A    between atoms: C_9  and  C_14
REMARK    4  A    between atoms: C_11  and  C_15
REMARK                            x       y       z     vdW  Elec       q    Type
REMARK                         _______ _______ _______ _____ _____    ______ ____
ROOT
ATOM      1  C   UNL     1      51.855  32.079  56.894  0.00  0.00    +0.000 C 
ATOM      2  C   UNL     1      50.839  33.133  57.322  0.00  0.00    +0.000 C 
ATOM      3  C   UNL     1      51.736  33.392  56.138  0.00  0.00    +0.000 C 
ATOM      4  C   UNL     1      50.995  33.829  58.598  0.00  0.00    +0.000 C 
ATOM      5  C   UNL     1      52.757  34.485  56.162  0.00  0.00    +0.000 C 
ATOM      6  C   UNL     1      53.084  31.796  57.727  0.00  0.00    +0.000 C 
ATOM      7  C   UNL     1      51.316  30.845  56.212  0.00  0.00    +0.000 C 
ATOM      8  C   UNL     1      51.467  35.058  58.882  0.00  0.00    +0.000 C 
ATOM      9  C   UNL     1      50.573  33.103  59.861  0.00  0.00    +0.000 C 
ATOM     10  C   UNL     1      52.092  35.826  56.469  0.00  0.00    +0.000 C 
ATOM     11  C   UNL     1      52.004  36.142  57.975  0.00  0.00    +0.000 C 
ATOM     12  C   UNL     1      51.464  35.301  60.369  0.00  0.00    +0.000 C 
ATOM     13  C   UNL     1      51.292  33.902  60.948  0.00  0.00    +0.000 C 
ATOM     14  C   UNL     1      49.058  33.106  60.050  0.00  0.00    +0.000 C 
ATOM     15  C   UNL     1      51.208  37.443  58.153  0.00  0.00    +0.000 C 
ENDROOT
TORSDOF 0
ENDMDL
MODEL 7
REMARK VINA RESULT:      -4.7     34.201     36.832
REMARK  Name = 
REMARK  4 active torsions:
REMARK  status: ('A' for Active; 'I' for Inactive)
REMARK    1  A    between atoms: C_1  and  C_6
REMARK    2  A    between atoms: C_1  and  C_7
REMARK    3  A    between atoms: C_9  and  C_14
REMARK    4  A    between atoms: C_11  and  C_15
REMARK                            x       y       z     vdW  Elec       q    Type
REMARK                         _______ _______ _______ _____ _____    ______ ____
ROOT
ATOM      1  C   UNL     1      52.853  33.917  56.029  0.00  0.00    +0.000 C 
ATOM      2  C   UNL     1      51.468  34.094  56.646  0.00  0.00    +0.000 C 
ATOM      3  C   UNL     1      52.387  35.282  56.509  0.00  0.00    +0.000 C 
ATOM      4  C   UNL     1      51.155  33.482  57.935  0.00  0.00    +0.000 C 
ATOM      5  C   UNL     1      52.923  35.990  57.712  0.00  0.00    +0.000 C 
ATOM      6  C   UNL     1      53.950  33.190  56.771  0.00  0.00    +0.000 C 
ATOM      7  C   UNL     1      52.915  33.701  54.536  0.00  0.00    +0.000 C 
ATOM      8  C   UNL     1      51.095  34.011  59.172  0.00  0.00    +0.000 C 
ATOM      9  C   UNL     1      50.829  32.001  57.960  0.00  0.00    +0.000 C 
ATOM     10  C   UNL     1      51.776  36.464  58.604  0.00  0.00    +0.000 C 
ATOM     11  C   UNL     1      51.340  35.423  59.654  0.00  0.00    +0.000 C 
ATOM     12  C   UNL     1      50.767  32.950  60.191  0.00  0.00    +0.000 C 
ATOM     13  C   UNL     1      51.024  31.653  59.436  0.00  0.00    +0.000 C 
ATOM     14  C   UNL     1      49.407  31.715  57.484  0.00  0.00    +0.000 C 
ATOM     15  C   UNL     1      50.108  35.966  60.393  0.00  0.00    +0.000 C 
ENDROOT
TORSDOF 0
ENDMDL
MODEL 8
REMARK VINA RESULT:      -4.7     14.042     16.292
REMARK  Name = 
REMARK  4 active torsions:
REMARK  status: ('A' for Active; 'I' for Inactive)
REMARK    1  A    between atoms: C_1  and  C_6
REMARK    2  A    between atoms: C_1  and  C_7
REMARK    3  A    between atoms: C_9  and  C_14
REMARK    4  A    between atoms: C_11  and  C_15
REMARK                            x       y       z     vdW  Elec       q    Type
REMARK                         _______ _______ _______ _____ _____    ______ ____
ROOT
ATOM      1  C   UNL     1      56.626  67.156  70.015  0.00  0.00    +0.000 C 
ATOM      2  C   UNL     1      57.716  67.264  68.953  0.00  0.00    +0.000 C 
ATOM      3  C   UNL     1      56.471  66.461  68.672  0.00  0.00    +0.000 C 
ATOM      4  C   UNL     1      59.021  66.646  69.175  0.00  0.00    +0.000 C 
ATOM      5  C   UNL     1      56.533  64.980  68.468  0.00  0.00    +0.000 C 
ATOM      6  C   UNL     1      56.836  66.339  71.268  0.00  0.00    +0.000 C 
ATOM      7  C   UNL     1      55.777  68.382  70.252  0.00  0.00    +0.000 C 
ATOM      8  C   UNL     1      59.544  65.494  68.711  0.00  0.00    +0.000 C 
ATOM      9  C   UNL     1      60.009  67.369  70.070  0.00  0.00    +0.000 C 
ATOM     10  C   UNL     1      57.499  64.641  67.334  0.00  0.00    +0.000 C 
ATOM     11  C   UNL     1      58.954  64.440  67.802  0.00  0.00    +0.000 C 
ATOM     12  C   UNL     1      60.928  65.274  69.266  0.00  0.00    +0.000 C 
ATOM     13  C   UNL     1      60.996  66.258  70.427  0.00  0.00    +0.000 C 
ATOM     14  C   UNL     1      60.688  68.536  69.356  0.00  0.00    +0.000 C 
ATOM     15  C   UNL     1      59.839  64.233  66.564  0.00  0.00    +0.000 C 
ENDROOT
TORSDOF 0
ENDMDL
MODEL 9
REMARK VINA RESULT:      -4.7      9.121     12.443
REMARK  Name = 
REMARK  4 active torsions:
REMARK  status: ('A' for Active; 'I' for Inactive)
REMARK    1  A    between atoms: C_1  and  C_6
REMARK    2  A    between atoms: C_1  and  C_7
REMARK    3  A    between atoms: C_9  and  C_14
REMARK    4  A    between atoms: C_11  and  C_15
REMARK                            x       y       z     vdW  Elec       q    Type
REMARK                         _______ _______ _______ _____ _____    ______ ____
ROOT
ATOM      1  C   UNL     1      57.100  72.015  83.070  0.00  0.00    +0.000 C 
ATOM      2  C   UNL     1      56.812  71.296  84.385  0.00  0.00    +0.000 C 
ATOM      3  C   UNL     1      56.967  72.796  84.367  0.00  0.00    +0.000 C 
ATOM      4  C   UNL     1      57.813  70.406  84.970  0.00  0.00    +0.000 C 
ATOM      5  C   UNL     1      58.099  73.468  85.077  0.00  0.00    +0.000 C 
ATOM      6  C   UNL     1      58.446  71.897  82.395  0.00  0.00    +0.000 C 
ATOM      7  C   UNL     1      55.961  72.124  82.086  0.00  0.00    +0.000 C 
ATOM      8  C   UNL     1      58.684  70.599  85.979  0.00  0.00    +0.000 C 
ATOM      9  C   UNL     1      57.949  69.010  84.392  0.00  0.00    +0.000 C 
ATOM     10  C   UNL     1      58.107  73.077  86.554  0.00  0.00    +0.000 C 
ATOM     11  C   UNL     1      58.930  71.808  86.852  0.00  0.00    +0.000 C 
ATOM     12  C   UNL     1      59.545  69.378  86.181  0.00  0.00    +0.000 C 
ATOM     13  C   UNL     1      59.327  68.584  84.899  0.00  0.00    +0.000 C 
ATOM     14  C   UNL     1      56.842  68.076  84.875  0.00  0.00    +0.000 C 
ATOM     15  C   UNL     1      58.753  71.452  88.335  0.00  0.00    +0.000 C 
ENDROOT
TORSDOF 0
ENDMDL
