MODEL 1
REMARK VINA RESULT:      -6.8      0.000      0.000
REMARK  Name = JAK3_Inhibitor.pdbqt.pdb
REMARK  1 active torsions:
REMARK  status: ('A' for Active; 'I' for Inactive)
REMARK    1  A    between atoms: C_7  and  C_20
REMARK                            x       y       z     vdW  Elec       q    Type
REMARK                         _______ _______ _______ _____ _____    ______ ____
ROOT
ATOM      1  O   UNL     1      58.669  52.568  59.198  0.00  0.00    +0.000 OA
ATOM      2  N   UNL     1      60.293  50.889  59.019  0.00  0.00    +0.000 N 
ATOM      3  C   UNL     1      62.205  52.117  59.331  0.00  0.00    +0.000 A 
ATOM      4  C   UNL     1      61.685  50.843  59.092  0.00  0.00    +0.000 A 
ATOM      5  C   UNL     1      61.056  53.003  59.409  0.00  0.00    +0.000 C 
ATOM      6  C   UNL     1      63.566  52.320  59.442  0.00  0.00    +0.000 A 
ATOM      7  C   UNL     1      64.432  51.220  59.314  0.00  0.00    +0.000 A 
ATOM      8  C   UNL     1      59.823  52.184  59.203  0.00  0.00    +0.000 C 
ATOM      9  C   UNL     1      62.492  49.734  58.959  0.00  0.00    +0.000 A 
ATOM     10  C   UNL     1      61.052  54.281  59.616  0.00  0.00    +0.000 C 
ATOM     11  C   UNL     1      63.868  49.945  59.073  0.00  0.00    +0.000 A 
ATOM     12  H   UNL     1      59.684  50.100  58.855  0.00  0.00    +0.000 HD
ATOM     13  N   UNL     1      59.826  56.398  59.887  0.00  0.00    +0.000 N 
ATOM     14  C   UNL     1      60.993  55.680  59.840  0.00  0.00    +0.000 C 
ATOM     15  C   UNL     1      62.036  56.553  60.045  0.00  0.00    +0.000 C 
ATOM     16  C   UNL     1      60.113  57.717  60.119  0.00  0.00    +0.000 C 
ATOM     17  C   UNL     1      61.479  57.842  60.221  0.00  0.00    +0.000 C 
ATOM     18  H   UNL     1      58.899  56.011  59.769  0.00  0.00    +0.000 HD
ENDROOT
BRANCH   7  20
ATOM     19  N   UNL     1      67.809  52.872  59.633  0.00  0.00    +0.000 NA
ATOM     20  C   UNL     1      65.885  51.390  59.426  0.00  0.00    +0.000 A 
ATOM     21  C   UNL     1      66.761  50.303  59.438  0.00  0.00    +0.000 A 
ATOM     22  C   UNL     1      66.481  52.643  59.527  0.00  0.00    +0.000 A 
ATOM     23  C   UNL     1      68.136  50.483  59.546  0.00  0.00    +0.000 A 
ATOM     24  C   UNL     1      68.604  51.781  59.640  0.00  0.00    +0.000 A 
ENDBRANCH   7  20
TORSDOF 1
ENDMDL
MODEL 2
REMARK VINA RESULT:      -6.6      8.342     11.857
REMARK  Name = JAK3_Inhibitor.pdbqt.pdb
REMARK  1 active torsions:
REMARK  status: ('A' for Active; 'I' for Inactive)
REMARK    1  A    between atoms: C_7  and  C_20
REMARK                            x       y       z     vdW  Elec       q    Type
REMARK                         _______ _______ _______ _____ _____    ______ ____
ROOT
ATOM      1  O   UNL     1      72.518  51.711  66.702  0.00  0.00    +0.000 OA
ATOM      2  N   UNL     1      72.556  53.878  67.592  0.00  0.00    +0.000 N 
ATOM      3  C   UNL     1      71.112  54.945  66.164  0.00  0.00    +0.000 A 
ATOM      4  C   UNL     1      71.941  55.091  67.279  0.00  0.00    +0.000 A 
ATOM      5  C   UNL     1      71.225  53.552  65.767  0.00  0.00    +0.000 C 
ATOM      6  C   UNL     1      70.397  56.016  65.665  0.00  0.00    +0.000 A 
ATOM      7  C   UNL     1      70.512  57.265  66.298  0.00  0.00    +0.000 A 
ATOM      8  C   UNL     1      72.169  52.876  66.709  0.00  0.00    +0.000 C 
ATOM      9  C   UNL     1      72.087  56.294  67.933  0.00  0.00    +0.000 A 
ATOM     10  C   UNL     1      70.635  52.956  64.780  0.00  0.00    +0.000 C 
ATOM     11  C   UNL     1      71.361  57.374  67.425  0.00  0.00    +0.000 A 
ATOM     12  H   UNL     1      73.199  53.722  68.354  0.00  0.00    +0.000 HD
ATOM     13  N   UNL     1      70.214  50.929  63.452  0.00  0.00    +0.000 N 
ATOM     14  C   UNL     1      70.013  52.259  63.715  0.00  0.00    +0.000 C 
ATOM     15  C   UNL     1      69.130  52.746  62.779  0.00  0.00    +0.000 C 
ATOM     16  C   UNL     1      69.471  50.563  62.361  0.00  0.00    +0.000 C 
ATOM     17  C   UNL     1      68.787  51.674  61.923  0.00  0.00    +0.000 C 
ATOM     18  H   UNL     1      70.818  50.315  63.982  0.00  0.00    +0.000 HD
ENDROOT
BRANCH   7  20
ATOM     19  N   UNL     1      68.923  60.686  66.177  0.00  0.00    +0.000 NA
ATOM     20  C   UNL     1      69.770  58.430  65.803  0.00  0.00    +0.000 A 
ATOM     21  C   UNL     1      69.193  58.459  64.531  0.00  0.00    +0.000 A 
ATOM     22  C   UNL     1      69.593  59.579  66.568  0.00  0.00    +0.000 A 
ATOM     23  C   UNL     1      68.494  59.573  64.080  0.00  0.00    +0.000 A 
ATOM     24  C   UNL     1      68.390  60.653  64.937  0.00  0.00    +0.000 A 
ENDBRANCH   7  20
TORSDOF 1
ENDMDL
MODEL 3
REMARK VINA RESULT:      -6.1     25.825     27.813
REMARK  Name = JAK3_Inhibitor.pdbqt.pdb
REMARK  1 active torsions:
REMARK  status: ('A' for Active; 'I' for Inactive)
REMARK    1  A    between atoms: C_7  and  C_20
REMARK                            x       y       z     vdW  Elec       q    Type
REMARK                         _______ _______ _______ _____ _____    ______ ____
ROOT
ATOM      1  O   UNL     1      76.646  63.407  84.404  0.00  0.00    +0.000 OA
ATOM      2  N   UNL     1      75.775  62.202  82.594  0.00  0.00    +0.000 N 
ATOM      3  C   UNL     1      76.836  63.242  80.846  0.00  0.00    +0.000 A 
ATOM      4  C   UNL     1      75.935  62.238  81.209  0.00  0.00    +0.000 A 
ATOM      5  C   UNL     1      77.256  63.863  82.091  0.00  0.00    +0.000 C 
ATOM      6  C   UNL     1      77.154  63.468  79.522  0.00  0.00    +0.000 A 
ATOM      7  C   UNL     1      76.556  62.668  78.532  0.00  0.00    +0.000 A 
ATOM      8  C   UNL     1      76.554  63.172  83.215  0.00  0.00    +0.000 C 
ATOM      9  C   UNL     1      75.324  61.429  80.277  0.00  0.00    +0.000 A 
ATOM     10  C   UNL     1      78.086  64.844  82.248  0.00  0.00    +0.000 C 
ATOM     11  C   UNL     1      75.649  61.660  78.938  0.00  0.00    +0.000 A 
ATOM     12  H   UNL     1      75.179  61.565  83.103  0.00  0.00    +0.000 HD
ATOM     13  N   UNL     1      79.295  66.406  83.716  0.00  0.00    +0.000 N 
ATOM     14  C   UNL     1      78.988  65.914  82.474  0.00  0.00    +0.000 C 
ATOM     15  C   UNL     1      79.701  66.637  81.545  0.00  0.00    +0.000 C 
ATOM     16  C   UNL     1      80.192  67.433  83.590  0.00  0.00    +0.000 C 
ATOM     17  C   UNL     1      80.462  67.598  82.251  0.00  0.00    +0.000 C 
ATOM     18  H   UNL     1      78.915  66.063  84.589  0.00  0.00    +0.000 HD
ENDROOT
BRANCH   7  20
ATOM     19  N   UNL     1      77.660  64.337  75.333  0.00  0.00    +0.000 NA
ATOM     20  C   UNL     1      76.865  62.872  77.112  0.00  0.00    +0.000 A 
ATOM     21  C   UNL     1      76.687  61.866  76.161  0.00  0.00    +0.000 A 
ATOM     22  C   UNL     1      77.355  64.080  76.625  0.00  0.00    +0.000 A 
ATOM     23  C   UNL     1      76.985  62.079  74.819  0.00  0.00    +0.000 A 
ATOM     24  C   UNL     1      77.466  63.326  74.462  0.00  0.00    +0.000 A 
ENDBRANCH   7  20
TORSDOF 1
ENDMDL
MODEL 4
REMARK VINA RESULT:      -6.1      8.218      9.979
REMARK  Name = JAK3_Inhibitor.pdbqt.pdb
REMARK  1 active torsions:
REMARK  status: ('A' for Active; 'I' for Inactive)
REMARK    1  A    between atoms: C_7  and  C_20
REMARK                            x       y       z     vdW  Elec       q    Type
REMARK                         _______ _______ _______ _____ _____    ______ ____
ROOT
ATOM      1  O   UNL     1      68.908  61.422  66.338  0.00  0.00    +0.000 OA
ATOM      2  N   UNL     1      69.759  59.354  67.032  0.00  0.00    +0.000 N 
ATOM      3  C   UNL     1      69.476  58.119  65.119  0.00  0.00    +0.000 A 
ATOM      4  C   UNL     1      69.930  58.102  66.440  0.00  0.00    +0.000 A 
ATOM      5  C   UNL     1      68.995  59.470  64.885  0.00  0.00    +0.000 C 
ATOM      6  C   UNL     1      69.543  56.988  64.329  0.00  0.00    +0.000 A 
ATOM      7  C   UNL     1      70.079  55.809  64.874  0.00  0.00    +0.000 A 
ATOM      8  C   UNL     1      69.188  60.256  66.142  0.00  0.00    +0.000 C 
ATOM      9  C   UNL     1      70.464  56.971  67.018  0.00  0.00    +0.000 A 
ATOM     10  C   UNL     1      68.480  59.953  63.800  0.00  0.00    +0.000 C 
ATOM     11  C   UNL     1      70.530  55.830  66.215  0.00  0.00    +0.000 A 
ATOM     12  H   UNL     1      70.010  59.598  67.979  0.00  0.00    +0.000 HD
ATOM     13  N   UNL     1      67.495  61.832  62.554  0.00  0.00    +0.000 N 
ATOM     14  C   UNL     1      67.912  60.529  62.636  0.00  0.00    +0.000 C 
ATOM     15  C   UNL     1      67.677  59.933  61.418  0.00  0.00    +0.000 C 
ATOM     16  C   UNL     1      66.996  62.073  61.301  0.00  0.00    +0.000 C 
ATOM     17  C   UNL     1      67.098  60.909  60.575  0.00  0.00    +0.000 C 
ATOM     18  H   UNL     1      67.547  62.509  63.304  0.00  0.00    +0.000 HD
ENDROOT
BRANCH   7  20
ATOM     19  N   UNL     1      70.364  52.155  63.973  0.00  0.00    +0.000 NA
ATOM     20  C   UNL     1      70.170  54.584  64.071  0.00  0.00    +0.000 A 
ATOM     21  C   UNL     1      70.156  54.607  62.675  0.00  0.00    +0.000 A 
ATOM     22  C   UNL     1      70.277  53.323  64.649  0.00  0.00    +0.000 A 
ATOM     23  C   UNL     1      70.243  53.435  61.931  0.00  0.00    +0.000 A 
ATOM     24  C   UNL     1      70.344  52.243  62.626  0.00  0.00    +0.000 A 
ENDBRANCH   7  20
TORSDOF 1
ENDMDL
MODEL 5
REMARK VINA RESULT:      -6.1     13.411     17.091
REMARK  Name = JAK3_Inhibitor.pdbqt.pdb
REMARK  1 active torsions:
REMARK  status: ('A' for Active; 'I' for Inactive)
REMARK    1  A    between atoms: C_7  and  C_20
REMARK                            x       y       z     vdW  Elec       q    Type
REMARK                         _______ _______ _______ _____ _____    ______ ____
ROOT
ATOM      1  O   UNL     1      55.859  65.128  69.864  0.00  0.00    +0.000 OA
ATOM      2  N   UNL     1      57.437  66.672  70.647  0.00  0.00    +0.000 N 
ATOM      3  C   UNL     1      59.011  66.546  68.982  0.00  0.00    +0.000 A 
ATOM      4  C   UNL     1      58.667  67.151  70.193  0.00  0.00    +0.000 A 
ATOM      5  C   UNL     1      57.921  65.636  68.672  0.00  0.00    +0.000 C 
ATOM      6  C   UNL     1      60.191  66.862  68.339  0.00  0.00    +0.000 A 
ATOM      7  C   UNL     1      61.050  67.810  68.921  0.00  0.00    +0.000 A 
ATOM      8  C   UNL     1      56.908  65.734  69.768  0.00  0.00    +0.000 C 
ATOM      9  C   UNL     1      59.475  68.084  70.802  0.00  0.00    +0.000 A 
ATOM     10  C   UNL     1      57.803  64.858  67.643  0.00  0.00    +0.000 C 
ATOM     11  C   UNL     1      60.668  68.402  70.148  0.00  0.00    +0.000 A 
ATOM     12  H   UNL     1      56.971  66.954  71.497  0.00  0.00    +0.000 HD
ATOM     13  N   UNL     1      56.537  63.177  66.370  0.00  0.00    +0.000 N 
ATOM     14  C   UNL     1      57.627  63.991  66.536  0.00  0.00    +0.000 C 
ATOM     15  C   UNL     1      58.466  63.799  65.463  0.00  0.00    +0.000 C 
ATOM     16  C   UNL     1      56.671  62.469  65.205  0.00  0.00    +0.000 C 
ATOM     17  C   UNL     1      57.862  62.836  64.621  0.00  0.00    +0.000 C 
ATOM     18  H   UNL     1      55.756  63.110  67.009  0.00  0.00    +0.000 HD
ENDROOT
BRANCH   7  20
ATOM     19  N   UNL     1      64.449  67.495  67.312  0.00  0.00    +0.000 NA
ATOM     20  C   UNL     1      62.314  68.177  68.272  0.00  0.00    +0.000 A 
ATOM     21  C   UNL     1      62.641  69.502  67.976  0.00  0.00    +0.000 A 
ATOM     22  C   UNL     1      63.267  67.229  67.911  0.00  0.00    +0.000 A 
ATOM     23  C   UNL     1      63.844  69.830  67.361  0.00  0.00    +0.000 A 
ATOM     24  C   UNL     1      64.707  68.794  67.052  0.00  0.00    +0.000 A 
ENDBRANCH   7  20
TORSDOF 1
ENDMDL
MODEL 6
REMARK VINA RESULT:      -5.9      2.563      7.485
REMARK  Name = JAK3_Inhibitor.pdbqt.pdb
REMARK  1 active torsions:
REMARK  status: ('A' for Active; 'I' for Inactive)
REMARK    1  A    between atoms: C_7  and  C_20
REMARK                            x       y       z     vdW  Elec       q    Type
REMARK                         _______ _______ _______ _____ _____    ______ ____
ROOT
ATOM      1  O   UNL     1      64.363  55.283  60.216  0.00  0.00    +0.000 OA
ATOM      2  N   UNL     1      62.061  55.653  59.991  0.00  0.00    +0.000 N 
ATOM      3  C   UNL     1      61.358  53.561  59.364  0.00  0.00    +0.000 A 
ATOM      4  C   UNL     1      60.960  54.871  59.640  0.00  0.00    +0.000 A 
ATOM      5  C   UNL     1      62.799  53.538  59.557  0.00  0.00    +0.000 C 
ATOM      6  C   UNL     1      60.439  52.601  58.992  0.00  0.00    +0.000 A 
ATOM      7  C   UNL     1      59.083  52.959  58.895  0.00  0.00    +0.000 A 
ATOM      8  C   UNL     1      63.235  54.908  59.965  0.00  0.00    +0.000 C 
ATOM      9  C   UNL     1      59.645  55.270  59.560  0.00  0.00    +0.000 A 
ATOM     10  C   UNL     1      63.603  52.533  59.413  0.00  0.00    +0.000 C 
ATOM     11  C   UNL     1      58.717  54.295  59.184  0.00  0.00    +0.000 A 
ATOM     12  H   UNL     1      62.036  56.632  60.237  0.00  0.00    +0.000 HD
ATOM     13  N   UNL     1      65.873  51.587  59.485  0.00  0.00    +0.000 N 
ATOM     14  C   UNL     1      64.525  51.466  59.270  0.00  0.00    +0.000 C 
ATOM     15  C   UNL     1      64.270  50.164  58.906  0.00  0.00    +0.000 C 
ATOM     16  C   UNL     1      66.480  50.379  59.262  0.00  0.00    +0.000 C 
ATOM     17  C   UNL     1      65.506  49.477  58.901  0.00  0.00    +0.000 C 
ATOM     18  H   UNL     1      66.345  52.436  59.765  0.00  0.00    +0.000 HD
ENDROOT
BRANCH   7  20
ATOM     19  N   UNL     1      55.942  50.869  58.948  0.00  0.00    +0.000 NA
ATOM     20  C   UNL     1      58.070  51.972  58.504  0.00  0.00    +0.000 A 
ATOM     21  C   UNL     1      58.204  51.183  57.360  0.00  0.00    +0.000 A 
ATOM     22  C   UNL     1      56.914  51.759  59.248  0.00  0.00    +0.000 A 
ATOM     23  C   UNL     1      57.233  50.252  57.006  0.00  0.00    +0.000 A 
ATOM     24  C   UNL     1      56.128  50.137  57.830  0.00  0.00    +0.000 A 
ENDBRANCH   7  20
TORSDOF 1
ENDMDL
MODEL 7
REMARK VINA RESULT:      -5.9     16.580     19.814
REMARK  Name = JAK3_Inhibitor.pdbqt.pdb
REMARK  1 active torsions:
REMARK  status: ('A' for Active; 'I' for Inactive)
REMARK    1  A    between atoms: C_7  and  C_20
REMARK                            x       y       z     vdW  Elec       q    Type
REMARK                         _______ _______ _______ _____ _____    ______ ____
ROOT
ATOM      1  O   UNL     1      67.812  71.851  67.790  0.00  0.00    +0.000 OA
ATOM      2  N   UNL     1      67.166  69.708  67.100  0.00  0.00    +0.000 N 
ATOM      3  C   UNL     1      64.982  69.680  67.802  0.00  0.00    +0.000 A 
ATOM      4  C   UNL     1      65.992  68.955  67.167  0.00  0.00    +0.000 A 
ATOM      5  C   UNL     1      65.574  70.961  68.148  0.00  0.00    +0.000 C 
ATOM      6  C   UNL     1      63.725  69.138  67.986  0.00  0.00    +0.000 A 
ATOM      7  C   UNL     1      63.471  67.836  67.521  0.00  0.00    +0.000 A 
ATOM      8  C   UNL     1      66.994  70.958  67.682  0.00  0.00    +0.000 C 
ATOM      9  C   UNL     1      65.793  67.677  66.694  0.00  0.00    +0.000 A 
ATOM     10  C   UNL     1      65.011  71.959  68.753  0.00  0.00    +0.000 C 
ATOM     11  C   UNL     1      64.520  67.133  66.881  0.00  0.00    +0.000 A 
ATOM     12  H   UNL     1      68.037  69.407  66.687  0.00  0.00    +0.000 HD
ATOM     13  N   UNL     1      65.124  74.236  69.677  0.00  0.00    +0.000 N 
ATOM     14  C   UNL     1      64.441  73.078  69.411  0.00  0.00    +0.000 C 
ATOM     15  C   UNL     1      63.160  73.222  69.889  0.00  0.00    +0.000 C 
ATOM     16  C   UNL     1      64.293  75.116  70.319  0.00  0.00    +0.000 C 
ATOM     17  C   UNL     1      63.066  74.511  70.464  0.00  0.00    +0.000 C 
ATOM     18  H   UNL     1      66.090  74.412  69.436  0.00  0.00    +0.000 HD
ENDROOT
BRANCH   7  20
ATOM     19  N   UNL     1      60.022  66.527  66.729  0.00  0.00    +0.000 NA
ATOM     20  C   UNL     1      62.151  67.220  67.694  0.00  0.00    +0.000 A 
ATOM     21  C   UNL     1      61.714  66.732  68.927  0.00  0.00    +0.000 A 
ATOM     22  C   UNL     1      61.251  67.083  66.641  0.00  0.00    +0.000 A 
ATOM     23  C   UNL     1      60.459  66.151  69.071  0.00  0.00    +0.000 A 
ATOM     24  C   UNL     1      59.658  66.074  67.946  0.00  0.00    +0.000 A 
ENDBRANCH   7  20
TORSDOF 1
ENDMDL
MODEL 8
REMARK VINA RESULT:      -5.9     16.585     18.635
REMARK  Name = JAK3_Inhibitor.pdbqt.pdb
REMARK  1 active torsions:
REMARK  status: ('A' for Active; 'I' for Inactive)
REMARK    1  A    between atoms: C_7  and  C_20
REMARK                            x       y       z     vdW  Elec       q    Type
REMARK                         _______ _______ _______ _____ _____    ______ ____
ROOT
ATOM      1  O   UNL     1      60.570  40.547  71.179  0.00  0.00    +0.000 OA
ATOM      2  N   UNL     1      61.479  39.837  69.140  0.00  0.00    +0.000 N 
ATOM      3  C   UNL     1      59.821  38.431  68.407  0.00  0.00    +0.000 A 
ATOM      4  C   UNL     1      61.072  38.980  68.117  0.00  0.00    +0.000 A 
ATOM      5  C   UNL     1      59.435  38.988  69.693  0.00  0.00    +0.000 C 
ATOM      6  C   UNL     1      59.212  37.549  67.537  0.00  0.00    +0.000 A 
ATOM      7  C   UNL     1      59.871  37.207  66.343  0.00  0.00    +0.000 A 
ATOM      8  C   UNL     1      60.527  39.899  70.152  0.00  0.00    +0.000 C 
ATOM      9  C   UNL     1      61.757  38.676  66.961  0.00  0.00    +0.000 A 
ATOM     10  C   UNL     1      58.349  38.762  70.362  0.00  0.00    +0.000 C 
ATOM     11  C   UNL     1      61.137  37.784  66.083  0.00  0.00    +0.000 A 
ATOM     12  H   UNL     1      62.345  40.356  69.166  0.00  0.00    +0.000 HD
ATOM     13  N   UNL     1      56.942  39.146  72.343  0.00  0.00    +0.000 N 
ATOM     14  C   UNL     1      57.178  38.550  71.132  0.00  0.00    +0.000 C 
ATOM     15  C   UNL     1      56.099  37.749  70.837  0.00  0.00    +0.000 C 
ATOM     16  C   UNL     1      55.728  38.734  72.824  0.00  0.00    +0.000 C 
ATOM     17  C   UNL     1      55.182  37.864  71.908  0.00  0.00    +0.000 C 
ATOM     18  H   UNL     1      57.568  39.790  72.808  0.00  0.00    +0.000 HD
ENDROOT
BRANCH   7  20
ATOM     19  N   UNL     1      59.137  34.030  64.444  0.00  0.00    +0.000 NA
ATOM     20  C   UNL     1      59.262  36.274  65.388  0.00  0.00    +0.000 A 
ATOM     21  C   UNL     1      58.249  36.665  64.510  0.00  0.00    +0.000 A 
ATOM     22  C   UNL     1      59.654  34.942  65.298  0.00  0.00    +0.000 A 
ATOM     23  C   UNL     1      57.683  35.766  63.613  0.00  0.00    +0.000 A 
ATOM     24  C   UNL     1      58.161  34.468  63.622  0.00  0.00    +0.000 A 
ENDBRANCH   7  20
TORSDOF 1
ENDMDL
MODEL 9
REMARK VINA RESULT:      -5.8     14.294     17.788
REMARK  Name = JAK3_Inhibitor.pdbqt.pdb
REMARK  1 active torsions:
REMARK  status: ('A' for Active; 'I' for Inactive)
REMARK    1  A    between atoms: C_7  and  C_20
REMARK                            x       y       z     vdW  Elec       q    Type
REMARK                         _______ _______ _______ _____ _____    ______ ____
ROOT
ATOM      1  O   UNL     1      67.921  69.800  66.260  0.00  0.00    +0.000 OA
ATOM      2  N   UNL     1      65.811  70.303  67.145  0.00  0.00    +0.000 N 
ATOM      3  C   UNL     1      64.842  68.223  67.133  0.00  0.00    +0.000 A 
ATOM      4  C   UNL     1      64.661  69.572  67.445  0.00  0.00    +0.000 A 
ATOM      5  C   UNL     1      66.193  68.119  66.606  0.00  0.00    +0.000 C 
ATOM      6  C   UNL     1      63.836  67.302  67.344  0.00  0.00    +0.000 A 
ATOM      7  C   UNL     1      62.614  67.740  67.883  0.00  0.00    +0.000 A 
ATOM      8  C   UNL     1      66.804  69.483  66.623  0.00  0.00    +0.000 C 
ATOM      9  C   UNL     1      63.483  70.050  67.975  0.00  0.00    +0.000 A 
ATOM     10  C   UNL     1      66.801  67.056  66.184  0.00  0.00    +0.000 C 
ATOM     11  C   UNL     1      62.467  69.115  68.188  0.00  0.00    +0.000 A 
ATOM     12  H   UNL     1      65.931  71.296  67.280  0.00  0.00    +0.000 HD
ATOM     13  N   UNL     1      68.795  65.970  65.235  0.00  0.00    +0.000 N 
ATOM     14  C   UNL     1      67.511  65.923  65.712  0.00  0.00    +0.000 C 
ATOM     15  C   UNL     1      67.080  64.619  65.640  0.00  0.00    +0.000 C 
ATOM     16  C   UNL     1      69.187  64.712  64.860  0.00  0.00    +0.000 C 
ATOM     17  C   UNL     1      68.140  63.853  65.100  0.00  0.00    +0.000 C 
ATOM     18  H   UNL     1      69.363  66.805  65.171  0.00  0.00    +0.000 HD
ENDROOT
BRANCH   7  20
ATOM     19  N   UNL     1      59.419  65.795  67.392  0.00  0.00    +0.000 NA
ATOM     20  C   UNL     1      61.517  66.797  68.125  0.00  0.00    +0.000 A 
ATOM     21  C   UNL     1      61.465  65.993  69.265  0.00  0.00    +0.000 A 
ATOM     22  C   UNL     1      60.460  66.643  67.233  0.00  0.00    +0.000 A 
ATOM     23  C   UNL     1      60.416  65.105  69.477  0.00  0.00    +0.000 A 
ATOM     24  C   UNL     1      59.425  65.045  68.514  0.00  0.00    +0.000 A 
ENDBRANCH   7  20
TORSDOF 1
ENDMDL
