MODEL 1
REMARK VINA RESULT:      -6.8      0.000      0.000
REMARK  Name = Leptomycin.pdbqt.pdb
REMARK  12 active torsions:
REMARK  status: ('A' for Active; 'I' for Inactive)
REMARK    1  A    between atoms: C_2  and  C_4
REMARK    2  A    between atoms: C_5  and  C_6
REMARK    3  A    between atoms: C_6  and  C_7
REMARK    4  A    between atoms: C_10  and  C_11
REMARK    5  A    between atoms: C_10  and  C_21
REMARK    6  A    between atoms: C_12  and  C_13
REMARK    7  A    between atoms: C_23  and  C_25
REMARK    8  A    between atoms: C_25  and  C_27
REMARK    9  A    between atoms: C_27  and  C_29
REMARK   10  A    between atoms: C_29  and  O_30
REMARK   11  A    between atoms: C_29  and  C_32
REMARK   12  A    between atoms: C_38  and  O_40
REMARK                            x       y       z     vdW  Elec       q    Type
REMARK                         _______ _______ _______ _____ _____    ______ ____
ROOT
ATOM      1  C   UNL     1      68.816  55.677  61.384  0.00  0.00    +0.000 C 
ATOM      2  C   UNL     1      68.318  54.491  61.252  0.00  0.00    +0.000 C 
ATOM      3  C   UNL     1      68.993  53.345  61.948  0.00  0.00    +0.000 C 
ATOM      4  C   UNL     1      69.289  57.005  61.534  0.00  0.00    +0.000 C 
ATOM      5  C   UNL     1      70.462  57.378  60.642  0.00  0.00    +0.000 C 
ENDROOT
BRANCH   2   6
ATOM      6  C   UNL     1      66.952  54.359  60.901  0.00  0.00    +0.000 C 
ATOM      7  C   UNL     1      65.779  54.294  60.647  0.00  0.00    +0.000 C 
BRANCH   7   8
ATOM      8  C   UNL     1      64.266  54.298  60.413  0.00  0.00    +0.000 C 
BRANCH   8   9
ATOM      9  C   UNL     1      62.853  54.206  60.372  0.00  0.00    +0.000 C 
ATOM     10  C   UNL     1      62.025  55.247  61.060  0.00  0.00    +0.000 C 
ATOM     11  C   UNL     1      62.207  53.089  59.788  0.00  0.00    +0.000 C 
ATOM     12  C   UNL     1      61.796  51.992  59.228  0.00  0.00    +0.000 C 
BRANCH  12  13
ATOM     13  C   UNL     1      62.814  51.073  58.856  0.00  0.00    +0.000 C 
ATOM     14  C   UNL     1      63.718  50.393  58.454  0.00  0.00    +0.000 C 
BRANCH  14  15
ATOM     15  C   UNL     1      64.825  49.698  57.903  0.00  0.00    +0.000 A 
ATOM     16  O   UNL     1      64.544  48.824  56.769  0.00  0.00    +0.000 OA
ATOM     17  C   UNL     1      65.548  48.112  56.116  0.00  0.00    +0.000 A 
ATOM     18  O   UNL     1      65.372  47.396  55.142  0.00  0.00    +0.000 OA
ATOM     19  C   UNL     1      66.832  48.337  56.712  0.00  0.00    +0.000 A 
ATOM     20  C   UNL     1      67.111  49.035  57.640  0.00  0.00    +0.000 A 
ATOM     21  C   UNL     1      66.205  49.821  58.387  0.00  0.00    +0.000 A 
ATOM     22  C   UNL     1      66.679  50.695  59.504  0.00  0.00    +0.000 C 
ENDBRANCH  14  15
ENDBRANCH  12  13
BRANCH  12  23
ATOM     23  C   UNL     1      60.405  51.783  59.052  0.00  0.00    +0.000 C 
ATOM     24  C   UNL     1      58.902  51.550  58.864  0.00  0.00    +0.000 C 
ENDBRANCH  12  23
ENDBRANCH   8   9
ENDBRANCH   7   8
ENDBRANCH   2   6
BRANCH   4  25
ATOM     25  C   UNL     1      68.359  58.051  62.065  0.00  0.00    +0.000 C 
ATOM     26  O   UNL     1      67.367  58.433  61.435  0.00  0.00    +0.000 OA
BRANCH  25  27
ATOM     27  C   UNL     1      68.712  58.669  63.378  0.00  0.00    +0.000 C 
ATOM     28  C   UNL     1      67.864  59.816  63.924  0.00  0.00    +0.000 C 
BRANCH  27  29
ATOM     29  C   UNL     1      70.015  58.370  63.963  0.00  0.00    +0.000 C 
BRANCH  29  30
ATOM     30  C   UNL     1      70.345  57.395  64.987  0.00  0.00    +0.000 C 
ATOM     31  C   UNL     1      69.957  57.641  66.430  0.00  0.00    +0.000 C 
ATOM     32  C   UNL     1      70.868  56.111  64.710  0.00  0.00    +0.000 C 
ATOM     33  C   UNL     1      71.403  54.823  64.499  0.00  0.00    +0.000 C 
ATOM     34  C   UNL     1      72.485  54.650  63.478  0.00  0.00    +0.000 C 
ATOM     35  C   UNL     1      70.889  53.800  65.089  0.00  0.00    +0.000 C 
ATOM     36  C   UNL     1      70.295  52.682  65.738  0.00  0.00    +0.000 C 
ATOM     37  O   UNL     1      69.130  52.368  65.580  0.00  0.00    +0.000 OA
BRANCH  36  38
ATOM     38  O   UNL     1      71.127  52.018  66.555  0.00  0.00    +0.000 OA
ATOM     39  H   UNL     1      70.615  51.233  66.842  0.00  0.00    +0.000 HD
ENDBRANCH  36  38
ENDBRANCH  29  30
BRANCH  29  40
ATOM     40  O   UNL     1      71.093  59.089  63.441  0.00  0.00    +0.000 OA
ATOM     41  H   UNL     1      71.158  58.997  62.468  0.00  0.00    +0.000 HD
ENDBRANCH  29  40
ENDBRANCH  27  29
ENDBRANCH  25  27
ENDBRANCH   4  25
TORSDOF 12
ENDMDL
MODEL 2
REMARK VINA RESULT:      -6.8     15.019     19.801
REMARK  Name = Leptomycin.pdbqt.pdb
REMARK  12 active torsions:
REMARK  status: ('A' for Active; 'I' for Inactive)
REMARK    1  A    between atoms: C_2  and  C_4
REMARK    2  A    between atoms: C_5  and  C_6
REMARK    3  A    between atoms: C_6  and  C_7
REMARK    4  A    between atoms: C_10  and  C_11
REMARK    5  A    between atoms: C_10  and  C_21
REMARK    6  A    between atoms: C_12  and  C_13
REMARK    7  A    between atoms: C_23  and  C_25
REMARK    8  A    between atoms: C_25  and  C_27
REMARK    9  A    between atoms: C_27  and  C_29
REMARK   10  A    between atoms: C_29  and  O_30
REMARK   11  A    between atoms: C_29  and  C_32
REMARK   12  A    between atoms: C_38  and  O_40
REMARK                            x       y       z     vdW  Elec       q    Type
REMARK                         _______ _______ _______ _____ _____    ______ ____
ROOT
ATOM      1  C   UNL     1      57.987  67.559  66.175  0.00  0.00    +0.000 C 
ATOM      2  C   UNL     1      57.397  68.618  66.626  0.00  0.00    +0.000 C 
ATOM      3  C   UNL     1      55.934  68.542  66.956  0.00  0.00    +0.000 C 
ATOM      4  C   UNL     1      58.696  66.417  65.724  0.00  0.00    +0.000 C 
ATOM      5  C   UNL     1      58.552  66.111  64.241  0.00  0.00    +0.000 C 
ENDROOT
BRANCH   2   6
ATOM      6  C   UNL     1      58.180  69.623  67.247  0.00  0.00    +0.000 C 
ATOM      7  C   UNL     1      58.815  70.519  67.733  0.00  0.00    +0.000 C 
BRANCH   7   8
ATOM      8  C   UNL     1      59.568  71.739  68.272  0.00  0.00    +0.000 C 
BRANCH   8   9
ATOM      9  C   UNL     1      60.145  72.852  68.931  0.00  0.00    +0.000 C 
ATOM     10  C   UNL     1      59.279  74.010  69.321  0.00  0.00    +0.000 C 
ATOM     11  C   UNL     1      61.544  72.942  69.132  0.00  0.00    +0.000 C 
ATOM     12  C   UNL     1      62.837  72.857  69.212  0.00  0.00    +0.000 C 
BRANCH  12  13
ATOM     13  C   UNL     1      63.421  71.740  68.558  0.00  0.00    +0.000 C 
ATOM     14  C   UNL     1      63.807  70.722  68.049  0.00  0.00    +0.000 C 
BRANCH  14  15
ATOM     15  C   UNL     1      64.145  69.462  67.492  0.00  0.00    +0.000 A 
ATOM     16  O   UNL     1      65.451  68.921  67.853  0.00  0.00    +0.000 OA
ATOM     17  C   UNL     1      65.889  67.679  67.401  0.00  0.00    +0.000 A 
ATOM     18  O   UNL     1      66.956  67.166  67.702  0.00  0.00    +0.000 OA
ATOM     19  C   UNL     1      64.921  67.053  66.549  0.00  0.00    +0.000 A 
ATOM     20  C   UNL     1      63.847  67.455  66.220  0.00  0.00    +0.000 A 
ATOM     21  C   UNL     1      63.268  68.684  66.609  0.00  0.00    +0.000 A 
ATOM     22  C   UNL     1      61.889  69.062  66.171  0.00  0.00    +0.000 C 
ENDBRANCH  14  15
ENDBRANCH  12  13
BRANCH  12  23
ATOM     23  C   UNL     1      63.555  73.863  69.904  0.00  0.00    +0.000 C 
ATOM     24  C   UNL     1      64.327  74.954  70.657  0.00  0.00    +0.000 C 
ENDBRANCH  12  23
ENDBRANCH   8   9
ENDBRANCH   7   8
ENDBRANCH   2   6
BRANCH   4  25
ATOM     25  C   UNL     1      59.890  65.952  66.496  0.00  0.00    +0.000 C 
ATOM     26  O   UNL     1      60.964  65.680  65.950  0.00  0.00    +0.000 OA
BRANCH  25  27
ATOM     27  C   UNL     1      59.717  65.769  67.969  0.00  0.00    +0.000 C 
ATOM     28  C   UNL     1      58.531  64.963  68.494  0.00  0.00    +0.000 C 
BRANCH  27  29
ATOM     29  C   UNL     1      60.505  66.601  68.872  0.00  0.00    +0.000 C 
BRANCH  29  30
ATOM     30  C   UNL     1      60.047  67.641  69.776  0.00  0.00    +0.000 C 
ATOM     31  C   UNL     1      60.940  68.820  70.100  0.00  0.00    +0.000 C 
ATOM     32  C   UNL     1      58.722  67.732  70.262  0.00  0.00    +0.000 C 
ATOM     33  C   UNL     1      57.422  67.869  70.791  0.00  0.00    +0.000 C 
ATOM     34  C   UNL     1      56.702  66.642  71.261  0.00  0.00    +0.000 C 
ATOM     35  C   UNL     1      56.823  69.009  70.760  0.00  0.00    +0.000 C 
ATOM     36  C   UNL     1      56.175  70.273  70.700  0.00  0.00    +0.000 C 
ATOM     37  O   UNL     1      55.953  70.853  69.654  0.00  0.00    +0.000 OA
BRANCH  36  38
ATOM     38  O   UNL     1      55.848  70.779  71.900  0.00  0.00    +0.000 OA
ATOM     39  H   UNL     1      55.706  69.993  72.467  0.00  0.00    +0.000 HD
ENDBRANCH  36  38
ENDBRANCH  29  30
BRANCH  29  40
ATOM     40  O   UNL     1      61.876  66.335  68.899  0.00  0.00    +0.000 OA
ATOM     41  H   UNL     1      62.383  66.969  68.350  0.00  0.00    +0.000 HD
ENDBRANCH  29  40
ENDBRANCH  27  29
ENDBRANCH  25  27
ENDBRANCH   4  25
TORSDOF 12
ENDMDL
MODEL 3
REMARK VINA RESULT:      -6.8     14.003     20.138
REMARK  Name = Leptomycin.pdbqt.pdb
REMARK  12 active torsions:
REMARK  status: ('A' for Active; 'I' for Inactive)
REMARK    1  A    between atoms: C_2  and  C_4
REMARK    2  A    between atoms: C_5  and  C_6
REMARK    3  A    between atoms: C_6  and  C_7
REMARK    4  A    between atoms: C_10  and  C_11
REMARK    5  A    between atoms: C_10  and  C_21
REMARK    6  A    between atoms: C_12  and  C_13
REMARK    7  A    between atoms: C_23  and  C_25
REMARK    8  A    between atoms: C_25  and  C_27
REMARK    9  A    between atoms: C_27  and  C_29
REMARK   10  A    between atoms: C_29  and  O_30
REMARK   11  A    between atoms: C_29  and  C_32
REMARK   12  A    between atoms: C_38  and  O_40
REMARK                            x       y       z     vdW  Elec       q    Type
REMARK                         _______ _______ _______ _____ _____    ______ ____
ROOT
ATOM      1  C   UNL     1      59.405  68.608  68.270  0.00  0.00    +0.000 C 
ATOM      2  C   UNL     1      60.417  69.393  68.086  0.00  0.00    +0.000 C 
ATOM      3  C   UNL     1      60.332  70.808  68.580  0.00  0.00    +0.000 C 
ATOM      4  C   UNL     1      58.346  67.692  68.490  0.00  0.00    +0.000 C 
ATOM      5  C   UNL     1      57.193  67.787  67.503  0.00  0.00    +0.000 C 
ENDROOT
BRANCH   2   6
ATOM      6  C   UNL     1      61.698  68.819  67.891  0.00  0.00    +0.000 C 
ATOM      7  C   UNL     1      62.810  68.392  67.737  0.00  0.00    +0.000 C 
BRANCH   7   8
ATOM      8  C   UNL     1      64.270  67.965  67.556  0.00  0.00    +0.000 C 
BRANCH   8   9
ATOM      9  C   UNL     1      65.631  67.717  67.252  0.00  0.00    +0.000 C 
ATOM     10  C   UNL     1      66.052  66.350  66.810  0.00  0.00    +0.000 C 
ATOM     11  C   UNL     1      66.622  68.706  67.463  0.00  0.00    +0.000 C 
ATOM     12  C   UNL     1      67.385  69.722  67.733  0.00  0.00    +0.000 C 
BRANCH  12  13
ATOM     13  C   UNL     1      66.741  70.826  68.354  0.00  0.00    +0.000 C 
ATOM     14  C   UNL     1      66.235  71.833  68.769  0.00  0.00    +0.000 C 
BRANCH  14  15
ATOM     15  C   UNL     1      65.673  73.082  69.139  0.00  0.00    +0.000 A 
ATOM     16  O   UNL     1      64.324  73.049  69.694  0.00  0.00    +0.000 OA
ATOM     17  C   UNL     1      63.672  74.201  70.127  0.00  0.00    +0.000 A 
ATOM     18  O   UNL     1      62.560  74.223  70.632  0.00  0.00    +0.000 OA
ATOM     19  C   UNL     1      64.478  75.370  69.933  0.00  0.00    +0.000 A 
ATOM     20  C   UNL     1      65.579  75.450  69.479  0.00  0.00    +0.000 A 
ATOM     21  C   UNL     1      66.363  74.371  69.013  0.00  0.00    +0.000 A 
ATOM     22  C   UNL     1      67.754  74.587  68.508  0.00  0.00    +0.000 C 
ENDBRANCH  14  15
ENDBRANCH  12  13
BRANCH  12  23
ATOM     23  C   UNL     1      68.765  69.653  67.422  0.00  0.00    +0.000 C 
ATOM     24  C   UNL     1      70.259  69.572  67.084  0.00  0.00    +0.000 C 
ENDBRANCH  12  23
ENDBRANCH   8   9
ENDBRANCH   7   8
ENDBRANCH   2   6
BRANCH   4  25
ATOM     25  C   UNL     1      58.628  66.421  69.228  0.00  0.00    +0.000 C 
ATOM     26  O   UNL     1      58.118  66.168  70.325  0.00  0.00    +0.000 OA
BRANCH  25  27
ATOM     27  C   UNL     1      59.609  65.480  68.609  0.00  0.00    +0.000 C 
ATOM     28  C   UNL     1      60.951  65.231  69.295  0.00  0.00    +0.000 C 
BRANCH  27  29
ATOM     29  C   UNL     1      59.391  65.052  67.231  0.00  0.00    +0.000 C 
BRANCH  29  30
ATOM     30  C   UNL     1      58.279  64.297  66.683  0.00  0.00    +0.000 C 
ATOM     31  C   UNL     1      58.465  63.455  65.438  0.00  0.00    +0.000 C 
ATOM     32  C   UNL     1      57.035  64.144  67.338  0.00  0.00    +0.000 C 
ATOM     33  C   UNL     1      55.769  63.966  67.933  0.00  0.00    +0.000 C 
ATOM     34  C   UNL     1      55.115  65.138  68.599  0.00  0.00    +0.000 C 
ATOM     35  C   UNL     1      55.243  62.793  68.006  0.00  0.00    +0.000 C 
ATOM     36  C   UNL     1      54.687  61.486  68.089  0.00  0.00    +0.000 C 
ATOM     37  O   UNL     1      55.237  60.571  68.673  0.00  0.00    +0.000 OA
BRANCH  36  38
ATOM     38  O   UNL     1      53.515  61.347  67.451  0.00  0.00    +0.000 OA
ATOM     39  H   UNL     1      53.736  61.469  66.505  0.00  0.00    +0.000 HD
ENDBRANCH  36  38
ENDBRANCH  29  30
BRANCH  29  40
ATOM     40  O   UNL     1      60.363  65.454  66.312  0.00  0.00    +0.000 OA
ATOM     41  H   UNL     1      60.661  64.712  65.746  0.00  0.00    +0.000 HD
ENDBRANCH  29  40
ENDBRANCH  27  29
ENDBRANCH  25  27
ENDBRANCH   4  25
TORSDOF 12
ENDMDL
MODEL 4
REMARK VINA RESULT:      -6.4      2.863      5.784
REMARK  Name = Leptomycin.pdbqt.pdb
REMARK  12 active torsions:
REMARK  status: ('A' for Active; 'I' for Inactive)
REMARK    1  A    between atoms: C_2  and  C_4
REMARK    2  A    between atoms: C_5  and  C_6
REMARK    3  A    between atoms: C_6  and  C_7
REMARK    4  A    between atoms: C_10  and  C_11
REMARK    5  A    between atoms: C_10  and  C_21
REMARK    6  A    between atoms: C_12  and  C_13
REMARK    7  A    between atoms: C_23  and  C_25
REMARK    8  A    between atoms: C_25  and  C_27
REMARK    9  A    between atoms: C_27  and  C_29
REMARK   10  A    between atoms: C_29  and  O_30
REMARK   11  A    between atoms: C_29  and  C_32
REMARK   12  A    between atoms: C_38  and  O_40
REMARK                            x       y       z     vdW  Elec       q    Type
REMARK                         _______ _______ _______ _____ _____    ______ ____
ROOT
ATOM      1  C   UNL     1      69.792  53.532  62.716  0.00  0.00    +0.000 C 
ATOM      2  C   UNL     1      69.215  52.374  62.755  0.00  0.00    +0.000 C 
ATOM      3  C   UNL     1      68.738  51.851  64.079  0.00  0.00    +0.000 C 
ATOM      4  C   UNL     1      70.385  54.815  62.607  0.00  0.00    +0.000 C 
ATOM      5  C   UNL     1      71.860  54.878  62.970  0.00  0.00    +0.000 C 
ENDROOT
BRANCH   2   6
ATOM      6  C   UNL     1      68.620  51.868  61.573  0.00  0.00    +0.000 C 
ATOM      7  C   UNL     1      68.080  51.399  60.608  0.00  0.00    +0.000 C 
BRANCH   7   8
ATOM      8  C   UNL     1      67.330  50.723  59.456  0.00  0.00    +0.000 C 
BRANCH   8   9
ATOM      9  C   UNL     1      66.666  49.926  58.491  0.00  0.00    +0.000 C 
ATOM     10  C   UNL     1      67.433  48.879  57.744  0.00  0.00    +0.000 C 
ATOM     11  C   UNL     1      65.317  50.173  58.138  0.00  0.00    +0.000 C 
ATOM     12  C   UNL     1      64.093  50.554  57.936  0.00  0.00    +0.000 C 
BRANCH  12  13
ATOM     13  C   UNL     1      63.690  51.725  58.633  0.00  0.00    +0.000 C 
ATOM     14  C   UNL     1      63.447  52.683  59.314  0.00  0.00    +0.000 C 
BRANCH  14  15
ATOM     15  C   UNL     1      63.266  53.777  60.199  0.00  0.00    +0.000 A 
ATOM     16  O   UNL     1      61.889  54.109  60.550  0.00  0.00    +0.000 OA
ATOM     17  C   UNL     1      61.578  55.139  61.434  0.00  0.00    +0.000 A 
ATOM     18  O   UNL     1      60.446  55.433  61.789  0.00  0.00    +0.000 OA
ATOM     19  C   UNL     1      62.755  55.807  61.906  0.00  0.00    +0.000 A 
ATOM     20  C   UNL     1      63.897  55.579  61.644  0.00  0.00    +0.000 A 
ATOM     21  C   UNL     1      64.361  54.563  60.779  0.00  0.00    +0.000 A 
ATOM     22  C   UNL     1      65.824  54.341  60.564  0.00  0.00    +0.000 C 
ENDBRANCH  14  15
ENDBRANCH  12  13
BRANCH  12  23
ATOM     23  C   UNL     1      63.275  49.813  57.046  0.00  0.00    +0.000 C 
ATOM     24  C   UNL     1      62.396  49.011  56.080  0.00  0.00    +0.000 C 
ENDBRANCH  12  23
ENDBRANCH   8   9
ENDBRANCH   7   8
ENDBRANCH   2   6
BRANCH   4  25
ATOM     25  C   UNL     1      69.773  55.821  61.684  0.00  0.00    +0.000 C 
ATOM     26  O   UNL     1      69.145  55.492  60.672  0.00  0.00    +0.000 OA
BRANCH  25  27
ATOM     27  C   UNL     1      70.003  57.262  62.002  0.00  0.00    +0.000 C 
ATOM     28  C   UNL     1      71.306  57.931  61.573  0.00  0.00    +0.000 C 
BRANCH  27  29
ATOM     29  C   UNL     1      69.118  57.914  62.963  0.00  0.00    +0.000 C 
BRANCH  29  30
ATOM     30  C   UNL     1      69.306  58.091  64.392  0.00  0.00    +0.000 C 
ATOM     31  C   UNL     1      69.814  56.947  65.244  0.00  0.00    +0.000 C 
ATOM     32  C   UNL     1      69.213  59.340  65.047  0.00  0.00    +0.000 C 
ATOM     33  C   UNL     1      69.119  60.554  65.760  0.00  0.00    +0.000 C 
ATOM     34  C   UNL     1      68.011  61.504  65.424  0.00  0.00    +0.000 C 
ATOM     35  C   UNL     1      70.037  60.888  66.600  0.00  0.00    +0.000 C 
ATOM     36  C   UNL     1      71.070  61.245  67.510  0.00  0.00    +0.000 C 
ATOM     37  O   UNL     1      72.232  61.380  67.172  0.00  0.00    +0.000 OA
BRANCH  36  38
ATOM     38  O   UNL     1      70.656  61.398  68.777  0.00  0.00    +0.000 OA
ATOM     39  H   UNL     1      71.045  62.251  69.061  0.00  0.00    +0.000 HD
ENDBRANCH  36  38
ENDBRANCH  29  30
BRANCH  29  40
ATOM     40  O   UNL     1      67.954  58.474  62.431  0.00  0.00    +0.000 OA
ATOM     41  H   UNL     1      67.336  58.770  63.132  0.00  0.00    +0.000 HD
ENDBRANCH  29  40
ENDBRANCH  27  29
ENDBRANCH  25  27
ENDBRANCH   4  25
TORSDOF 12
ENDMDL
MODEL 5
REMARK VINA RESULT:      -6.3     14.046     19.060
REMARK  Name = Leptomycin.pdbqt.pdb
REMARK  12 active torsions:
REMARK  status: ('A' for Active; 'I' for Inactive)
REMARK    1  A    between atoms: C_2  and  C_4
REMARK    2  A    between atoms: C_5  and  C_6
REMARK    3  A    between atoms: C_6  and  C_7
REMARK    4  A    between atoms: C_10  and  C_11
REMARK    5  A    between atoms: C_10  and  C_21
REMARK    6  A    between atoms: C_12  and  C_13
REMARK    7  A    between atoms: C_23  and  C_25
REMARK    8  A    between atoms: C_25  and  C_27
REMARK    9  A    between atoms: C_27  and  C_29
REMARK   10  A    between atoms: C_29  and  O_30
REMARK   11  A    between atoms: C_29  and  C_32
REMARK   12  A    between atoms: C_38  and  O_40
REMARK                            x       y       z     vdW  Elec       q    Type
REMARK                         _______ _______ _______ _____ _____    ______ ____
ROOT
ATOM      1  C   UNL     1      59.348  70.932  68.709  0.00  0.00    +0.000 C 
ATOM      2  C   UNL     1      59.875  72.107  68.595  0.00  0.00    +0.000 C 
ATOM      3  C   UNL     1      59.013  73.311  68.842  0.00  0.00    +0.000 C 
ATOM      4  C   UNL     1      58.836  69.619  68.870  0.00  0.00    +0.000 C 
ATOM      5  C   UNL     1      58.046  69.085  67.686  0.00  0.00    +0.000 C 
ENDROOT
BRANCH   2   6
ATOM      6  C   UNL     1      61.279  72.242  68.728  0.00  0.00    +0.000 C 
ATOM      7  C   UNL     1      62.474  72.353  68.776  0.00  0.00    +0.000 C 
BRANCH   7   8
ATOM      8  C   UNL     1      63.999  72.485  68.712  0.00  0.00    +0.000 C 
BRANCH   8   9
ATOM      9  C   UNL     1      65.401  72.623  68.853  0.00  0.00    +0.000 C 
ATOM     10  C   UNL     1      65.973  73.932  69.302  0.00  0.00    +0.000 C 
ATOM     11  C   UNL     1      66.283  71.582  68.473  0.00  0.00    +0.000 C 
ATOM     12  C   UNL     1      66.930  70.535  68.062  0.00  0.00    +0.000 C 
BRANCH  12  13
ATOM     13  C   UNL     1      66.136  69.512  67.477  0.00  0.00    +0.000 C 
ATOM     14  C   UNL     1      65.399  68.748  66.915  0.00  0.00    +0.000 C 
BRANCH  14  15
ATOM     15  C   UNL     1      64.477  67.956  66.184  0.00  0.00    +0.000 A 
ATOM     16  O   UNL     1      65.044  67.053  65.187  0.00  0.00    +0.000 OA
ATOM     17  C   UNL     1      64.251  66.198  64.427  0.00  0.00    +0.000 A 
ATOM     18  O   UNL     1      64.677  65.399  63.607  0.00  0.00    +0.000 OA
ATOM     19  C   UNL     1      62.860  66.348  64.737  0.00  0.00    +0.000 A 
ATOM     20  C   UNL     1      62.348  67.073  65.536  0.00  0.00    +0.000 A 
ATOM     21  C   UNL     1      63.023  67.980  66.382  0.00  0.00    +0.000 A 
ATOM     22  C   UNL     1      62.278  68.807  67.380  0.00  0.00    +0.000 C 
ENDBRANCH  14  15
ENDBRANCH  12  13
BRANCH  12  23
ATOM     23  C   UNL     1      68.340  70.492  68.201  0.00  0.00    +0.000 C 
ATOM     24  C   UNL     1      69.866  70.452  68.345  0.00  0.00    +0.000 C 
ENDBRANCH  12  23
ENDBRANCH   8   9
ENDBRANCH   7   8
ENDBRANCH   2   6
BRANCH   4  25
ATOM     25  C   UNL     1      59.507  68.691  69.832  0.00  0.00    +0.000 C 
ATOM     26  O   UNL     1      60.587  68.962  70.367  0.00  0.00    +0.000 OA
BRANCH  25  27
ATOM     27  C   UNL     1      58.842  67.377  70.084  0.00  0.00    +0.000 C 
ATOM     28  C   UNL     1      57.780  67.267  71.177  0.00  0.00    +0.000 C 
BRANCH  27  29
ATOM     29  C   UNL     1      59.422  66.176  69.492  0.00  0.00    +0.000 C 
BRANCH  29  30
ATOM     30  C   UNL     1      58.911  65.367  68.401  0.00  0.00    +0.000 C 
ATOM     31  C   UNL     1      59.840  64.463  67.619  0.00  0.00    +0.000 C 
ATOM     32  C   UNL     1      57.535  65.220  68.110  0.00  0.00    +0.000 C 
ATOM     33  C   UNL     1      56.179  65.046  67.761  0.00  0.00    +0.000 C 
ATOM     34  C   UNL     1      55.271  66.237  67.781  0.00  0.00    +0.000 C 
ATOM     35  C   UNL     1      55.710  63.866  67.544  0.00  0.00    +0.000 C 
ATOM     36  C   UNL     1      55.208  62.554  67.326  0.00  0.00    +0.000 C 
ATOM     37  O   UNL     1      55.238  61.685  68.177  0.00  0.00    +0.000 OA
BRANCH  36  38
ATOM     38  O   UNL     1      54.719  62.352  66.092  0.00  0.00    +0.000 OA
ATOM     39  H   UNL     1      55.504  62.392  65.508  0.00  0.00    +0.000 HD
ENDBRANCH  36  38
ENDBRANCH  29  30
BRANCH  29  40
ATOM     40  O   UNL     1      60.652  65.775  70.021  0.00  0.00    +0.000 OA
ATOM     41  H   UNL     1      60.862  64.846  69.793  0.00  0.00    +0.000 HD
ENDBRANCH  29  40
ENDBRANCH  27  29
ENDBRANCH  25  27
ENDBRANCH   4  25
TORSDOF 12
ENDMDL
MODEL 6
REMARK VINA RESULT:      -6.2     27.771     32.561
REMARK  Name = Leptomycin.pdbqt.pdb
REMARK  12 active torsions:
REMARK  status: ('A' for Active; 'I' for Inactive)
REMARK    1  A    between atoms: C_2  and  C_4
REMARK    2  A    between atoms: C_5  and  C_6
REMARK    3  A    between atoms: C_6  and  C_7
REMARK    4  A    between atoms: C_10  and  C_11
REMARK    5  A    between atoms: C_10  and  C_21
REMARK    6  A    between atoms: C_12  and  C_13
REMARK    7  A    between atoms: C_23  and  C_25
REMARK    8  A    between atoms: C_25  and  C_27
REMARK    9  A    between atoms: C_27  and  C_29
REMARK   10  A    between atoms: C_29  and  O_30
REMARK   11  A    between atoms: C_29  and  C_32
REMARK   12  A    between atoms: C_38  and  O_40
REMARK                            x       y       z     vdW  Elec       q    Type
REMARK                         _______ _______ _______ _____ _____    ______ ____
ROOT
ATOM      1  C   UNL     1      57.963  73.222  80.775  0.00  0.00    +0.000 C 
ATOM      2  C   UNL     1      58.437  73.480  81.951  0.00  0.00    +0.000 C 
ATOM      3  C   UNL     1      58.478  74.907  82.414  0.00  0.00    +0.000 C 
ATOM      4  C   UNL     1      57.408  72.877  79.517  0.00  0.00    +0.000 C 
ATOM      5  C   UNL     1      58.339  73.057  78.329  0.00  0.00    +0.000 C 
ENDROOT
BRANCH   2   6
ATOM      6  C   UNL     1      58.441  72.452  82.925  0.00  0.00    +0.000 C 
ATOM      7  C   UNL     1      58.419  71.539  83.707  0.00  0.00    +0.000 C 
BRANCH   7   8
ATOM      8  C   UNL     1      58.339  70.307  84.613  0.00  0.00    +0.000 C 
BRANCH   8   9
ATOM      9  C   UNL     1      58.359  69.280  85.588  0.00  0.00    +0.000 C 
ATOM     10  C   UNL     1      57.840  67.920  85.239  0.00  0.00    +0.000 C 
ATOM     11  C   UNL     1      58.760  69.541  86.921  0.00  0.00    +0.000 C 
ATOM     12  C   UNL     1      59.140  69.969  88.086  0.00  0.00    +0.000 C 
BRANCH  12  13
ATOM     13  C   UNL     1      59.368  71.368  88.182  0.00  0.00    +0.000 C 
ATOM     14  C   UNL     1      59.424  72.566  88.261  0.00  0.00    +0.000 C 
BRANCH  14  15
ATOM     15  C   UNL     1      59.351  73.979  88.359  0.00  0.00    +0.000 A 
ATOM     16  O   UNL     1      59.970  74.582  89.535  0.00  0.00    +0.000 OA
ATOM     17  C   UNL     1      59.997  75.960  89.734  0.00  0.00    +0.000 A 
ATOM     18  O   UNL     1      60.532  76.516  90.681  0.00  0.00    +0.000 OA
ATOM     19  C   UNL     1      59.336  76.662  88.673  0.00  0.00    +0.000 A 
ATOM     20  C   UNL     1      58.812  76.216  87.698  0.00  0.00    +0.000 A 
ATOM     21  C   UNL     1      58.719  74.848  87.359  0.00  0.00    +0.000 A 
ATOM     22  C   UNL     1      58.077  74.409  86.081  0.00  0.00    +0.000 C 
ENDBRANCH  14  15
ENDBRANCH  12  13
BRANCH  12  23
ATOM     23  C   UNL     1      59.277  69.046  89.152  0.00  0.00    +0.000 C 
ATOM     24  C   UNL     1      59.421  68.042  90.302  0.00  0.00    +0.000 C 
ENDBRANCH  12  23
ENDBRANCH   8   9
ENDBRANCH   7   8
ENDBRANCH   2   6
BRANCH   4  25
ATOM     25  C   UNL     1      56.271  71.906  79.467  0.00  0.00    +0.000 C 
ATOM     26  O   UNL     1      56.448  70.684  79.426  0.00  0.00    +0.000 OA
BRANCH  25  27
ATOM     27  C   UNL     1      54.892  72.477  79.409  0.00  0.00    +0.000 C 
ATOM     28  C   UNL     1      54.334  72.965  78.074  0.00  0.00    +0.000 C 
BRANCH  27  29
ATOM     29  C   UNL     1      54.228  72.826  80.661  0.00  0.00    +0.000 C 
BRANCH  29  30
ATOM     30  C   UNL     1      54.674  72.582  82.021  0.00  0.00    +0.000 C 
ATOM     31  C   UNL     1      54.800  73.729  83.001  0.00  0.00    +0.000 C 
ATOM     32  C   UNL     1      54.842  71.291  82.573  0.00  0.00    +0.000 C 
ATOM     33  C   UNL     1      55.043  70.032  83.175  0.00  0.00    +0.000 C 
ATOM     34  C   UNL     1      55.707  68.950  82.380  0.00  0.00    +0.000 C 
ATOM     35  C   UNL     1      54.558  69.784  84.342  0.00  0.00    +0.000 C 
ATOM     36  C   UNL     1      54.000  69.527  85.625  0.00  0.00    +0.000 C 
ATOM     37  O   UNL     1      52.806  69.593  85.851  0.00  0.00    +0.000 OA
BRANCH  36  38
ATOM     38  O   UNL     1      54.907  69.226  86.567  0.00  0.00    +0.000 OA
ATOM     39  H   UNL     1      55.359  70.075  86.752  0.00  0.00    +0.000 HD
ENDBRANCH  36  38
ENDBRANCH  29  30
BRANCH  29  40
ATOM     40  O   UNL     1      53.022  73.520  80.533  0.00  0.00    +0.000 OA
ATOM     41  H   UNL     1      52.718  73.558  79.603  0.00  0.00    +0.000 HD
ENDBRANCH  29  40
ENDBRANCH  27  29
ENDBRANCH  25  27
ENDBRANCH   4  25
TORSDOF 12
ENDMDL
MODEL 7
REMARK VINA RESULT:      -6.2     24.301     26.810
REMARK  Name = Leptomycin.pdbqt.pdb
REMARK  12 active torsions:
REMARK  status: ('A' for Active; 'I' for Inactive)
REMARK    1  A    between atoms: C_2  and  C_4
REMARK    2  A    between atoms: C_5  and  C_6
REMARK    3  A    between atoms: C_6  and  C_7
REMARK    4  A    between atoms: C_10  and  C_11
REMARK    5  A    between atoms: C_10  and  C_21
REMARK    6  A    between atoms: C_12  and  C_13
REMARK    7  A    between atoms: C_23  and  C_25
REMARK    8  A    between atoms: C_25  and  C_27
REMARK    9  A    between atoms: C_27  and  C_29
REMARK   10  A    between atoms: C_29  and  O_30
REMARK   11  A    between atoms: C_29  and  C_32
REMARK   12  A    between atoms: C_38  and  O_40
REMARK                            x       y       z     vdW  Elec       q    Type
REMARK                         _______ _______ _______ _____ _____    ______ ____
ROOT
ATOM      1  C   UNL     1      54.440  57.728  82.794  0.00  0.00    +0.000 C 
ATOM      2  C   UNL     1      53.482  56.970  83.219  0.00  0.00    +0.000 C 
ATOM      3  C   UNL     1      53.363  56.719  84.694  0.00  0.00    +0.000 C 
ATOM      4  C   UNL     1      55.440  58.590  82.277  0.00  0.00    +0.000 C 
ATOM      5  C   UNL     1      56.813  57.960  82.107  0.00  0.00    +0.000 C 
ENDROOT
BRANCH   2   6
ATOM      6  C   UNL     1      52.331  56.806  82.409  0.00  0.00    +0.000 C 
ATOM      7  C   UNL     1      51.361  56.603  81.730  0.00  0.00    +0.000 C 
BRANCH   7   8
ATOM      8  C   UNL     1      50.146  56.220  80.880  0.00  0.00    +0.000 C 
BRANCH   8   9
ATOM      9  C   UNL     1      49.092  55.998  79.960  0.00  0.00    +0.000 C 
ATOM     10  C   UNL     1      48.609  57.127  79.104  0.00  0.00    +0.000 C 
ATOM     11  C   UNL     1      48.411  54.757  79.910  0.00  0.00    +0.000 C 
ATOM     12  C   UNL     1      47.899  53.569  80.018  0.00  0.00    +0.000 C 
BRANCH  12  13
ATOM     13  C   UNL     1      48.415  52.771  81.074  0.00  0.00    +0.000 C 
ATOM     14  C   UNL     1      48.955  52.066  81.882  0.00  0.00    +0.000 C 
BRANCH  14  15
ATOM     15  C   UNL     1      49.696  51.219  82.745  0.00  0.00    +0.000 A 
ATOM     16  O   UNL     1      50.154  51.808  84.000  0.00  0.00    +0.000 OA
ATOM     17  C   UNL     1      50.861  51.074  84.948  0.00  0.00    +0.000 A 
ATOM     18  O   UNL     1      51.235  51.509  86.027  0.00  0.00    +0.000 OA
ATOM     19  C   UNL     1      51.083  49.725  84.518  0.00  0.00    +0.000 A 
ATOM     20  C   UNL     1      50.737  49.200  83.504  0.00  0.00    +0.000 A 
ATOM     21  C   UNL     1      50.006  49.813  82.462  0.00  0.00    +0.000 A 
ATOM     22  C   UNL     1      49.585  49.038  81.253  0.00  0.00    +0.000 C 
ENDBRANCH  14  15
ENDBRANCH  12  13
BRANCH  12  23
ATOM     23  C   UNL     1      46.878  53.170  79.119  0.00  0.00    +0.000 C 
ATOM     24  C   UNL     1      45.775  52.732  78.149  0.00  0.00    +0.000 C 
ENDBRANCH  12  23
ENDBRANCH   8   9
ENDBRANCH   7   8
ENDBRANCH   2   6
BRANCH   4  25
ATOM     25  C   UNL     1      55.026  59.772  81.457  0.00  0.00    +0.000 C 
ATOM     26  O   UNL     1      55.026  59.751  80.222  0.00  0.00    +0.000 OA
BRANCH  25  27
ATOM     27  C   UNL     1      54.664  61.018  82.197  0.00  0.00    +0.000 C 
ATOM     28  C   UNL     1      55.556  62.252  82.079  0.00  0.00    +0.000 C 
BRANCH  27  29
ATOM     29  C   UNL     1      53.642  60.940  83.237  0.00  0.00    +0.000 C 
BRANCH  29  30
ATOM     30  C   UNL     1      53.814  60.973  84.678  0.00  0.00    +0.000 C 
ATOM     31  C   UNL     1      52.827  61.721  85.549  0.00  0.00    +0.000 C 
ATOM     32  C   UNL     1      54.766  60.193  85.374  0.00  0.00    +0.000 C 
ATOM     33  C   UNL     1      55.704  59.452  86.123  0.00  0.00    +0.000 C 
ATOM     34  C   UNL     1      57.101  59.317  85.598  0.00  0.00    +0.000 C 
ATOM     35  C   UNL     1      55.334  58.807  87.175  0.00  0.00    +0.000 C 
ATOM     36  C   UNL     1      54.900  58.089  88.323  0.00  0.00    +0.000 C 
ATOM     37  O   UNL     1      54.051  57.219  88.277  0.00  0.00    +0.000 OA
BRANCH  36  38
ATOM     38  O   UNL     1      55.494  58.471  89.464  0.00  0.00    +0.000 OA
ATOM     39  H   UNL     1      56.299  57.916  89.519  0.00  0.00    +0.000 HD
ENDBRANCH  36  38
ENDBRANCH  29  30
BRANCH  29  40
ATOM     40  O   UNL     1      52.323  60.862  82.785  0.00  0.00    +0.000 OA
ATOM     41  H   UNL     1      51.679  61.009  83.508  0.00  0.00    +0.000 HD
ENDBRANCH  29  40
ENDBRANCH  27  29
ENDBRANCH  25  27
ENDBRANCH   4  25
TORSDOF 12
ENDMDL
MODEL 8
REMARK VINA RESULT:      -6.2     24.300     29.063
REMARK  Name = Leptomycin.pdbqt.pdb
REMARK  12 active torsions:
REMARK  status: ('A' for Active; 'I' for Inactive)
REMARK    1  A    between atoms: C_2  and  C_4
REMARK    2  A    between atoms: C_5  and  C_6
REMARK    3  A    between atoms: C_6  and  C_7
REMARK    4  A    between atoms: C_10  and  C_11
REMARK    5  A    between atoms: C_10  and  C_21
REMARK    6  A    between atoms: C_12  and  C_13
REMARK    7  A    between atoms: C_23  and  C_25
REMARK    8  A    between atoms: C_25  and  C_27
REMARK    9  A    between atoms: C_27  and  C_29
REMARK   10  A    between atoms: C_29  and  O_30
REMARK   11  A    between atoms: C_29  and  C_32
REMARK   12  A    between atoms: C_38  and  O_40
REMARK                            x       y       z     vdW  Elec       q    Type
REMARK                         _______ _______ _______ _____ _____    ______ ____
ROOT
ATOM      1  C   UNL     1      54.932  63.351  82.574  0.00  0.00    +0.000 C 
ATOM      2  C   UNL     1      54.966  64.640  82.679  0.00  0.00    +0.000 C 
ATOM      3  C   UNL     1      54.054  65.458  81.811  0.00  0.00    +0.000 C 
ATOM      4  C   UNL     1      54.901  61.934  82.536  0.00  0.00    +0.000 C 
ATOM      5  C   UNL     1      55.692  61.301  81.403  0.00  0.00    +0.000 C 
ENDROOT
BRANCH   2   6
ATOM      6  C   UNL     1      55.452  65.214  83.880  0.00  0.00    +0.000 C 
ATOM      7  C   UNL     1      55.896  65.745  84.862  0.00  0.00    +0.000 C 
BRANCH   7   8
ATOM      8  C   UNL     1      56.520  66.503  86.037  0.00  0.00    +0.000 C 
BRANCH   8   9
ATOM      9  C   UNL     1      57.029  67.371  87.034  0.00  0.00    +0.000 C 
ATOM     10  C   UNL     1      56.835  67.031  88.479  0.00  0.00    +0.000 C 
ATOM     11  C   UNL     1      57.623  68.611  86.694  0.00  0.00    +0.000 C 
ATOM     12  C   UNL     1      58.117  69.704  86.197  0.00  0.00    +0.000 C 
BRANCH  12  13
ATOM     13  C   UNL     1      57.972  69.860  84.792  0.00  0.00    +0.000 C 
ATOM     14  C   UNL     1      57.742  70.073  83.633  0.00  0.00    +0.000 C 
BRANCH  14  15
ATOM     15  C   UNL     1      57.369  70.409  82.306  0.00  0.00    +0.000 A 
ATOM     16  O   UNL     1      56.391  69.536  81.664  0.00  0.00    +0.000 OA
ATOM     17  C   UNL     1      55.917  69.776  80.377  0.00  0.00    +0.000 A 
ATOM     18  O   UNL     1      55.074  69.098  79.809  0.00  0.00    +0.000 OA
ATOM     19  C   UNL     1      56.523  70.937  79.796  0.00  0.00    +0.000 A 
ATOM     20  C   UNL     1      57.329  71.677  80.275  0.00  0.00    +0.000 A 
ATOM     21  C   UNL     1      57.887  71.567  81.568  0.00  0.00    +0.000 A 
ATOM     22  C   UNL     1      58.856  72.584  82.080  0.00  0.00    +0.000 C 
ENDBRANCH  14  15
ENDBRANCH  12  13
BRANCH  12  23
ATOM     23  C   UNL     1      58.727  70.645  87.063  0.00  0.00    +0.000 C 
ATOM     24  C   UNL     1      59.382  71.661  88.006  0.00  0.00    +0.000 C 
ENDBRANCH  12  23
ENDBRANCH   8   9
ENDBRANCH   7   8
ENDBRANCH   2   6
BRANCH   4  25
ATOM     25  C   UNL     1      54.621  61.181  83.798  0.00  0.00    +0.000 C 
ATOM     26  O   UNL     1      55.421  61.148  84.739  0.00  0.00    +0.000 OA
BRANCH  25  27
ATOM     27  C   UNL     1      53.344  60.407  83.857  0.00  0.00    +0.000 C 
ATOM     28  C   UNL     1      52.049  61.119  84.241  0.00  0.00    +0.000 C 
BRANCH  27  29
ATOM     29  C   UNL     1      53.410  58.949  83.839  0.00  0.00    +0.000 C 
BRANCH  29  30
ATOM     30  C   UNL     1      53.019  58.039  82.777  0.00  0.00    +0.000 C 
ATOM     31  C   UNL     1      52.731  56.585  83.084  0.00  0.00    +0.000 C 
ATOM     32  C   UNL     1      52.709  58.454  81.461  0.00  0.00    +0.000 C 
ATOM     33  C   UNL     1      52.402  58.803  80.130  0.00  0.00    +0.000 C 
ATOM     34  C   UNL     1      53.256  59.819  79.435  0.00  0.00    +0.000 C 
ATOM     35  C   UNL     1      51.338  58.345  79.565  0.00  0.00    +0.000 C 
ATOM     36  C   UNL     1      50.150  57.841  78.968  0.00  0.00    +0.000 C 
ATOM     37  O   UNL     1      49.041  58.055  79.419  0.00  0.00    +0.000 OA
BRANCH  36  38
ATOM     38  O   UNL     1      50.362  57.092  77.875  0.00  0.00    +0.000 OA
ATOM     39  H   UNL     1      51.219  56.648  78.045  0.00  0.00    +0.000 HD
ENDBRANCH  36  38
ENDBRANCH  29  30
BRANCH  29  40
ATOM     40  O   UNL     1      53.956  58.353  84.978  0.00  0.00    +0.000 OA
ATOM     41  H   UNL     1      54.666  57.716  84.753  0.00  0.00    +0.000 HD
ENDBRANCH  29  40
ENDBRANCH  27  29
ENDBRANCH  25  27
ENDBRANCH   4  25
TORSDOF 12
ENDMDL
MODEL 9
REMARK VINA RESULT:      -6.2     27.032     31.275
REMARK  Name = Leptomycin.pdbqt.pdb
REMARK  12 active torsions:
REMARK  status: ('A' for Active; 'I' for Inactive)
REMARK    1  A    between atoms: C_2  and  C_4
REMARK    2  A    between atoms: C_5  and  C_6
REMARK    3  A    between atoms: C_6  and  C_7
REMARK    4  A    between atoms: C_10  and  C_11
REMARK    5  A    between atoms: C_10  and  C_21
REMARK    6  A    between atoms: C_12  and  C_13
REMARK    7  A    between atoms: C_23  and  C_25
REMARK    8  A    between atoms: C_25  and  C_27
REMARK    9  A    between atoms: C_27  and  C_29
REMARK   10  A    between atoms: C_29  and  O_30
REMARK   11  A    between atoms: C_29  and  C_32
REMARK   12  A    between atoms: C_38  and  O_40
REMARK                            x       y       z     vdW  Elec       q    Type
REMARK                         _______ _______ _______ _____ _____    ______ ____
ROOT
ATOM      1  C   UNL     1      55.993  70.434  80.095  0.00  0.00    +0.000 C 
ATOM      2  C   UNL     1      55.416  69.360  80.529  0.00  0.00    +0.000 C 
ATOM      3  C   UNL     1      54.886  68.373  79.530  0.00  0.00    +0.000 C 
ATOM      4  C   UNL     1      56.677  71.602  79.676  0.00  0.00    +0.000 C 
ATOM      5  C   UNL     1      55.784  72.761  79.260  0.00  0.00    +0.000 C 
ENDROOT
BRANCH   2   6
ATOM      6  C   UNL     1      55.717  68.905  81.836  0.00  0.00    +0.000 C 
ATOM      7  C   UNL     1      56.031  68.501  82.924  0.00  0.00    +0.000 C 
BRANCH   7   8
ATOM      8  C   UNL     1      56.540  67.950  84.259  0.00  0.00    +0.000 C 
BRANCH   8   9
ATOM      9  C   UNL     1      56.819  67.391  85.530  0.00  0.00    +0.000 C 
ATOM     10  C   UNL     1      56.472  65.960  85.799  0.00  0.00    +0.000 C 
ATOM     11  C   UNL     1      57.319  68.188  86.588  0.00  0.00    +0.000 C 
ATOM     12  C   UNL     1      57.757  69.070  87.434  0.00  0.00    +0.000 C 
BRANCH  12  13
ATOM     13  C   UNL     1      57.784  70.411  86.965  0.00  0.00    +0.000 C 
ATOM     14  C   UNL     1      57.834  71.581  86.698  0.00  0.00    +0.000 C 
BRANCH  14  15
ATOM     15  C   UNL     1      57.931  72.984  86.514  0.00  0.00    +0.000 A 
ATOM     16  O   UNL     1      56.837  73.622  85.789  0.00  0.00    +0.000 OA
ATOM     17  C   UNL     1      56.796  74.997  85.571  0.00  0.00    +0.000 A 
ATOM     18  O   UNL     1      55.887  75.584  85.003  0.00  0.00    +0.000 OA
ATOM     19  C   UNL     1      57.945  75.656  86.117  0.00  0.00    +0.000 A 
ATOM     20  C   UNL     1      58.866  75.180  86.710  0.00  0.00    +0.000 A 
ATOM     21  C   UNL     1      59.035  73.811  87.015  0.00  0.00    +0.000 A 
ATOM     22  C   UNL     1      60.211  73.336  87.808  0.00  0.00    +0.000 C 
ENDBRANCH  14  15
ENDBRANCH  12  13
BRANCH  12  23
ATOM     23  C   UNL     1      58.145  68.653  88.731  0.00  0.00    +0.000 C 
ATOM     24  C   UNL     1      58.568  68.195  90.132  0.00  0.00    +0.000 C 
ENDBRANCH  12  23
ENDBRANCH   8   9
ENDBRANCH   7   8
ENDBRANCH   2   6
BRANCH   4  25
ATOM     25  C   UNL     1      58.073  71.839  80.160  0.00  0.00    +0.000 C 
ATOM     26  O   UNL     1      59.062  71.633  79.450  0.00  0.00    +0.000 OA
BRANCH  25  27
ATOM     27  C   UNL     1      58.233  72.284  81.578  0.00  0.00    +0.000 C 
ATOM     28  C   UNL     1      58.607  71.264  82.651  0.00  0.00    +0.000 C 
BRANCH  27  29
ATOM     29  C   UNL     1      57.745  73.608  81.952  0.00  0.00    +0.000 C 
BRANCH  29  30
ATOM     30  C   UNL     1      58.187  74.905  81.472  0.00  0.00    +0.000 C 
ATOM     31  C   UNL     1      58.325  76.069  82.429  0.00  0.00    +0.000 C 
ATOM     32  C   UNL     1      58.679  75.132  80.166  0.00  0.00    +0.000 C 
ATOM     33  C   UNL     1      59.166  75.425  78.874  0.00  0.00    +0.000 C 
ATOM     34  C   UNL     1      58.479  74.818  77.690  0.00  0.00    +0.000 C 
ATOM     35  C   UNL     1      60.250  76.105  78.726  0.00  0.00    +0.000 C 
ATOM     36  C   UNL     1      61.457  76.844  78.586  0.00  0.00    +0.000 C 
ATOM     37  O   UNL     1      62.520  76.466  79.045  0.00  0.00    +0.000 OA
BRANCH  36  38
ATOM     38  O   UNL     1      61.318  78.001  77.922  0.00  0.00    +0.000 OA
ATOM     39  H   UNL     1      61.347  77.747  76.977  0.00  0.00    +0.000 HD
ENDBRANCH  36  38
ENDBRANCH  29  30
BRANCH  29  40
ATOM     40  O   UNL     1      56.689  73.628  82.866  0.00  0.00    +0.000 OA
ATOM     41  H   UNL     1      56.514  72.741  83.243  0.00  0.00    +0.000 HD
ENDBRANCH  29  40
ENDBRANCH  27  29
ENDBRANCH  25  27
ENDBRANCH   4  25
TORSDOF 12
ENDMDL
