MODEL 1
REMARK VINA RESULT:      -6.6      0.000      0.000
REMARK  Name = Lobelin.pdbqt.pdb
REMARK  3 active torsions:
REMARK  status: ('A' for Active; 'I' for Inactive)
REMARK    1  A    between atoms: C_9  and  O_10
REMARK    2  A    between atoms: C_9  and  C_12
REMARK    3  A    between atoms: C_19  and  C_21
REMARK                            x       y       z     vdW  Elec       q    Type
REMARK                         _______ _______ _______ _____ _____    ______ ____
ROOT
ATOM      1  N   UNL     1      58.053  72.557  81.911  0.00  0.00    +0.000 N 
ATOM      2  C   UNL     1      57.502  73.232  80.740  0.00  0.00    +0.000 C 
ATOM      3  C   UNL     1      57.589  71.220  82.271  0.00  0.00    +0.000 C 
ATOM      4  C   UNL     1      56.547  72.468  80.003  0.00  0.00    +0.000 C 
ATOM      5  C   UNL     1      56.624  70.661  81.379  0.00  0.00    +0.000 C 
ATOM      6  C   UNL     1      55.907  71.096  80.115  0.00  0.00    +0.000 C 
ATOM      7  C   UNL     1      58.964  73.258  82.788  0.00  0.00    +0.000 C 
ATOM      8  C   UNL     1      57.895  74.543  80.357  0.00  0.00    +0.000 C 
ATOM      9  C   UNL     1      58.311  75.842  79.966  0.00  0.00    +0.000 C 
ATOM     10  C   UNL     1      58.073  70.531  83.413  0.00  0.00    +0.000 C 
ATOM     11  C   UNL     1      58.588  69.820  84.552  0.00  0.00    +0.000 C 
ATOM     12  O   UNL     1      59.026  68.688  84.401  0.00  0.00    +0.000 OA
ENDROOT
BRANCH   9  13
ATOM     13  C   UNL     1      59.677  76.183  79.565  0.00  0.00    +0.000 A 
ATOM     14  C   UNL     1      60.201  75.731  78.351  0.00  0.00    +0.000 A 
ATOM     15  C   UNL     1      61.501  76.056  77.969  0.00  0.00    +0.000 A 
ATOM     16  C   UNL     1      62.294  76.841  78.800  0.00  0.00    +0.000 A 
ATOM     17  C   UNL     1      61.788  77.298  80.013  0.00  0.00    +0.000 A 
ATOM     18  C   UNL     1      60.487  76.969  80.390  0.00  0.00    +0.000 A 
ENDBRANCH   9  13
BRANCH  11  19
ATOM     19  C   UNL     1      58.557  70.482  85.868  0.00  0.00    +0.000 A 
ATOM     20  C   UNL     1      59.277  69.975  86.950  0.00  0.00    +0.000 A 
ATOM     21  C   UNL     1      59.234  70.627  88.179  0.00  0.00    +0.000 A 
ATOM     22  C   UNL     1      58.473  71.784  88.327  0.00  0.00    +0.000 A 
ATOM     23  C   UNL     1      57.756  72.293  87.245  0.00  0.00    +0.000 A 
ATOM     24  C   UNL     1      57.799  71.643  86.014  0.00  0.00    +0.000 A 
ENDBRANCH  11  19
BRANCH   9  25
ATOM     25  O   UNL     1      57.386  76.860  79.949  0.00  0.00    +0.000 OA
ATOM     26  H   UNL     1      56.491  76.541  80.157  0.00  0.00    +0.000 HD
ENDBRANCH   9  25
TORSDOF 3
ENDMDL
MODEL 2
REMARK VINA RESULT:      -6.6     39.679     42.015
REMARK  Name = Lobelin.pdbqt.pdb
REMARK  3 active torsions:
REMARK  status: ('A' for Active; 'I' for Inactive)
REMARK    1  A    between atoms: C_9  and  O_10
REMARK    2  A    between atoms: C_9  and  C_12
REMARK    3  A    between atoms: C_19  and  C_21
REMARK                            x       y       z     vdW  Elec       q    Type
REMARK                         _______ _______ _______ _____ _____    ______ ____
ROOT
ATOM      1  N   UNL     1      62.206  42.532  53.229  0.00  0.00    +0.000 N 
ATOM      2  C   UNL     1      61.823  43.885  52.838  0.00  0.00    +0.000 C 
ATOM      3  C   UNL     1      61.923  41.406  52.344  0.00  0.00    +0.000 C 
ATOM      4  C   UNL     1      61.217  43.986  51.548  0.00  0.00    +0.000 C 
ATOM      5  C   UNL     1      61.305  41.758  51.105  0.00  0.00    +0.000 C 
ATOM      6  C   UNL     1      60.828  43.032  50.433  0.00  0.00    +0.000 C 
ATOM      7  C   UNL     1      62.750  42.287  54.546  0.00  0.00    +0.000 C 
ATOM      8  C   UNL     1      62.048  45.015  53.669  0.00  0.00    +0.000 C 
ATOM      9  C   UNL     1      62.299  46.142  54.494  0.00  0.00    +0.000 C 
ATOM     10  C   UNL     1      62.250  40.070  52.688  0.00  0.00    +0.000 C 
ATOM     11  C   UNL     1      62.613  38.718  53.023  0.00  0.00    +0.000 C 
ATOM     12  O   UNL     1      63.271  38.063  52.229  0.00  0.00    +0.000 OA
ENDROOT
BRANCH   9  13
ATOM     13  C   UNL     1      63.635  46.594  54.886  0.00  0.00    +0.000 A 
ATOM     14  C   UNL     1      64.750  45.770  54.710  0.00  0.00    +0.000 A 
ATOM     15  C   UNL     1      66.022  46.200  55.083  0.00  0.00    +0.000 A 
ATOM     16  C   UNL     1      66.193  47.464  55.638  0.00  0.00    +0.000 A 
ATOM     17  C   UNL     1      65.093  48.296  55.821  0.00  0.00    +0.000 A 
ATOM     18  C   UNL     1      63.823  47.860  55.447  0.00  0.00    +0.000 A 
ENDBRANCH   9  13
BRANCH  11  19
ATOM     19  C   UNL     1      62.163  38.169  54.314  0.00  0.00    +0.000 A 
ATOM     20  C   UNL     1      62.779  37.052  54.879  0.00  0.00    +0.000 A 
ATOM     21  C   UNL     1      62.336  36.560  56.104  0.00  0.00    +0.000 A 
ATOM     22  C   UNL     1      61.279  37.184  56.764  0.00  0.00    +0.000 A 
ATOM     23  C   UNL     1      60.666  38.302  56.200  0.00  0.00    +0.000 A 
ATOM     24  C   UNL     1      61.107  38.796  54.976  0.00  0.00    +0.000 A 
ENDBRANCH  11  19
BRANCH   9  25
ATOM     25  O   UNL     1      61.233  46.875  54.962  0.00  0.00    +0.000 OA
ATOM     26  H   UNL     1      60.391  46.403  54.849  0.00  0.00    +0.000 HD
ENDBRANCH   9  25
TORSDOF 3
ENDMDL
MODEL 3
REMARK VINA RESULT:      -6.5     22.181     25.008
REMARK  Name = Lobelin.pdbqt.pdb
REMARK  3 active torsions:
REMARK  status: ('A' for Active; 'I' for Inactive)
REMARK    1  A    between atoms: C_9  and  O_10
REMARK    2  A    between atoms: C_9  and  C_12
REMARK    3  A    between atoms: C_19  and  C_21
REMARK                            x       y       z     vdW  Elec       q    Type
REMARK                         _______ _______ _______ _____ _____    ______ ____
ROOT
ATOM      1  N   UNL     1      72.098  52.892  79.886  0.00  0.00    +0.000 N 
ATOM      2  C   UNL     1      72.631  51.791  79.090  0.00  0.00    +0.000 C 
ATOM      3  C   UNL     1      72.715  54.214  79.814  0.00  0.00    +0.000 C 
ATOM      4  C   UNL     1      73.732  52.139  78.249  0.00  0.00    +0.000 C 
ATOM      5  C   UNL     1      73.809  54.315  78.901  0.00  0.00    +0.000 C 
ATOM      6  C   UNL     1      74.546  53.387  77.955  0.00  0.00    +0.000 C 
ATOM      7  C   UNL     1      71.040  52.648  80.840  0.00  0.00    +0.000 C 
ATOM      8  C   UNL     1      72.090  50.479  79.139  0.00  0.00    +0.000 C 
ATOM      9  C   UNL     1      71.527  49.176  79.175  0.00  0.00    +0.000 C 
ATOM     10  C   UNL     1      72.253  55.310  80.586  0.00  0.00    +0.000 C 
ATOM     11  C   UNL     1      71.761  56.430  81.344  0.00  0.00    +0.000 C 
ATOM     12  O   UNL     1      71.496  57.472  80.764  0.00  0.00    +0.000 OA
ENDROOT
BRANCH   9  13
ATOM     13  C   UNL     1      70.159  48.859  78.763  0.00  0.00    +0.000 A 
ATOM     14  C   UNL     1      69.778  48.943  77.421  0.00  0.00    +0.000 A 
ATOM     15  C   UNL     1      68.475  48.641  77.028  0.00  0.00    +0.000 A 
ATOM     16  C   UNL     1      67.536  48.249  77.977  0.00  0.00    +0.000 A 
ATOM     17  C   UNL     1      67.900  48.162  79.318  0.00  0.00    +0.000 A 
ATOM     18  C   UNL     1      69.204  48.466  79.705  0.00  0.00    +0.000 A 
ENDBRANCH   9  13
BRANCH  11  19
ATOM     19  C   UNL     1      71.608  56.280  82.802  0.00  0.00    +0.000 A 
ATOM     20  C   UNL     1      72.711  56.338  83.655  0.00  0.00    +0.000 A 
ATOM     21  C   UNL     1      72.533  56.199  85.029  0.00  0.00    +0.000 A 
ATOM     22  C   UNL     1      71.256  56.005  85.550  0.00  0.00    +0.000 A 
ATOM     23  C   UNL     1      70.154  55.950  84.698  0.00  0.00    +0.000 A 
ATOM     24  C   UNL     1      70.329  56.089  83.323  0.00  0.00    +0.000 A 
ENDBRANCH  11  19
BRANCH   9  25
ATOM     25  O   UNL     1      72.302  48.128  79.615  0.00  0.00    +0.000 OA
ATOM     26  H   UNL     1      72.734  48.327  80.463  0.00  0.00    +0.000 HD
ENDBRANCH   9  25
TORSDOF 3
ENDMDL
MODEL 4
REMARK VINA RESULT:      -6.3     14.219     17.328
REMARK  Name = Lobelin.pdbqt.pdb
REMARK  3 active torsions:
REMARK  status: ('A' for Active; 'I' for Inactive)
REMARK    1  A    between atoms: C_9  and  O_10
REMARK    2  A    between atoms: C_9  and  C_12
REMARK    3  A    between atoms: C_19  and  C_21
REMARK                            x       y       z     vdW  Elec       q    Type
REMARK                         _______ _______ _______ _____ _____    ______ ____
ROOT
ATOM      1  N   UNL     1      53.040  57.223  82.602  0.00  0.00    +0.000 N 
ATOM      2  C   UNL     1      54.395  57.751  82.718  0.00  0.00    +0.000 C 
ATOM      3  C   UNL     1      52.672  55.991  83.293  0.00  0.00    +0.000 C 
ATOM      4  C   UNL     1      55.260  56.997  83.568  0.00  0.00    +0.000 C 
ATOM      5  C   UNL     1      53.712  55.415  84.084  0.00  0.00    +0.000 C 
ATOM      6  C   UNL     1      55.159  55.735  84.406  0.00  0.00    +0.000 C 
ATOM      7  C   UNL     1      52.095  57.849  81.703  0.00  0.00    +0.000 C 
ATOM      8  C   UNL     1      54.818  58.930  82.047  0.00  0.00    +0.000 C 
ATOM      9  C   UNL     1      55.225  60.122  81.394  0.00  0.00    +0.000 C 
ATOM     10  C   UNL     1      51.376  55.422  83.193  0.00  0.00    +0.000 C 
ATOM     11  C   UNL     1      50.052  54.864  83.117  0.00  0.00    +0.000 C 
ATOM     12  O   UNL     1      49.455  54.604  84.152  0.00  0.00    +0.000 OA
ENDROOT
BRANCH   9  13
ATOM     13  C   UNL     1      54.650  61.442  81.656  0.00  0.00    +0.000 A 
ATOM     14  C   UNL     1      53.330  61.732  81.300  0.00  0.00    +0.000 A 
ATOM     15  C   UNL     1      52.781  62.989  81.550  0.00  0.00    +0.000 A 
ATOM     16  C   UNL     1      53.551  63.973  82.161  0.00  0.00    +0.000 A 
ATOM     17  C   UNL     1      54.867  63.702  82.521  0.00  0.00    +0.000 A 
ATOM     18  C   UNL     1      55.411  62.443  82.267  0.00  0.00    +0.000 A 
ENDBRANCH   9  13
BRANCH  11  19
ATOM     19  C   UNL     1      49.469  54.614  81.788  0.00  0.00    +0.000 A 
ATOM     20  C   UNL     1      49.657  55.510  80.735  0.00  0.00    +0.000 A 
ATOM     21  C   UNL     1      49.099  55.243  79.488  0.00  0.00    +0.000 A 
ATOM     22  C   UNL     1      48.355  54.082  79.293  0.00  0.00    +0.000 A 
ATOM     23  C   UNL     1      48.169  53.185  80.343  0.00  0.00    +0.000 A 
ATOM     24  C   UNL     1      48.727  53.450  81.592  0.00  0.00    +0.000 A 
ENDBRANCH  11  19
BRANCH   9  25
ATOM     25  O   UNL     1      56.228  60.057  80.454  0.00  0.00    +0.000 OA
ATOM     26  H   UNL     1      56.058  60.647  79.700  0.00  0.00    +0.000 HD
ENDBRANCH   9  25
TORSDOF 3
ENDMDL
MODEL 5
REMARK VINA RESULT:      -6.2      0.861      7.993
REMARK  Name = Lobelin.pdbqt.pdb
REMARK  3 active torsions:
REMARK  status: ('A' for Active; 'I' for Inactive)
REMARK    1  A    between atoms: C_9  and  O_10
REMARK    2  A    between atoms: C_9  and  C_12
REMARK    3  A    between atoms: C_19  and  C_21
REMARK                            x       y       z     vdW  Elec       q    Type
REMARK                         _______ _______ _______ _____ _____    ______ ____
ROOT
ATOM      1  N   UNL     1      57.577  72.075  81.575  0.00  0.00    +0.000 N 
ATOM      2  C   UNL     1      57.273  70.787  82.188  0.00  0.00    +0.000 C 
ATOM      3  C   UNL     1      56.856  72.507  80.382  0.00  0.00    +0.000 C 
ATOM      4  C   UNL     1      56.221  70.056  81.555  0.00  0.00    +0.000 C 
ATOM      5  C   UNL     1      55.848  71.601  79.931  0.00  0.00    +0.000 C 
ATOM      6  C   UNL     1      55.307  70.250  80.359  0.00  0.00    +0.000 C 
ATOM      7  C   UNL     1      58.679  72.870  82.072  0.00  0.00    +0.000 C 
ATOM      8  C   UNL     1      57.960  70.302  83.334  0.00  0.00    +0.000 C 
ATOM      9  C   UNL     1      58.634  69.837  84.493  0.00  0.00    +0.000 C 
ATOM     10  C   UNL     1      57.131  73.737  79.733  0.00  0.00    +0.000 C 
ATOM     11  C   UNL     1      57.388  75.001  79.094  0.00  0.00    +0.000 C 
ATOM     12  O   UNL     1      56.455  75.762  78.882  0.00  0.00    +0.000 OA
ENDROOT
BRANCH   9  13
ATOM     13  C   UNL     1      58.593  70.506  85.794  0.00  0.00    +0.000 A 
ATOM     14  C   UNL     1      59.314  70.003  86.880  0.00  0.00    +0.000 A 
ATOM     15  C   UNL     1      59.276  70.640  88.120  0.00  0.00    +0.000 A 
ATOM     16  C   UNL     1      58.513  71.792  88.285  0.00  0.00    +0.000 A 
ATOM     17  C   UNL     1      57.788  72.304  87.214  0.00  0.00    +0.000 A 
ATOM     18  C   UNL     1      57.830  71.662  85.977  0.00  0.00    +0.000 A 
ENDBRANCH   9  13
BRANCH  11  19
ATOM     19  C   UNL     1      58.772  75.325  78.707  0.00  0.00    +0.000 A 
ATOM     20  C   UNL     1      59.334  74.817  77.536  0.00  0.00    +0.000 A 
ATOM     21  C   UNL     1      60.642  75.147  77.194  0.00  0.00    +0.000 A 
ATOM     22  C   UNL     1      61.388  75.985  78.020  0.00  0.00    +0.000 A 
ATOM     23  C   UNL     1      60.825  76.496  79.188  0.00  0.00    +0.000 A 
ATOM     24  C   UNL     1      59.517  76.167  79.532  0.00  0.00    +0.000 A 
ENDBRANCH  11  19
BRANCH   9  25
ATOM     25  O   UNL     1      59.374  68.679  84.413  0.00  0.00    +0.000 OA
ATOM     26  H   UNL     1      59.843  68.490  85.243  0.00  0.00    +0.000 HD
ENDBRANCH   9  25
TORSDOF 3
ENDMDL
MODEL 6
REMARK VINA RESULT:      -6.2     28.627     30.842
REMARK  Name = Lobelin.pdbqt.pdb
REMARK  3 active torsions:
REMARK  status: ('A' for Active; 'I' for Inactive)
REMARK    1  A    between atoms: C_9  and  O_10
REMARK    2  A    between atoms: C_9  and  C_12
REMARK    3  A    between atoms: C_19  and  C_21
REMARK                            x       y       z     vdW  Elec       q    Type
REMARK                         _______ _______ _______ _____ _____    ______ ____
ROOT
ATOM      1  N   UNL     1      68.125  54.268  60.030  0.00  0.00    +0.000 N 
ATOM      2  C   UNL     1      68.026  53.375  58.881  0.00  0.00    +0.000 C 
ATOM      3  C   UNL     1      68.974  55.454  59.965  0.00  0.00    +0.000 C 
ATOM      4  C   UNL     1      68.774  53.788  57.736  0.00  0.00    +0.000 C 
ATOM      5  C   UNL     1      69.627  55.655  58.711  0.00  0.00    +0.000 C 
ATOM      6  C   UNL     1      69.695  54.939  57.375  0.00  0.00    +0.000 C 
ATOM      7  C   UNL     1      67.484  53.915  61.277  0.00  0.00    +0.000 C 
ATOM      8  C   UNL     1      67.238  52.192  58.895  0.00  0.00    +0.000 C 
ATOM      9  C   UNL     1      66.429  51.027  58.909  0.00  0.00    +0.000 C 
ATOM     10  C   UNL     1      69.125  56.340  61.062  0.00  0.00    +0.000 C 
ATOM     11  C   UNL     1      69.252  57.257  62.164  0.00  0.00    +0.000 C 
ATOM     12  O   UNL     1      69.051  58.448  61.976  0.00  0.00    +0.000 OA
ENDROOT
BRANCH   9  13
ATOM     13  C   UNL     1      64.974  51.037  59.072  0.00  0.00    +0.000 A 
ATOM     14  C   UNL     1      64.250  49.842  59.103  0.00  0.00    +0.000 A 
ATOM     15  C   UNL     1      62.865  49.850  59.258  0.00  0.00    +0.000 A 
ATOM     16  C   UNL     1      62.187  51.058  59.386  0.00  0.00    +0.000 A 
ATOM     17  C   UNL     1      62.894  52.257  59.356  0.00  0.00    +0.000 A 
ATOM     18  C   UNL     1      64.279  52.242  59.199  0.00  0.00    +0.000 A 
ENDBRANCH   9  13
BRANCH  11  19
ATOM     19  C   UNL     1      69.632  56.722  63.484  0.00  0.00    +0.000 A 
ATOM     20  C   UNL     1      70.010  55.389  63.642  0.00  0.00    +0.000 A 
ATOM     21  C   UNL     1      70.370  54.915  64.901  0.00  0.00    +0.000 A 
ATOM     22  C   UNL     1      70.355  55.772  65.999  0.00  0.00    +0.000 A 
ATOM     23  C   UNL     1      69.980  57.106  65.839  0.00  0.00    +0.000 A 
ATOM     24  C   UNL     1      69.620  57.582  64.581  0.00  0.00    +0.000 A 
ENDBRANCH  11  19
BRANCH   9  25
ATOM     25  O   UNL     1      67.028  49.798  58.754  0.00  0.00    +0.000 OA
ATOM     26  H   UNL     1      66.501  49.084  59.150  0.00  0.00    +0.000 HD
ENDBRANCH   9  25
TORSDOF 3
ENDMDL
MODEL 7
REMARK VINA RESULT:      -6.1     13.301     16.783
REMARK  Name = Lobelin.pdbqt.pdb
REMARK  3 active torsions:
REMARK  status: ('A' for Active; 'I' for Inactive)
REMARK    1  A    between atoms: C_9  and  O_10
REMARK    2  A    between atoms: C_9  and  C_12
REMARK    3  A    between atoms: C_19  and  C_21
REMARK                            x       y       z     vdW  Elec       q    Type
REMARK                         _______ _______ _______ _____ _____    ______ ____
ROOT
ATOM      1  N   UNL     1      62.719  69.047  67.958  0.00  0.00    +0.000 N 
ATOM      2  C   UNL     1      62.995  67.617  68.043  0.00  0.00    +0.000 C 
ATOM      3  C   UNL     1      63.759  69.970  67.513  0.00  0.00    +0.000 C 
ATOM      4  C   UNL     1      64.307  67.236  67.626  0.00  0.00    +0.000 C 
ATOM      5  C   UNL     1      64.994  69.349  67.151  0.00  0.00    +0.000 C 
ATOM      6  C   UNL     1      65.550  67.939  67.112  0.00  0.00    +0.000 C 
ATOM      7  C   UNL     1      61.456  69.569  68.433  0.00  0.00    +0.000 C 
ATOM      8  C   UNL     1      62.031  66.676  68.495  0.00  0.00    +0.000 C 
ATOM      9  C   UNL     1      61.054  65.740  68.923  0.00  0.00    +0.000 C 
ATOM     10  C   UNL     1      63.550  71.370  67.437  0.00  0.00    +0.000 C 
ATOM     11  C   UNL     1      63.327  72.788  67.329  0.00  0.00    +0.000 C 
ATOM     12  O   UNL     1      63.581  73.353  66.275  0.00  0.00    +0.000 OA
ENDROOT
BRANCH   9  13
ATOM     13  C   UNL     1      59.792  65.491  68.227  0.00  0.00    +0.000 A 
ATOM     14  C   UNL     1      58.692  66.333  68.414  0.00  0.00    +0.000 A 
ATOM     15  C   UNL     1      57.489  66.097  67.751  0.00  0.00    +0.000 A 
ATOM     16  C   UNL     1      57.373  65.011  66.889  0.00  0.00    +0.000 A 
ATOM     17  C   UNL     1      58.458  64.162  66.693  0.00  0.00    +0.000 A 
ATOM     18  C   UNL     1      59.658  64.403  67.359  0.00  0.00    +0.000 A 
ENDBRANCH   9  13
BRANCH  11  19
ATOM     19  C   UNL     1      62.808  73.510  68.503  0.00  0.00    +0.000 A 
ATOM     20  C   UNL     1      63.539  73.582  69.689  0.00  0.00    +0.000 A 
ATOM     21  C   UNL     1      63.025  74.278  70.780  0.00  0.00    +0.000 A 
ATOM     22  C   UNL     1      61.783  74.902  70.685  0.00  0.00    +0.000 A 
ATOM     23  C   UNL     1      61.054  74.833  69.499  0.00  0.00    +0.000 A 
ATOM     24  C   UNL     1      61.566  74.138  68.407  0.00  0.00    +0.000 A 
ENDBRANCH  11  19
BRANCH   9  25
ATOM     25  O   UNL     1      61.293  65.003  70.061  0.00  0.00    +0.000 OA
ATOM     26  H   UNL     1      62.213  65.086  70.361  0.00  0.00    +0.000 HD
ENDBRANCH   9  25
TORSDOF 3
ENDMDL
MODEL 8
REMARK VINA RESULT:      -6.0      1.863      8.062
REMARK  Name = Lobelin.pdbqt.pdb
REMARK  3 active torsions:
REMARK  status: ('A' for Active; 'I' for Inactive)
REMARK    1  A    between atoms: C_9  and  O_10
REMARK    2  A    between atoms: C_9  and  C_12
REMARK    3  A    between atoms: C_19  and  C_21
REMARK                            x       y       z     vdW  Elec       q    Type
REMARK                         _______ _______ _______ _____ _____    ______ ____
ROOT
ATOM      1  N   UNL     1      57.722  74.356  82.249  0.00  0.00    +0.000 N 
ATOM      2  C   UNL     1      56.632  73.392  82.354  0.00  0.00    +0.000 C 
ATOM      3  C   UNL     1      57.439  75.748  81.912  0.00  0.00    +0.000 C 
ATOM      4  C   UNL     1      55.328  73.938  82.146  0.00  0.00    +0.000 C 
ATOM      5  C   UNL     1      56.053  76.054  81.747  0.00  0.00    +0.000 C 
ATOM      6  C   UNL     1      54.740  75.297  81.814  0.00  0.00    +0.000 C 
ATOM      7  C   UNL     1      59.094  73.911  82.354  0.00  0.00    +0.000 C 
ATOM      8  C   UNL     1      56.849  72.020  82.653  0.00  0.00    +0.000 C 
ATOM      9  C   UNL     1      57.073  70.656  82.976  0.00  0.00    +0.000 C 
ATOM     10  C   UNL     1      58.463  76.719  81.772  0.00  0.00    +0.000 C 
ATOM     11  C   UNL     1      59.500  77.710  81.663  0.00  0.00    +0.000 C 
ATOM     12  O   UNL     1      59.404  78.747  82.303  0.00  0.00    +0.000 OA
ENDROOT
BRANCH   9  13
ATOM     13  C   UNL     1      57.652  70.194  84.238  0.00  0.00    +0.000 A 
ATOM     14  C   UNL     1      57.135  70.624  85.463  0.00  0.00    +0.000 A 
ATOM     15  C   UNL     1      57.685  70.184  86.666  0.00  0.00    +0.000 A 
ATOM     16  C   UNL     1      58.763  69.304  86.655  0.00  0.00    +0.000 A 
ATOM     17  C   UNL     1      59.290  68.867  85.444  0.00  0.00    +0.000 A 
ATOM     18  C   UNL     1      58.736  69.311  84.244  0.00  0.00    +0.000 A 
ENDBRANCH   9  13
BRANCH  11  19
ATOM     19  C   UNL     1      60.640  77.441  80.770  0.00  0.00    +0.000 A 
ATOM     20  C   UNL     1      60.456  76.849  79.520  0.00  0.00    +0.000 A 
ATOM     21  C   UNL     1      61.552  76.613  78.695  0.00  0.00    +0.000 A 
ATOM     22  C   UNL     1      62.831  76.969  79.118  0.00  0.00    +0.000 A 
ATOM     23  C   UNL     1      63.015  77.563  80.365  0.00  0.00    +0.000 A 
ATOM     24  C   UNL     1      61.920  77.801  81.192  0.00  0.00    +0.000 A 
ENDBRANCH  11  19
BRANCH   9  25
ATOM     25  O   UNL     1      56.724  69.689  82.061  0.00  0.00    +0.000 OA
ATOM     26  H   UNL     1      55.782  69.739  81.822  0.00  0.00    +0.000 HD
ENDBRANCH   9  25
TORSDOF 3
ENDMDL
MODEL 9
REMARK VINA RESULT:      -5.8     23.691     26.370
REMARK  Name = Lobelin.pdbqt.pdb
REMARK  3 active torsions:
REMARK  status: ('A' for Active; 'I' for Inactive)
REMARK    1  A    between atoms: C_9  and  O_10
REMARK    2  A    between atoms: C_9  and  C_12
REMARK    3  A    between atoms: C_19  and  C_21
REMARK                            x       y       z     vdW  Elec       q    Type
REMARK                         _______ _______ _______ _____ _____    ______ ____
ROOT
ATOM      1  N   UNL     1      70.535  50.214  80.655  0.00  0.00    +0.000 N 
ATOM      2  C   UNL     1      70.829  50.723  81.991  0.00  0.00    +0.000 C 
ATOM      3  C   UNL     1      69.621  49.089  80.485  0.00  0.00    +0.000 C 
ATOM      4  C   UNL     1      70.131  50.064  83.049  0.00  0.00    +0.000 C 
ATOM      5  C   UNL     1      69.047  48.595  81.696  0.00  0.00    +0.000 C 
ATOM      6  C   UNL     1      69.139  48.922  83.174  0.00  0.00    +0.000 C 
ATOM      7  C   UNL     1      71.243  50.740  79.509  0.00  0.00    +0.000 C 
ATOM      8  C   UNL     1      71.730  51.797  82.220  0.00  0.00    +0.000 C 
ATOM      9  C   UNL     1      72.612  52.887  82.438  0.00  0.00    +0.000 C 
ATOM     10  C   UNL     1      69.321  48.540  79.212  0.00  0.00    +0.000 C 
ATOM     11  C   UNL     1      68.992  48.006  77.917  0.00  0.00    +0.000 C 
ATOM     12  O   UNL     1      67.817  47.893  77.599  0.00  0.00    +0.000 OA
ENDROOT
BRANCH   9  13
ATOM     13  C   UNL     1      72.388  54.242  81.932  0.00  0.00    +0.000 A 
ATOM     14  C   UNL     1      72.414  55.342  82.795  0.00  0.00    +0.000 A 
ATOM     15  C   UNL     1      72.201  56.633  82.314  0.00  0.00    +0.000 A 
ATOM     16  C   UNL     1      71.958  56.838  80.960  0.00  0.00    +0.000 A 
ATOM     17  C   UNL     1      71.927  55.754  80.088  0.00  0.00    +0.000 A 
ATOM     18  C   UNL     1      72.140  54.465  80.575  0.00  0.00    +0.000 A 
ENDBRANCH   9  13
BRANCH  11  19
ATOM     19  C   UNL     1      70.091  47.601  77.023  0.00  0.00    +0.000 A 
ATOM     20  C   UNL     1      70.720  48.524  76.187  0.00  0.00    +0.000 A 
ATOM     21  C   UNL     1      71.760  48.112  75.358  0.00  0.00    +0.000 A 
ATOM     22  C   UNL     1      72.172  46.782  75.365  0.00  0.00    +0.000 A 
ATOM     23  C   UNL     1      71.546  45.861  76.203  0.00  0.00    +0.000 A 
ATOM     24  C   UNL     1      70.505  46.270  77.034  0.00  0.00    +0.000 A 
ENDBRANCH  11  19
BRANCH   9  25
ATOM     25  O   UNL     1      73.756  52.681  83.175  0.00  0.00    +0.000 OA
ATOM     26  H   UNL     1      74.123  53.514  83.516  0.00  0.00    +0.000 HD
ENDBRANCH   9  25
TORSDOF 3
ENDMDL
