MODEL 1
REMARK VINA RESULT:      -5.7      0.000      0.000
REMARK  Name = LUCANTHONE.pdbqt.pdb
REMARK  5 active torsions:
REMARK  status: ('A' for Active; 'I' for Inactive)
REMARK    1  A    between atoms: C_3  and  N_17
REMARK    2  A    between atoms: N_17  and  C_19
REMARK    3  A    between atoms: C_20  and  N_21
REMARK    4  A    between atoms: N_21  and  C_22
REMARK    5  A    between atoms: N_21  and  C_24
REMARK                            x       y       z     vdW  Elec       q    Type
REMARK                         _______ _______ _______ _____ _____    ______ ____
ROOT
ATOM      1  S   UNL     1      69.275  59.967  65.245  0.00  0.00    +0.000 S 
ATOM      2  O   UNL     1      69.521  56.845  62.247  0.00  0.00    +0.000 OA
ATOM      3  C   UNL     1      67.706  58.867  61.583  0.00  0.00    +0.000 A 
ATOM      4  C   UNL     1      68.410  58.840  62.820  0.00  0.00    +0.000 A 
ATOM      5  C   UNL     1      68.362  59.941  63.700  0.00  0.00    +0.000 A 
ATOM      6  C   UNL     1      67.589  61.065  63.325  0.00  0.00    +0.000 A 
ATOM      7  C   UNL     1      69.213  57.626  63.147  0.00  0.00    +0.000 A 
ATOM      8  C   UNL     1      66.935  59.993  61.275  0.00  0.00    +0.000 A 
ATOM      9  C   UNL     1      69.628  57.309  64.520  0.00  0.00    +0.000 A 
ATOM     10  C   UNL     1      66.886  61.085  62.125  0.00  0.00    +0.000 A 
ATOM     11  C   UNL     1      69.658  58.271  65.519  0.00  0.00    +0.000 A 
ATOM     12  C   UNL     1      67.453  62.309  64.176  0.00  0.00    +0.000 C 
ATOM     13  C   UNL     1      70.011  55.992  64.796  0.00  0.00    +0.000 A 
ATOM     14  C   UNL     1      70.070  57.900  66.801  0.00  0.00    +0.000 A 
ATOM     15  C   UNL     1      70.413  55.630  66.078  0.00  0.00    +0.000 A 
ATOM     16  C   UNL     1      70.439  56.587  67.086  0.00  0.00    +0.000 A 
ENDROOT
BRANCH   3  17
ATOM     17  N   UNL     1      67.634  57.729  60.738  0.00  0.00    +0.000 N 
ATOM     18  H   UNL     1      68.176  57.870  59.872  0.00  0.00    +0.000 HD
BRANCH  17  19
ATOM     19  C   UNL     1      66.375  57.015  60.605  0.00  0.00    +0.000 C 
ATOM     20  C   UNL     1      65.049  56.261  60.465  0.00  0.00    +0.000 C 
BRANCH  20  21
ATOM     21  N   UNL     1      63.796  55.536  60.333  0.00  0.00    +0.000 N 
BRANCH  21  22
ATOM     22  C   UNL     1      63.219  55.425  61.660  0.00  0.00    +0.000 C 
ATOM     23  C   UNL     1      62.601  55.320  63.057  0.00  0.00    +0.000 C 
ENDBRANCH  21  22
BRANCH  21  24
ATOM     24  C   UNL     1      64.126  54.187  59.914  0.00  0.00    +0.000 C 
ATOM     25  C   UNL     1      64.471  52.767  59.453  0.00  0.00    +0.000 C 
ENDBRANCH  21  24
ENDBRANCH  20  21
ENDBRANCH  17  19
ENDBRANCH   3  17
TORSDOF 5
ENDMDL
MODEL 2
REMARK VINA RESULT:      -5.5     31.076     32.817
REMARK  Name = LUCANTHONE.pdbqt.pdb
REMARK  5 active torsions:
REMARK  status: ('A' for Active; 'I' for Inactive)
REMARK    1  A    between atoms: C_3  and  N_17
REMARK    2  A    between atoms: N_17  and  C_19
REMARK    3  A    between atoms: C_20  and  N_21
REMARK    4  A    between atoms: N_21  and  C_22
REMARK    5  A    between atoms: N_21  and  C_24
REMARK                            x       y       z     vdW  Elec       q    Type
REMARK                         _______ _______ _______ _____ _____    ______ ____
ROOT
ATOM      1  S   UNL     1      77.728  79.683  82.252  0.00  0.00    +0.000 S 
ATOM      2  O   UNL     1      76.333  83.738  82.890  0.00  0.00    +0.000 OA
ATOM      3  C   UNL     1      75.202  81.894  84.663  0.00  0.00    +0.000 A 
ATOM      4  C   UNL     1      76.084  81.511  83.613  0.00  0.00    +0.000 A 
ATOM      5  C   UNL     1      76.577  80.192  83.531  0.00  0.00    +0.000 A 
ATOM      6  C   UNL     1      76.165  79.261  84.513  0.00  0.00    +0.000 A 
ATOM      7  C   UNL     1      76.484  82.548  82.617  0.00  0.00    +0.000 A 
ATOM      8  C   UNL     1      74.806  80.925  85.592  0.00  0.00    +0.000 A 
ATOM      9  C   UNL     1      77.029  82.196  81.299  0.00  0.00    +0.000 A 
ATOM     10  C   UNL     1      75.289  79.629  85.529  0.00  0.00    +0.000 A 
ATOM     11  C   UNL     1      77.571  80.946  81.037  0.00  0.00    +0.000 A 
ATOM     12  C   UNL     1      76.619  77.817  84.541  0.00  0.00    +0.000 C 
ATOM     13  C   UNL     1      76.998  83.175  80.300  0.00  0.00    +0.000 A 
ATOM     14  C   UNL     1      78.077  80.684  79.762  0.00  0.00    +0.000 A 
ATOM     15  C   UNL     1      77.497  82.902  79.031  0.00  0.00    +0.000 A 
ATOM     16  C   UNL     1      78.037  81.650  78.759  0.00  0.00    +0.000 A 
ENDROOT
BRANCH   3  17
ATOM     17  N   UNL     1      74.592  83.175  84.699  0.00  0.00    +0.000 N 
ATOM     18  H   UNL     1      75.027  83.777  85.415  0.00  0.00    +0.000 HD
BRANCH  17  19
ATOM     19  C   UNL     1      73.151  83.286  84.548  0.00  0.00    +0.000 C 
ATOM     20  C   UNL     1      71.632  83.403  84.391  0.00  0.00    +0.000 C 
BRANCH  20  21
ATOM     21  N   UNL     1      70.189  83.503  84.245  0.00  0.00    +0.000 N 
BRANCH  21  22
ATOM     22  C   UNL     1      69.770  82.435  83.355  0.00  0.00    +0.000 C 
ATOM     23  C   UNL     1      69.324  81.319  82.407  0.00  0.00    +0.000 C 
ENDBRANCH  21  22
BRANCH  21  24
ATOM     24  C   UNL     1      69.915  84.747  83.551  0.00  0.00    +0.000 C 
ATOM     25  C   UNL     1      69.637  86.054  82.802  0.00  0.00    +0.000 C 
ENDBRANCH  21  24
ENDBRANCH  20  21
ENDBRANCH  17  19
ENDBRANCH   3  17
TORSDOF 5
ENDMDL
MODEL 3
REMARK VINA RESULT:      -5.5      6.904      9.470
REMARK  Name = LUCANTHONE.pdbqt.pdb
REMARK  5 active torsions:
REMARK  status: ('A' for Active; 'I' for Inactive)
REMARK    1  A    between atoms: C_3  and  N_17
REMARK    2  A    between atoms: N_17  and  C_19
REMARK    3  A    between atoms: C_20  and  N_21
REMARK    4  A    between atoms: N_21  and  C_22
REMARK    5  A    between atoms: N_21  and  C_24
REMARK                            x       y       z     vdW  Elec       q    Type
REMARK                         _______ _______ _______ _____ _____    ______ ____
ROOT
ATOM      1  S   UNL     1      64.670  54.090  59.346  0.00  0.00    +0.000 S 
ATOM      2  O   UNL     1      61.825  50.916  58.551  0.00  0.00    +0.000 OA
ATOM      3  C   UNL     1      60.652  53.185  59.692  0.00  0.00    +0.000 A 
ATOM      4  C   UNL     1      62.054  53.070  59.475  0.00  0.00    +0.000 A 
ATOM      5  C   UNL     1      62.905  54.179  59.658  0.00  0.00    +0.000 A 
ATOM      6  C   UNL     1      62.329  55.404  60.073  0.00  0.00    +0.000 A 
ATOM      7  C   UNL     1      62.591  51.751  59.030  0.00  0.00    +0.000 A 
ATOM      8  C   UNL     1      60.140  54.412  60.128  0.00  0.00    +0.000 A 
ATOM      9  C   UNL     1      64.011  51.397  59.171  0.00  0.00    +0.000 A 
ATOM     10  C   UNL     1      60.962  55.512  60.303  0.00  0.00    +0.000 A 
ATOM     11  C   UNL     1      64.994  52.360  59.344  0.00  0.00    +0.000 A 
ATOM     12  C   UNL     1      63.128  56.668  60.305  0.00  0.00    +0.000 C 
ATOM     13  C   UNL     1      64.351  50.042  59.112  0.00  0.00    +0.000 A 
ATOM     14  C   UNL     1      66.325  51.951  59.465  0.00  0.00    +0.000 A 
ATOM     15  C   UNL     1      65.678  49.643  59.241  0.00  0.00    +0.000 A 
ATOM     16  C   UNL     1      66.669  50.602  59.421  0.00  0.00    +0.000 A 
ENDROOT
BRANCH   3  17
ATOM     17  N   UNL     1      59.791  52.057  59.639  0.00  0.00    +0.000 N 
ATOM     18  H   UNL     1      60.315  51.196  59.421  0.00  0.00    +0.000 HD
BRANCH  17  19
ATOM     19  C   UNL     1      58.478  52.187  59.030  0.00  0.00    +0.000 C 
ATOM     20  C   UNL     1      57.093  52.323  58.389  0.00  0.00    +0.000 C 
BRANCH  20  21
ATOM     21  N   UNL     1      55.779  52.441  57.778  0.00  0.00    +0.000 N 
BRANCH  21  22
ATOM     22  C   UNL     1      54.966  53.259  58.658  0.00  0.00    +0.000 C 
ATOM     23  C   UNL     1      54.111  54.135  59.579  0.00  0.00    +0.000 C 
ENDBRANCH  21  22
BRANCH  21  24
ATOM     24  C   UNL     1      55.186  51.117  57.782  0.00  0.00    +0.000 C 
ATOM     25  C   UNL     1      54.567  49.716  57.807  0.00  0.00    +0.000 C 
ENDBRANCH  21  24
ENDBRANCH  20  21
ENDBRANCH  17  19
ENDBRANCH   3  17
TORSDOF 5
ENDMDL
MODEL 4
REMARK VINA RESULT:      -5.4      6.574     10.011
REMARK  Name = LUCANTHONE.pdbqt.pdb
REMARK  5 active torsions:
REMARK  status: ('A' for Active; 'I' for Inactive)
REMARK    1  A    between atoms: C_3  and  N_17
REMARK    2  A    between atoms: N_17  and  C_19
REMARK    3  A    between atoms: C_20  and  N_21
REMARK    4  A    between atoms: N_21  and  C_22
REMARK    5  A    between atoms: N_21  and  C_24
REMARK                            x       y       z     vdW  Elec       q    Type
REMARK                         _______ _______ _______ _____ _____    ______ ____
ROOT
ATOM      1  S   UNL     1      64.493  53.988  59.884  0.00  0.00    +0.000 S 
ATOM      2  O   UNL     1      60.234  54.517  60.501  0.00  0.00    +0.000 OA
ATOM      3  C   UNL     1      60.895  51.994  59.491  0.00  0.00    +0.000 A 
ATOM      4  C   UNL     1      61.862  53.017  59.701  0.00  0.00    +0.000 A 
ATOM      5  C   UNL     1      63.240  52.740  59.579  0.00  0.00    +0.000 A 
ATOM      6  C   UNL     1      63.632  51.425  59.236  0.00  0.00    +0.000 A 
ATOM      7  C   UNL     1      61.378  54.378  60.069  0.00  0.00    +0.000 A 
ATOM      8  C   UNL     1      61.336  50.717  59.127  0.00  0.00    +0.000 A 
ATOM      9  C   UNL     1      62.214  55.576  59.907  0.00  0.00    +0.000 A 
ATOM     10  C   UNL     1      62.686  50.429  59.013  0.00  0.00    +0.000 A 
ATOM     11  C   UNL     1      63.594  55.499  59.788  0.00  0.00    +0.000 A 
ATOM     12  C   UNL     1      65.074  50.996  59.074  0.00  0.00    +0.000 C 
ATOM     13  C   UNL     1      61.572  56.819  59.889  0.00  0.00    +0.000 A 
ATOM     14  C   UNL     1      64.326  56.679  59.642  0.00  0.00    +0.000 A 
ATOM     15  C   UNL     1      62.309  57.989  59.736  0.00  0.00    +0.000 A 
ATOM     16  C   UNL     1      63.692  57.919  59.609  0.00  0.00    +0.000 A 
ENDROOT
BRANCH   3  17
ATOM     17  N   UNL     1      59.502  52.271  59.482  0.00  0.00    +0.000 N 
ATOM     18  H   UNL     1      59.118  52.290  60.439  0.00  0.00    +0.000 HD
BRANCH  17  19
ATOM     19  C   UNL     1      58.660  51.675  58.459  0.00  0.00    +0.000 C 
ATOM     20  C   UNL     1      57.774  51.046  57.379  0.00  0.00    +0.000 C 
BRANCH  20  21
ATOM     21  N   UNL     1      56.942  50.449  56.347  0.00  0.00    +0.000 N 
BRANCH  21  22
ATOM     22  C   UNL     1      55.888  49.709  57.016  0.00  0.00    +0.000 C 
ATOM     23  C   UNL     1      54.787  48.919  57.729  0.00  0.00    +0.000 C 
ENDBRANCH  21  22
BRANCH  21  24
ATOM     24  C   UNL     1      57.757  49.468  55.655  0.00  0.00    +0.000 C 
ATOM     25  C   UNL     1      58.620  48.446  54.909  0.00  0.00    +0.000 C 
ENDBRANCH  21  24
ENDBRANCH  20  21
ENDBRANCH  17  19
ENDBRANCH   3  17
TORSDOF 5
ENDMDL
MODEL 5
REMARK VINA RESULT:      -5.3     24.162     26.788
REMARK  Name = LUCANTHONE.pdbqt.pdb
REMARK  5 active torsions:
REMARK  status: ('A' for Active; 'I' for Inactive)
REMARK    1  A    between atoms: C_3  and  N_17
REMARK    2  A    between atoms: N_17  and  C_19
REMARK    3  A    between atoms: C_20  and  N_21
REMARK    4  A    between atoms: N_21  and  C_22
REMARK    5  A    between atoms: N_21  and  C_24
REMARK                            x       y       z     vdW  Elec       q    Type
REMARK                         _______ _______ _______ _____ _____    ______ ____
ROOT
ATOM      1  S   UNL     1      59.756  76.930  80.683  0.00  0.00    +0.000 S 
ATOM      2  O   UNL     1      57.392  73.355  80.030  0.00  0.00    +0.000 OA
ATOM      3  C   UNL     1      58.181  73.681  82.694  0.00  0.00    +0.000 A 
ATOM      4  C   UNL     1      58.589  74.566  81.656  0.00  0.00    +0.000 A 
ATOM      5  C   UNL     1      59.268  75.765  81.957  0.00  0.00    +0.000 A 
ATOM      6  C   UNL     1      59.540  76.058  83.314  0.00  0.00    +0.000 A 
ATOM      7  C   UNL     1      58.262  74.197  80.248  0.00  0.00    +0.000 A 
ATOM      8  C   UNL     1      58.499  74.007  84.017  0.00  0.00    +0.000 A 
ATOM      9  C   UNL     1      58.966  74.788  79.101  0.00  0.00    +0.000 A 
ATOM     10  C   UNL     1      59.157  75.186  84.328  0.00  0.00    +0.000 A 
ATOM     11  C   UNL     1      59.675  75.975  79.206  0.00  0.00    +0.000 A 
ATOM     12  C   UNL     1      60.259  77.308  83.773  0.00  0.00    +0.000 C 
ATOM     13  C   UNL     1      58.890  74.116  77.876  0.00  0.00    +0.000 A 
ATOM     14  C   UNL     1      60.316  76.481  78.073  0.00  0.00    +0.000 A 
ATOM     15  C   UNL     1      59.538  74.624  76.754  0.00  0.00    +0.000 A 
ATOM     16  C   UNL     1      60.256  75.810  76.853  0.00  0.00    +0.000 A 
ENDROOT
BRANCH   3  17
ATOM     17  N   UNL     1      57.610  72.412  82.414  0.00  0.00    +0.000 N 
ATOM     18  H   UNL     1      56.602  72.490  82.212  0.00  0.00    +0.000 HD
BRANCH  17  19
ATOM     19  C   UNL     1      58.027  71.254  83.187  0.00  0.00    +0.000 C 
ATOM     20  C   UNL     1      58.466  70.032  84.000  0.00  0.00    +0.000 C 
BRANCH  20  21
ATOM     21  N   UNL     1      58.876  68.865  84.765  0.00  0.00    +0.000 N 
BRANCH  21  22
ATOM     22  C   UNL     1      57.693  68.050  84.974  0.00  0.00    +0.000 C 
ATOM     23  C   UNL     1      56.449  67.182  85.182  0.00  0.00    +0.000 C 
ENDBRANCH  21  22
BRANCH  21  24
ATOM     24  C   UNL     1      59.287  69.336  86.074  0.00  0.00    +0.000 C 
ATOM     25  C   UNL     1      59.707  69.850  87.455  0.00  0.00    +0.000 C 
ENDBRANCH  21  24
ENDBRANCH  20  21
ENDBRANCH  17  19
ENDBRANCH   3  17
TORSDOF 5
ENDMDL
MODEL 6
REMARK VINA RESULT:      -5.0      5.114      8.055
REMARK  Name = LUCANTHONE.pdbqt.pdb
REMARK  5 active torsions:
REMARK  status: ('A' for Active; 'I' for Inactive)
REMARK    1  A    between atoms: C_3  and  N_17
REMARK    2  A    between atoms: N_17  and  C_19
REMARK    3  A    between atoms: C_20  and  N_21
REMARK    4  A    between atoms: N_21  and  C_22
REMARK    5  A    between atoms: N_21  and  C_24
REMARK                            x       y       z     vdW  Elec       q    Type
REMARK                         _______ _______ _______ _____ _____    ______ ____
ROOT
ATOM      1  S   UNL     1      60.267  58.434  60.255  0.00  0.00    +0.000 S 
ATOM      2  O   UNL     1      64.299  58.352  58.663  0.00  0.00    +0.000 OA
ATOM      3  C   UNL     1      63.837  56.379  60.592  0.00  0.00    +0.000 A 
ATOM      4  C   UNL     1      62.861  57.354  60.238  0.00  0.00    +0.000 A 
ATOM      5  C   UNL     1      61.538  57.255  60.717  0.00  0.00    +0.000 A 
ATOM      6  C   UNL     1      61.212  56.170  61.565  0.00  0.00    +0.000 A 
ATOM      7  C   UNL     1      63.273  58.466  59.333  0.00  0.00    +0.000 A 
ATOM      8  C   UNL     1      63.466  55.342  61.455  0.00  0.00    +0.000 A 
ATOM      9  C   UNL     1      62.509  59.717  59.234  0.00  0.00    +0.000 A 
ATOM     10  C   UNL     1      62.169  55.228  61.926  0.00  0.00    +0.000 A 
ATOM     11  C   UNL     1      61.186  59.805  59.644  0.00  0.00    +0.000 A 
ATOM     12  C   UNL     1      59.833  55.948  62.146  0.00  0.00    +0.000 C 
ATOM     13  C   UNL     1      63.157  60.833  58.695  0.00  0.00    +0.000 A 
ATOM     14  C   UNL     1      60.520  61.025  59.515  0.00  0.00    +0.000 A 
ATOM     15  C   UNL     1      62.486  62.047  58.576  0.00  0.00    +0.000 A 
ATOM     16  C   UNL     1      61.163  62.145  58.991  0.00  0.00    +0.000 A 
ENDROOT
BRANCH   3  17
ATOM     17  N   UNL     1      65.202  56.521  60.229  0.00  0.00    +0.000 N 
ATOM     18  H   UNL     1      65.323  57.236  59.496  0.00  0.00    +0.000 HD
BRANCH  17  19
ATOM     19  C   UNL     1      66.041  55.339  60.124  0.00  0.00    +0.000 C 
ATOM     20  C   UNL     1      66.928  54.094  60.015  0.00  0.00    +0.000 C 
BRANCH  20  21
ATOM     21  N   UNL     1      67.775  52.918  59.902  0.00  0.00    +0.000 N 
BRANCH  21  22
ATOM     22  C   UNL     1      66.913  51.794  59.583  0.00  0.00    +0.000 C 
ATOM     23  C   UNL     1      65.998  50.617  59.235  0.00  0.00    +0.000 C 
ENDBRANCH  21  22
BRANCH  21  24
ATOM     24  C   UNL     1      68.320  52.657  61.220  0.00  0.00    +0.000 C 
ATOM     25  C   UNL     1      68.916  52.381  62.604  0.00  0.00    +0.000 C 
ENDBRANCH  21  24
ENDBRANCH  20  21
ENDBRANCH  17  19
ENDBRANCH   3  17
TORSDOF 5
ENDMDL
MODEL 7
REMARK VINA RESULT:      -5.0     27.312     29.280
REMARK  Name = LUCANTHONE.pdbqt.pdb
REMARK  5 active torsions:
REMARK  status: ('A' for Active; 'I' for Inactive)
REMARK    1  A    between atoms: C_3  and  N_17
REMARK    2  A    between atoms: N_17  and  C_19
REMARK    3  A    between atoms: C_20  and  N_21
REMARK    4  A    between atoms: N_21  and  C_22
REMARK    5  A    between atoms: N_21  and  C_24
REMARK                            x       y       z     vdW  Elec       q    Type
REMARK                         _______ _______ _______ _____ _____    ______ ____
ROOT
ATOM      1  S   UNL     1      51.960  33.308  59.542  0.00  0.00    +0.000 S 
ATOM      2  O   UNL     1      52.473  33.840  55.270  0.00  0.00    +0.000 OA
ATOM      3  C   UNL     1      54.096  31.824  56.331  0.00  0.00    +0.000 A 
ATOM      4  C   UNL     1      53.251  32.637  57.138  0.00  0.00    +0.000 A 
ATOM      5  C   UNL     1      53.055  32.339  58.503  0.00  0.00    +0.000 A 
ATOM      6  C   UNL     1      53.726  31.218  59.047  0.00  0.00    +0.000 A 
ATOM      7  C   UNL     1      52.568  33.797  56.496  0.00  0.00    +0.000 A 
ATOM      8  C   UNL     1      54.757  30.745  56.927  0.00  0.00    +0.000 A 
ATOM      9  C   UNL     1      52.026  34.916  57.278  0.00  0.00    +0.000 A 
ATOM     10  C   UNL     1      54.566  30.434  58.263  0.00  0.00    +0.000 A 
ATOM     11  C   UNL     1      51.754  34.802  58.634  0.00  0.00    +0.000 A 
ATOM     12  C   UNL     1      53.602  30.789  60.493  0.00  0.00    +0.000 C 
ATOM     13  C   UNL     1      51.774  36.118  56.607  0.00  0.00    +0.000 A 
ATOM     14  C   UNL     1      51.234  35.906  59.313  0.00  0.00    +0.000 A 
ATOM     15  C   UNL     1      51.262  37.214  57.294  0.00  0.00    +0.000 A 
ATOM     16  C   UNL     1      50.993  37.109  58.653  0.00  0.00    +0.000 A 
ENDROOT
BRANCH   3  17
ATOM     17  N   UNL     1      54.412  32.172  54.991  0.00  0.00    +0.000 N 
ATOM     18  H   UNL     1      53.612  32.004  54.362  0.00  0.00    +0.000 HD
BRANCH  17  19
ATOM     19  C   UNL     1      55.728  31.859  54.461  0.00  0.00    +0.000 C 
ATOM     20  C   UNL     1      57.116  31.527  53.904  0.00  0.00    +0.000 C 
BRANCH  20  21
ATOM     21  N   UNL     1      58.437  31.210  53.385  0.00  0.00    +0.000 N 
BRANCH  21  22
ATOM     22  C   UNL     1      59.407  31.684  54.356  0.00  0.00    +0.000 C 
ATOM     23  C   UNL     1      60.440  32.184  55.369  0.00  0.00    +0.000 C 
ENDBRANCH  21  22
BRANCH  21  24
ATOM     24  C   UNL     1      58.629  32.008  52.189  0.00  0.00    +0.000 C 
ATOM     25  C   UNL     1      58.822  32.836  50.915  0.00  0.00    +0.000 C 
ENDBRANCH  21  24
ENDBRANCH  20  21
ENDBRANCH  17  19
ENDBRANCH   3  17
TORSDOF 5
ENDMDL
MODEL 8
REMARK VINA RESULT:      -5.0      6.290      9.557
REMARK  Name = LUCANTHONE.pdbqt.pdb
REMARK  5 active torsions:
REMARK  status: ('A' for Active; 'I' for Inactive)
REMARK    1  A    between atoms: C_3  and  N_17
REMARK    2  A    between atoms: N_17  and  C_19
REMARK    3  A    between atoms: C_20  and  N_21
REMARK    4  A    between atoms: N_21  and  C_22
REMARK    5  A    between atoms: N_21  and  C_24
REMARK                            x       y       z     vdW  Elec       q    Type
REMARK                         _______ _______ _______ _____ _____    ______ ____
ROOT
ATOM      1  S   UNL     1      64.096  55.401  60.790  0.00  0.00    +0.000 S 
ATOM      2  O   UNL     1      60.734  52.870  59.748  0.00  0.00    +0.000 OA
ATOM      3  C   UNL     1      63.204  51.760  59.051  0.00  0.00    +0.000 A 
ATOM      4  C   UNL     1      63.076  53.059  59.617  0.00  0.00    +0.000 A 
ATOM      5  C   UNL     1      64.216  53.782  60.026  0.00  0.00    +0.000 A 
ATOM      6  C   UNL     1      65.487  53.184  59.849  0.00  0.00    +0.000 A 
ATOM      7  C   UNL     1      61.705  53.623  59.782  0.00  0.00    +0.000 A 
ATOM      8  C   UNL     1      64.486  51.228  58.874  0.00  0.00    +0.000 A 
ATOM      9  C   UNL     1      61.468  55.063  59.956  0.00  0.00    +0.000 A 
ATOM     10  C   UNL     1      65.614  51.922  59.279  0.00  0.00    +0.000 A 
ATOM     11  C   UNL     1      62.470  55.929  60.368  0.00  0.00    +0.000 A 
ATOM     12  C   UNL     1      66.787  53.850  60.245  0.00  0.00    +0.000 C 
ATOM     13  C   UNL     1      60.179  55.544  59.702  0.00  0.00    +0.000 A 
ATOM     14  C   UNL     1      62.171  57.285  60.518  0.00  0.00    +0.000 A 
ATOM     15  C   UNL     1      59.893  56.898  59.847  0.00  0.00    +0.000 A 
ATOM     16  C   UNL     1      60.893  57.773  60.254  0.00  0.00    +0.000 A 
ENDROOT
BRANCH   3  17
ATOM     17  N   UNL     1      62.089  51.063  58.516  0.00  0.00    +0.000 N 
ATOM     18  H   UNL     1      61.478  50.702  59.264  0.00  0.00    +0.000 HD
BRANCH  17  19
ATOM     19  C   UNL     1      62.269  50.205  57.357  0.00  0.00    +0.000 C 
ATOM     20  C   UNL     1      62.461  49.301  56.135  0.00  0.00    +0.000 C 
BRANCH  20  21
ATOM     21  N   UNL     1      62.645  48.452  54.969  0.00  0.00    +0.000 N 
BRANCH  21  22
ATOM     22  C   UNL     1      61.570  47.477  54.971  0.00  0.00    +0.000 C 
ATOM     23  C   UNL     1      60.434  46.451  54.958  0.00  0.00    +0.000 C 
ENDBRANCH  21  22
BRANCH  21  24
ATOM     24  C   UNL     1      63.875  47.709  55.172  0.00  0.00    +0.000 C 
ATOM     25  C   UNL     1      65.164  46.908  55.378  0.00  0.00    +0.000 C 
ENDBRANCH  21  24
ENDBRANCH  20  21
ENDBRANCH  17  19
ENDBRANCH   3  17
TORSDOF 5
ENDMDL
MODEL 9
REMARK VINA RESULT:      -5.0     21.834     23.931
REMARK  Name = LUCANTHONE.pdbqt.pdb
REMARK  5 active torsions:
REMARK  status: ('A' for Active; 'I' for Inactive)
REMARK    1  A    between atoms: C_3  and  N_17
REMARK    2  A    between atoms: N_17  and  C_19
REMARK    3  A    between atoms: C_20  and  N_21
REMARK    4  A    between atoms: N_21  and  C_22
REMARK    5  A    between atoms: N_21  and  C_24
REMARK                            x       y       z     vdW  Elec       q    Type
REMARK                         _______ _______ _______ _____ _____    ______ ____
ROOT
ATOM      1  S   UNL     1      52.841  56.216  83.403  0.00  0.00    +0.000 S 
ATOM      2  O   UNL     1      51.879  59.528  80.776  0.00  0.00    +0.000 OA
ATOM      3  C   UNL     1      50.349  57.242  80.270  0.00  0.00    +0.000 A 
ATOM      4  C   UNL     1      51.389  57.273  81.242  0.00  0.00    +0.000 A 
ATOM      5  C   UNL     1      51.575  56.195  82.132  0.00  0.00    +0.000 A 
ATOM      6  C   UNL     1      50.708  55.081  82.025  0.00  0.00    +0.000 A 
ATOM      7  C   UNL     1      52.259  58.483  81.303  0.00  0.00    +0.000 A 
ATOM      8  C   UNL     1      49.539  56.104  80.190  0.00  0.00    +0.000 A 
ATOM      9  C   UNL     1      53.578  58.466  81.951  0.00  0.00    +0.000 A 
ATOM     10  C   UNL     1      49.704  55.042  81.064  0.00  0.00    +0.000 A 
ATOM     11  C   UNL     1      53.934  57.487  82.868  0.00  0.00    +0.000 A 
ATOM     12  C   UNL     1      50.800  53.861  82.916  0.00  0.00    +0.000 C 
ATOM     13  C   UNL     1      54.477  59.486  81.622  0.00  0.00    +0.000 A 
ATOM     14  C   UNL     1      55.203  57.536  83.448  0.00  0.00    +0.000 A 
ATOM     15  C   UNL     1      55.742  59.523  82.200  0.00  0.00    +0.000 A 
ATOM     16  C   UNL     1      56.108  58.542  83.115  0.00  0.00    +0.000 A 
ENDROOT
BRANCH   3  17
ATOM     17  N   UNL     1      50.218  58.253  79.282  0.00  0.00    +0.000 N 
ATOM     18  H   UNL     1      49.926  59.150  79.700  0.00  0.00    +0.000 HD
BRANCH  17  19
ATOM     19  C   UNL     1      49.638  57.922  77.991  0.00  0.00    +0.000 C 
ATOM     20  C   UNL     1      49.028  57.574  76.630  0.00  0.00    +0.000 C 
BRANCH  20  21
ATOM     21  N   UNL     1      48.449  57.255  75.334  0.00  0.00    +0.000 N 
BRANCH  21  22
ATOM     22  C   UNL     1      48.768  58.351  74.438  0.00  0.00    +0.000 C 
ATOM     23  C   UNL     1      49.104  59.498  73.481  0.00  0.00    +0.000 C 
ENDBRANCH  21  22
BRANCH  21  24
ATOM     24  C   UNL     1      47.008  57.262  75.497  0.00  0.00    +0.000 C 
ATOM     25  C   UNL     1      45.487  57.251  75.677  0.00  0.00    +0.000 C 
ENDBRANCH  21  24
ENDBRANCH  20  21
ENDBRANCH  17  19
ENDBRANCH   3  17
TORSDOF 5
ENDMDL
