MODEL 1
REMARK VINA RESULT:      -5.6      0.000      0.000
REMARK  Name = MeIQx.pdbqt.pdb
REMARK  0 active torsions:
REMARK  status: ('A' for Active; 'I' for Inactive)
REMARK                            x       y       z     vdW  Elec       q    Type
REMARK                         _______ _______ _______ _____ _____    ______ ____
ROOT
ATOM      1  N   UNL     1      62.368  37.264  55.803  0.00  0.00    +0.000 N 
ATOM      2  N   UNL     1      61.380  39.205  56.205  0.00  0.00    +0.000 NA
ATOM      3  N   UNL     1      61.998  41.645  54.692  0.00  0.00    +0.000 NA
ATOM      4  N   UNL     1      63.957  41.432  52.639  0.00  0.00    +0.000 NA
ATOM      5  C   UNL     1      62.925  38.130  54.901  0.00  0.00    +0.000 A 
ATOM      6  C   UNL     1      62.292  39.343  55.170  0.00  0.00    +0.000 A 
ATOM      7  C   UNL     1      62.639  40.481  54.399  0.00  0.00    +0.000 A 
ATOM      8  C   UNL     1      63.615  40.361  53.381  0.00  0.00    +0.000 A 
ATOM      9  C   UNL     1      61.443  37.946  56.578  0.00  0.00    +0.000 A 
ATOM     10  C   UNL     1      63.889  37.980  53.902  0.00  0.00    +0.000 A 
ATOM     11  C   UNL     1      64.208  39.125  53.163  0.00  0.00    +0.000 A 
ATOM     12  C   UNL     1      62.671  35.865  55.896  0.00  0.00    +0.000 C 
ATOM     13  C   UNL     1      62.355  42.705  53.939  0.00  0.00    +0.000 A 
ATOM     14  C   UNL     1      63.314  42.597  52.936  0.00  0.00    +0.000 A 
ATOM     15  C   UNL     1      61.690  44.027  54.198  0.00  0.00    +0.000 C 
ATOM     16  N   UNL     1      60.717  37.384  57.570  0.00  0.00    +0.000 N 
ATOM     17  H   UNL     1      59.929  37.905  57.943  0.00  0.00    +0.000 HD
ATOM     18  H   UNL     1      60.652  36.373  57.660  0.00  0.00    +0.000 HD
ENDROOT
TORSDOF 0
ENDMDL
MODEL 2
REMARK VINA RESULT:      -5.1     11.740     13.191
REMARK  Name = MeIQx.pdbqt.pdb
REMARK  0 active torsions:
REMARK  status: ('A' for Active; 'I' for Inactive)
REMARK                            x       y       z     vdW  Elec       q    Type
REMARK                         _______ _______ _______ _____ _____    ______ ____
ROOT
ATOM      1  N   UNL     1      52.230  35.203  57.467  0.00  0.00    +0.000 N 
ATOM      2  N   UNL     1      51.896  36.669  59.092  0.00  0.00    +0.000 NA
ATOM      3  N   UNL     1      52.257  36.006  61.929  0.00  0.00    +0.000 NA
ATOM      4  N   UNL     1      53.072  33.349  62.542  0.00  0.00    +0.000 NA
ATOM      5  C   UNL     1      52.500  34.512  58.618  0.00  0.00    +0.000 A 
ATOM      6  C   UNL     1      52.283  35.450  59.627  0.00  0.00    +0.000 A 
ATOM      7  C   UNL     1      52.477  35.061  60.976  0.00  0.00    +0.000 A 
ATOM      8  C   UNL     1      52.883  33.736  61.266  0.00  0.00    +0.000 A 
ATOM      9  C   UNL     1      51.864  36.500  57.789  0.00  0.00    +0.000 A 
ATOM     10  C   UNL     1      52.903  33.199  58.874  0.00  0.00    +0.000 A 
ATOM     11  C   UNL     1      53.082  32.850  60.216  0.00  0.00    +0.000 A 
ATOM     12  C   UNL     1      52.352  34.670  56.141  0.00  0.00    +0.000 C 
ATOM     13  C   UNL     1      52.451  35.598  63.200  0.00  0.00    +0.000 A 
ATOM     14  C   UNL     1      52.849  34.298  63.496  0.00  0.00    +0.000 A 
ATOM     15  C   UNL     1      52.232  36.584  64.312  0.00  0.00    +0.000 C 
ATOM     16  N   UNL     1      51.528  37.444  56.882  0.00  0.00    +0.000 N 
ATOM     17  H   UNL     1      51.471  38.410  57.193  0.00  0.00    +0.000 HD
ATOM     18  H   UNL     1      51.734  37.316  55.894  0.00  0.00    +0.000 HD
ENDROOT
TORSDOF 0
ENDMDL
MODEL 3
REMARK VINA RESULT:      -5.1     12.418     14.927
REMARK  Name = MeIQx.pdbqt.pdb
REMARK  0 active torsions:
REMARK  status: ('A' for Active; 'I' for Inactive)
REMARK                            x       y       z     vdW  Elec       q    Type
REMARK                         _______ _______ _______ _____ _____    ______ ____
ROOT
ATOM      1  N   UNL     1      48.268  35.876  63.159  0.00  0.00    +0.000 N 
ATOM      2  N   UNL     1      48.131  36.573  61.062  0.00  0.00    +0.000 NA
ATOM      3  N   UNL     1      50.396  36.449  59.197  0.00  0.00    +0.000 NA
ATOM      4  N   UNL     1      52.836  35.377  60.195  0.00  0.00    +0.000 NA
ATOM      5  C   UNL     1      49.513  35.651  62.637  0.00  0.00    +0.000 A 
ATOM      6  C   UNL     1      49.407  36.096  61.320  0.00  0.00    +0.000 A 
ATOM      7  C   UNL     1      50.541  36.006  60.474  0.00  0.00    +0.000 A 
ATOM      8  C   UNL     1      51.749  35.470  60.984  0.00  0.00    +0.000 A 
ATOM      9  C   UNL     1      47.459  36.437  62.183  0.00  0.00    +0.000 A 
ATOM     10  C   UNL     1      50.690  35.116  63.167  0.00  0.00    +0.000 A 
ATOM     11  C   UNL     1      51.788  35.044  62.305  0.00  0.00    +0.000 A 
ATOM     12  C   UNL     1      47.862  35.541  64.494  0.00  0.00    +0.000 C 
ATOM     13  C   UNL     1      51.496  36.347  58.423  0.00  0.00    +0.000 A 
ATOM     14  C   UNL     1      52.687  35.823  58.914  0.00  0.00    +0.000 A 
ATOM     15  C   UNL     1      51.416  36.813  56.997  0.00  0.00    +0.000 C 
ATOM     16  N   UNL     1      46.168  36.788  62.372  0.00  0.00    +0.000 N 
ATOM     17  H   UNL     1      45.604  37.001  61.555  0.00  0.00    +0.000 HD
ATOM     18  H   UNL     1      45.651  36.458  63.184  0.00  0.00    +0.000 HD
ENDROOT
TORSDOF 0
ENDMDL
MODEL 4
REMARK VINA RESULT:      -5.0     11.587     13.633
REMARK  Name = MeIQx.pdbqt.pdb
REMARK  0 active torsions:
REMARK  status: ('A' for Active; 'I' for Inactive)
REMARK                            x       y       z     vdW  Elec       q    Type
REMARK                         _______ _______ _______ _____ _____    ______ ____
ROOT
ATOM      1  N   UNL     1      52.373  33.122  55.837  0.00  0.00    +0.000 N 
ATOM      2  N   UNL     1      50.673  32.501  57.113  0.00  0.00    +0.000 NA
ATOM      3  N   UNL     1      49.891  33.960  59.538  0.00  0.00    +0.000 NA
ATOM      4  N   UNL     1      51.428  36.257  60.217  0.00  0.00    +0.000 NA
ATOM      5  C   UNL     1      52.342  34.046  56.848  0.00  0.00    +0.000 A 
ATOM      6  C   UNL     1      51.268  33.638  57.638  0.00  0.00    +0.000 A 
ATOM      7  C   UNL     1      50.946  34.390  58.796  0.00  0.00    +0.000 A 
ATOM      8  C   UNL     1      51.719  35.531  59.121  0.00  0.00    +0.000 A 
ATOM      9  C   UNL     1      51.355  32.202  56.030  0.00  0.00    +0.000 A 
ATOM     10  C   UNL     1      53.121  35.167  57.142  0.00  0.00    +0.000 A 
ATOM     11  C   UNL     1      52.776  35.884  58.293  0.00  0.00    +0.000 A 
ATOM     12  C   UNL     1      53.292  33.139  54.736  0.00  0.00    +0.000 C 
ATOM     13  C   UNL     1      49.616  34.701  60.631  0.00  0.00    +0.000 A 
ATOM     14  C   UNL     1      50.370  35.823  60.961  0.00  0.00    +0.000 A 
ATOM     15  C   UNL     1      48.462  34.293  61.503  0.00  0.00    +0.000 C 
ATOM     16  N   UNL     1      51.111  31.154  55.213  0.00  0.00    +0.000 N 
ATOM     17  H   UNL     1      50.231  30.656  55.319  0.00  0.00    +0.000 HD
ATOM     18  H   UNL     1      51.529  31.105  54.287  0.00  0.00    +0.000 HD
ENDROOT
TORSDOF 0
ENDMDL
MODEL 5
REMARK VINA RESULT:      -4.9     11.146     14.116
REMARK  Name = MeIQx.pdbqt.pdb
REMARK  0 active torsions:
REMARK  status: ('A' for Active; 'I' for Inactive)
REMARK                            x       y       z     vdW  Elec       q    Type
REMARK                         _______ _______ _______ _____ _____    ______ ____
ROOT
ATOM      1  N   UNL     1      51.970  34.557  58.117  0.00  0.00    +0.000 N 
ATOM      2  N   UNL     1      53.136  35.658  59.644  0.00  0.00    +0.000 NA
ATOM      3  N   UNL     1      52.166  36.078  62.384  0.00  0.00    +0.000 NA
ATOM      4  N   UNL     1      49.614  34.998  63.032  0.00  0.00    +0.000 NA
ATOM      5  C   UNL     1      51.184  34.531  59.238  0.00  0.00    +0.000 A 
ATOM      6  C   UNL     1      51.933  35.229  60.185  0.00  0.00    +0.000 A 
ATOM      7  C   UNL     1      51.404  35.394  61.489  0.00  0.00    +0.000 A 
ATOM      8  C   UNL     1      50.133  34.851  61.798  0.00  0.00    +0.000 A 
ATOM      9  C   UNL     1      53.138  35.248  58.395  0.00  0.00    +0.000 A 
ATOM     10  C   UNL     1      49.929  33.983  59.514  0.00  0.00    +0.000 A 
ATOM     11  C   UNL     1      49.438  34.167  60.810  0.00  0.00    +0.000 A 
ATOM     12  C   UNL     1      51.644  33.928  56.870  0.00  0.00    +0.000 C 
ATOM     13  C   UNL     1      51.629  36.215  63.613  0.00  0.00    +0.000 A 
ATOM     14  C   UNL     1      50.381  35.686  63.927  0.00  0.00    +0.000 A 
ATOM     15  C   UNL     1      52.411  36.956  64.660  0.00  0.00    +0.000 C 
ATOM     16  N   UNL     1      54.129  35.461  57.501  0.00  0.00    +0.000 N 
ATOM     17  H   UNL     1      55.024  35.798  57.846  0.00  0.00    +0.000 HD
ATOM     18  H   UNL     1      54.168  34.937  56.630  0.00  0.00    +0.000 HD
ENDROOT
TORSDOF 0
ENDMDL
MODEL 6
REMARK VINA RESULT:      -4.8     50.128     51.716
REMARK  Name = MeIQx.pdbqt.pdb
REMARK  0 active torsions:
REMARK  status: ('A' for Active; 'I' for Inactive)
REMARK                            x       y       z     vdW  Elec       q    Type
REMARK                         _______ _______ _______ _____ _____    ______ ____
ROOT
ATOM      1  N   UNL     1      77.897  80.033  80.879  0.00  0.00    +0.000 N 
ATOM      2  N   UNL     1      76.370  81.629  81.037  0.00  0.00    +0.000 NA
ATOM      3  N   UNL     1      74.691  81.990  83.419  0.00  0.00    +0.000 NA
ATOM      4  N   UNL     1      75.096  80.175  85.574  0.00  0.00    +0.000 NA
ATOM      5  C   UNL     1      77.344  79.862  82.120  0.00  0.00    +0.000 A 
ATOM      6  C   UNL     1      76.387  80.874  82.200  0.00  0.00    +0.000 A 
ATOM      7  C   UNL     1      75.612  80.990  83.380  0.00  0.00    +0.000 A 
ATOM      8  C   UNL     1      75.824  80.080  84.445  0.00  0.00    +0.000 A 
ATOM      9  C   UNL     1      77.283  81.105  80.251  0.00  0.00    +0.000 A 
ATOM     10  C   UNL     1      77.577  78.952  83.153  0.00  0.00    +0.000 A 
ATOM     11  C   UNL     1      76.792  79.095  84.302  0.00  0.00    +0.000 A 
ATOM     12  C   UNL     1      78.969  79.247  80.341  0.00  0.00    +0.000 C 
ATOM     13  C   UNL     1      73.973  82.068  84.558  0.00  0.00    +0.000 A 
ATOM     14  C   UNL     1      74.173  81.179  85.609  0.00  0.00    +0.000 A 
ATOM     15  C   UNL     1      72.936  83.149  84.681  0.00  0.00    +0.000 C 
ATOM     16  N   UNL     1      77.591  81.539  79.008  0.00  0.00    +0.000 N 
ATOM     17  H   UNL     1      77.236  82.444  78.713  0.00  0.00    +0.000 HD
ATOM     18  H   UNL     1      78.445  81.234  78.546  0.00  0.00    +0.000 HD
ENDROOT
TORSDOF 0
ENDMDL
MODEL 7
REMARK VINA RESULT:      -4.6     50.497     51.369
REMARK  Name = MeIQx.pdbqt.pdb
REMARK  0 active torsions:
REMARK  status: ('A' for Active; 'I' for Inactive)
REMARK                            x       y       z     vdW  Elec       q    Type
REMARK                         _______ _______ _______ _____ _____    ______ ____
ROOT
ATOM      1  N   UNL     1      78.135  81.387  79.893  0.00  0.00    +0.000 N 
ATOM      2  N   UNL     1      76.453  81.961  81.214  0.00  0.00    +0.000 NA
ATOM      3  N   UNL     1      75.755  80.460  83.639  0.00  0.00    +0.000 NA
ATOM      4  N   UNL     1      77.349  78.185  84.256  0.00  0.00    +0.000 NA
ATOM      5  C   UNL     1      78.144  80.451  80.893  0.00  0.00    +0.000 A 
ATOM      6  C   UNL     1      77.080  80.828  81.711  0.00  0.00    +0.000 A 
ATOM      7  C   UNL     1      76.799  80.058  82.867  0.00  0.00    +0.000 A 
ATOM      8  C   UNL     1      77.601  78.928  83.162  0.00  0.00    +0.000 A 
ATOM      9  C   UNL     1      77.100  82.280  80.115  0.00  0.00    +0.000 A 
ATOM     10  C   UNL     1      78.953  79.344  81.159  0.00  0.00    +0.000 A 
ATOM     11  C   UNL     1      78.646  78.606  82.307  0.00  0.00    +0.000 A 
ATOM     12  C   UNL     1      79.079  81.448  78.815  0.00  0.00    +0.000 C 
ATOM     13  C   UNL     1      75.519  79.703  84.730  0.00  0.00    +0.000 A 
ATOM     14  C   UNL     1      76.300  78.590  85.028  0.00  0.00    +0.000 A 
ATOM     15  C   UNL     1      74.383  80.083  85.637  0.00  0.00    +0.000 C 
ATOM     16  N   UNL     1      76.809  83.326  79.309  0.00  0.00    +0.000 N 
ATOM     17  H   UNL     1      76.169  84.035  79.655  0.00  0.00    +0.000 HD
ATOM     18  H   UNL     1      77.473  83.643  78.606  0.00  0.00    +0.000 HD
ENDROOT
TORSDOF 0
ENDMDL
MODEL 8
REMARK VINA RESULT:      -4.5     18.372     20.239
REMARK  Name = MeIQx.pdbqt.pdb
REMARK  0 active torsions:
REMARK  status: ('A' for Active; 'I' for Inactive)
REMARK                            x       y       z     vdW  Elec       q    Type
REMARK                         _______ _______ _______ _____ _____    ______ ____
ROOT
ATOM      1  N   UNL     1      45.740  45.451  55.870  0.00  0.00    +0.000 N 
ATOM      2  N   UNL     1      43.853  46.298  55.081  0.00  0.00    +0.000 NA
ATOM      3  N   UNL     1      42.677  48.785  56.107  0.00  0.00    +0.000 NA
ATOM      4  N   UNL     1      44.075  50.108  58.203  0.00  0.00    +0.000 NA
ATOM      5  C   UNL     1      45.540  46.591  56.601  0.00  0.00    +0.000 A 
ATOM      6  C   UNL     1      44.349  47.108  56.091  0.00  0.00    +0.000 A 
ATOM      7  C   UNL     1      43.839  48.314  56.633  0.00  0.00    +0.000 A 
ATOM      8  C   UNL     1      44.545  48.961  57.676  0.00  0.00    +0.000 A 
ATOM      9  C   UNL     1      44.702  45.301  54.965  0.00  0.00    +0.000 A 
ATOM     10  C   UNL     1      46.259  47.209  57.627  0.00  0.00    +0.000 A 
ATOM     11  C   UNL     1      45.725  48.395  58.140  0.00  0.00    +0.000 A 
ATOM     12  C   UNL     1      46.872  44.579  56.001  0.00  0.00    +0.000 C 
ATOM     13  C   UNL     1      42.223  49.934  56.649  0.00  0.00    +0.000 A 
ATOM     14  C   UNL     1      42.909  50.578  57.674  0.00  0.00    +0.000 A 
ATOM     15  C   UNL     1      40.946  50.522  56.120  0.00  0.00    +0.000 C 
ATOM     16  N   UNL     1      44.592  44.274  54.094  0.00  0.00    +0.000 N 
ATOM     17  H   UNL     1      43.915  44.353  53.341  0.00  0.00    +0.000 HD
ATOM     18  H   UNL     1      45.383  43.662  53.906  0.00  0.00    +0.000 HD
ENDROOT
TORSDOF 0
ENDMDL
MODEL 9
REMARK VINA RESULT:      -4.4     11.594     12.668
REMARK  Name = MeIQx.pdbqt.pdb
REMARK  0 active torsions:
REMARK  status: ('A' for Active; 'I' for Inactive)
REMARK                            x       y       z     vdW  Elec       q    Type
REMARK                         _______ _______ _______ _____ _____    ______ ____
ROOT
ATOM      1  N   UNL     1      53.746  32.331  56.562  0.00  0.00    +0.000 N 
ATOM      2  N   UNL     1      53.205  32.264  58.708  0.00  0.00    +0.000 NA
ATOM      3  N   UNL     1      51.678  34.396  60.028  0.00  0.00    +0.000 NA
ATOM      4  N   UNL     1      50.895  36.611  58.421  0.00  0.00    +0.000 NA
ATOM      5  C   UNL     1      53.051  33.490  56.781  0.00  0.00    +0.000 A 
ATOM      6  C   UNL     1      52.721  33.429  58.134  0.00  0.00    +0.000 A 
ATOM      7  C   UNL     1      51.981  34.495  58.706  0.00  0.00    +0.000 A 
ATOM      8  C   UNL     1      51.598  35.590  57.894  0.00  0.00    +0.000 A 
ATOM      9  C   UNL     1      53.824  31.616  57.747  0.00  0.00    +0.000 A 
ATOM     10  C   UNL     1      52.685  34.556  55.955  0.00  0.00    +0.000 A 
ATOM     11  C   UNL     1      51.958  35.590  56.554  0.00  0.00    +0.000 A 
ATOM     12  C   UNL     1      54.269  31.912  55.294  0.00  0.00    +0.000 C 
ATOM     13  C   UNL     1      50.974  35.429  60.536  0.00  0.00    +0.000 A 
ATOM     14  C   UNL     1      50.593  36.510  59.748  0.00  0.00    +0.000 A 
ATOM     15  C   UNL     1      50.596  35.394  61.990  0.00  0.00    +0.000 C 
ATOM     16  N   UNL     1      54.450  30.425  57.879  0.00  0.00    +0.000 N 
ATOM     17  H   UNL     1      54.284  29.887  58.724  0.00  0.00    +0.000 HD
ATOM     18  H   UNL     1      54.715  29.881  57.061  0.00  0.00    +0.000 HD
ENDROOT
TORSDOF 0
ENDMDL
