MODEL 1
REMARK VINA RESULT:      -7.1      0.000      0.000
REMARK  Name = Methotrexate.pdbqt.pdb
REMARK  9 active torsions:
REMARK  status: ('A' for Active; 'I' for Inactive)
REMARK    1  A    between atoms: C_1  and  N_22
REMARK    2  A    between atoms: C_2  and  C_9
REMARK    3  A    between atoms: CA_11  and  C_13
REMARK    4  A    between atoms: CA_11  and  CB_16
REMARK    5  A    between atoms: C_13  and  O_14
REMARK    6  A    between atoms: CG_17  and  CD_19
REMARK    7  A    between atoms: CD_19  and  OE1_20
REMARK    8  A    between atoms: N_22  and  C_24
REMARK    9  A    between atoms: C_24  and  C_31
REMARK                            x       y       z     vdW  Elec       q    Type
REMARK                         _______ _______ _______ _____ _____    ______ ____
ROOT
ATOM      1  C   UNL     1      57.128  34.925  64.552  0.00  0.00    +0.000 A 
ATOM      2  C   UNL     1      54.670  35.174  63.176  0.00  0.00    +0.000 A 
ATOM      3  C   UNL     1      56.450  33.801  64.059  0.00  0.00    +0.000 A 
ATOM      4  C   UNL     1      56.534  36.177  64.341  0.00  0.00    +0.000 A 
ATOM      5  C   UNL     1      55.238  33.919  63.378  0.00  0.00    +0.000 A 
ATOM      6  C   UNL     1      55.322  36.305  63.660  0.00  0.00    +0.000 A 
ENDROOT
BRANCH   2   9
ATOM      7  O   UNL     1      52.352  35.429  63.117  0.00  0.00    +0.000 OA
ATOM      8  N   UNL     1      53.456  35.415  61.080  0.00  0.00    +0.000 N 
ATOM      9  C   ACE A   0      53.382  35.351  62.459  0.00  0.00    +0.000 C 
ATOM     10  H   UNL     1      54.360  35.340  60.621  0.00  0.00    +0.000 HD
ATOM     11  CA  UNL     1      52.403  35.573  60.196  0.00  0.00    +0.000 C 
BRANCH  11  13
ATOM     12  OXT UNL     1      52.827  34.616  58.049  0.00  0.00    +0.000 OA
ATOM     13  C   UNL     1      52.769  35.608  58.759  0.00  0.00    +0.000 C 
BRANCH  13  14
ATOM     14  O   UNL     1      53.038  36.836  58.289  0.00  0.00    +0.000 OA
ATOM     15  H   UNL     1      53.837  37.126  58.777  0.00  0.00    +0.000 HD
ENDBRANCH  13  14
ENDBRANCH  11  13
BRANCH  11  16
ATOM     16  CB  UNL     1      51.057  35.689  60.632  0.00  0.00    +0.000 C 
ATOM     17  CG  UNL     1      49.601  35.825  61.094  0.00  0.00    +0.000 C 
BRANCH  17  19
ATOM     18  OE2 UNL     1      47.631  35.106  62.128  0.00  0.00    +0.000 OA
ATOM     19  CD  UNL     1      48.240  35.966  61.513  0.00  0.00    +0.000 C 
BRANCH  19  20
ATOM     20  OE1 UNL     1      47.673  37.132  61.154  0.00  0.00    +0.000 OA
ATOM     21  HE1 UNL     1      47.110  36.885  60.394  0.00  0.00    +0.000 HD
ENDBRANCH  19  20
ENDBRANCH  17  19
ENDBRANCH  11  16
ENDBRANCH   2   9
BRANCH   1  22
ATOM     22  N   UNL     1      58.347  34.786  65.258  0.00  0.00    +0.000 N 
ATOM     23  C   UNL     1      58.845  33.482  65.657  0.00  0.00    +0.000 C 
BRANCH  22  24
ATOM     24  C   UNL     1      58.910  35.912  65.974  0.00  0.00    +0.000 C 
BRANCH  24  31
ATOM     25  N   UNL     1      60.763  37.114  66.671  0.00  0.00    +0.000 NA
ATOM     26  N   UNL     1      59.134  39.112  68.175  0.00  0.00    +0.000 NA
ATOM     27  N   UNL     1      61.082  40.178  68.827  0.00  0.00    +0.000 NA
ATOM     28  N   UNL     1      63.220  39.466  68.094  0.00  0.00    +0.000 NA
ATOM     29  N   UNL     1      63.616  37.689  66.702  0.00  0.00    +0.000 N 
ATOM     30  N   UNL     1      62.957  41.266  69.506  0.00  0.00    +0.000 N 
ATOM     31  C   UNL     1      59.463  37.017  66.673  0.00  0.00    +0.000 C 
ATOM     32  C   UNL     1      58.818  38.044  67.429  0.00  0.00    +0.000 C 
ATOM     33  C   UNL     1      61.289  38.216  67.376  0.00  0.00    +0.000 C 
ATOM     34  C   UNL     1      60.438  39.196  68.146  0.00  0.00    +0.000 C 
ATOM     35  C   UNL     1      62.741  38.480  67.401  0.00  0.00    +0.000 C 
ATOM     36  C   UNL     1      62.372  40.269  68.799  0.00  0.00    +0.000 C 
ATOM     37  H   UNL     1      64.573  37.737  67.029  0.00  0.00    +0.000 HD
ATOM     38  H   UNL     1      63.284  36.759  66.468  0.00  0.00    +0.000 HD
ATOM     39  H   UNL     1      63.849  41.551  69.124  0.00  0.00    +0.000 HD
ATOM     40  H   UNL     1      62.320  42.026  69.708  0.00  0.00    +0.000 HD
ENDBRANCH  24  31
ENDBRANCH  22  24
ENDBRANCH   1  22
TORSDOF 9
ENDMDL
MODEL 2
REMARK VINA RESULT:      -6.5     12.886     14.912
REMARK  Name = Methotrexate.pdbqt.pdb
REMARK  9 active torsions:
REMARK  status: ('A' for Active; 'I' for Inactive)
REMARK    1  A    between atoms: C_1  and  N_22
REMARK    2  A    between atoms: C_2  and  C_9
REMARK    3  A    between atoms: CA_11  and  C_13
REMARK    4  A    between atoms: CA_11  and  CB_16
REMARK    5  A    between atoms: C_13  and  O_14
REMARK    6  A    between atoms: CG_17  and  CD_19
REMARK    7  A    between atoms: CD_19  and  OE1_20
REMARK    8  A    between atoms: N_22  and  C_24
REMARK    9  A    between atoms: C_24  and  C_31
REMARK                            x       y       z     vdW  Elec       q    Type
REMARK                         _______ _______ _______ _____ _____    ______ ____
ROOT
ATOM      1  C   UNL     1      61.080  43.996  52.702  0.00  0.00    +0.000 A 
ATOM      2  C   UNL     1      59.755  46.116  54.023  0.00  0.00    +0.000 A 
ATOM      3  C   UNL     1      61.535  44.486  53.934  0.00  0.00    +0.000 A 
ATOM      4  C   UNL     1      59.946  44.605  52.147  0.00  0.00    +0.000 A 
ATOM      5  C   UNL     1      60.883  45.531  54.591  0.00  0.00    +0.000 A 
ATOM      6  C   UNL     1      59.287  45.650  52.796  0.00  0.00    +0.000 A 
ENDROOT
BRANCH   2   9
ATOM      7  O   UNL     1      59.609  48.299  54.832  0.00  0.00    +0.000 OA
ATOM      8  N   UNL     1      57.730  46.965  55.075  0.00  0.00    +0.000 N 
ATOM      9  C   ACE A   0      59.028  47.231  54.681  0.00  0.00    +0.000 C 
ATOM     10  H   UNL     1      57.334  46.044  54.906  0.00  0.00    +0.000 HD
ATOM     11  CA  UNL     1      56.857  47.833  55.706  0.00  0.00    +0.000 C 
BRANCH  11  13
ATOM     12  OXT UNL     1      54.947  47.443  57.087  0.00  0.00    +0.000 OA
ATOM     13  C   UNL     1      55.515  47.281  56.017  0.00  0.00    +0.000 C 
BRANCH  13  14
ATOM     14  O   UNL     1      54.964  46.576  55.018  0.00  0.00    +0.000 OA
ATOM     15  H   UNL     1      54.085  46.303  55.353  0.00  0.00    +0.000 HD
ENDBRANCH  13  14
ENDBRANCH  11  13
BRANCH  11  16
ATOM     16  CB  UNL     1      57.218  49.164  56.039  0.00  0.00    +0.000 C 
ATOM     17  CG  UNL     1      57.622  50.599  56.398  0.00  0.00    +0.000 C 
BRANCH  17  19
ATOM     18  OE2 UNL     1      57.468  52.604  57.589  0.00  0.00    +0.000 OA
ATOM     19  CD  UNL     1      58.017  51.934  56.732  0.00  0.00    +0.000 C 
BRANCH  19  20
ATOM     20  OE1 UNL     1      59.045  52.401  56.001  0.00  0.00    +0.000 OA
ATOM     21  HE1 UNL     1      58.648  53.140  55.498  0.00  0.00    +0.000 HD
ENDBRANCH  19  20
ENDBRANCH  17  19
ENDBRANCH  11  16
ENDBRANCH   2   9
BRANCH   1  22
ATOM     22  N   UNL     1      61.764  42.949  52.039  0.00  0.00    +0.000 N 
ATOM     23  C   UNL     1      61.794  42.864  50.590  0.00  0.00    +0.000 C 
BRANCH  22  24
ATOM     24  C   UNL     1      62.081  41.722  52.740  0.00  0.00    +0.000 C 
BRANCH  24  31
ATOM     25  N   UNL     1      61.608  40.194  54.415  0.00  0.00    +0.000 NA
ATOM     26  N   UNL     1      63.955  38.470  53.764  0.00  0.00    +0.000 NA
ATOM     27  N   UNL     1      63.377  37.061  55.507  0.00  0.00    +0.000 NA
ATOM     28  N   UNL     1      61.439  37.408  56.824  0.00  0.00    +0.000 NA
ATOM     29  N   UNL     1      59.947  39.127  56.554  0.00  0.00    +0.000 N 
ATOM     30  N   UNL     1      62.866  35.642  57.205  0.00  0.00    +0.000 N 
ATOM     31  C   UNL     1      62.392  40.518  53.424  0.00  0.00    +0.000 C 
ATOM     32  C   UNL     1      63.467  39.598  53.228  0.00  0.00    +0.000 C 
ATOM     33  C   UNL     1      61.938  38.997  55.083  0.00  0.00    +0.000 C 
ATOM     34  C   UNL     1      63.148  38.160  54.743  0.00  0.00    +0.000 C 
ATOM     35  C   UNL     1      61.098  38.482  56.181  0.00  0.00    +0.000 C 
ATOM     36  C   UNL     1      62.578  36.746  56.474  0.00  0.00    +0.000 C 
ATOM     37  H   UNL     1      59.627  38.902  57.488  0.00  0.00    +0.000 HD
ATOM     38  H   UNL     1      59.885  40.107  56.298  0.00  0.00    +0.000 HD
ATOM     39  H   UNL     1      62.046  35.216  57.617  0.00  0.00    +0.000 HD
ATOM     40  H   UNL     1      63.477  35.001  56.718  0.00  0.00    +0.000 HD
ENDBRANCH  24  31
ENDBRANCH  22  24
ENDBRANCH   1  22
TORSDOF 9
ENDMDL
MODEL 3
REMARK VINA RESULT:      -6.4     11.166     15.284
REMARK  Name = Methotrexate.pdbqt.pdb
REMARK  9 active torsions:
REMARK  status: ('A' for Active; 'I' for Inactive)
REMARK    1  A    between atoms: C_1  and  N_22
REMARK    2  A    between atoms: C_2  and  C_9
REMARK    3  A    between atoms: CA_11  and  C_13
REMARK    4  A    between atoms: CA_11  and  CB_16
REMARK    5  A    between atoms: C_13  and  O_14
REMARK    6  A    between atoms: CG_17  and  CD_19
REMARK    7  A    between atoms: CD_19  and  OE1_20
REMARK    8  A    between atoms: N_22  and  C_24
REMARK    9  A    between atoms: C_24  and  C_31
REMARK                            x       y       z     vdW  Elec       q    Type
REMARK                         _______ _______ _______ _____ _____    ______ ____
ROOT
ATOM      1  C   UNL     1      69.261  38.109  65.605  0.00  0.00    +0.000 A 
ATOM      2  C   UNL     1      67.789  39.153  67.783  0.00  0.00    +0.000 A 
ATOM      3  C   UNL     1      68.053  37.528  66.016  0.00  0.00    +0.000 A 
ATOM      4  C   UNL     1      69.713  39.224  66.324  0.00  0.00    +0.000 A 
ATOM      5  C   UNL     1      67.322  38.040  67.088  0.00  0.00    +0.000 A 
ATOM      6  C   UNL     1      68.990  39.745  67.398  0.00  0.00    +0.000 A 
ENDROOT
BRANCH   2   9
ATOM      7  O   UNL     1      67.648  39.905  69.987  0.00  0.00    +0.000 OA
ATOM      8  N   UNL     1      65.720  40.041  68.709  0.00  0.00    +0.000 N 
ATOM      9  C   ACE A   0      67.050  39.734  68.932  0.00  0.00    +0.000 C 
ATOM     10  H   UNL     1      65.311  39.862  67.796  0.00  0.00    +0.000 HD
ATOM     11  CA  UNL     1      64.828  40.585  69.615  0.00  0.00    +0.000 C 
BRANCH  11  13
ATOM     12  OXT UNL     1      62.926  40.125  68.245  0.00  0.00    +0.000 OA
ATOM     13  C   UNL     1      63.453  40.812  69.107  0.00  0.00    +0.000 C 
BRANCH  13  14
ATOM     14  O   UNL     1      62.821  41.851  69.674  0.00  0.00    +0.000 OA
ATOM     15  H   UNL     1      61.870  41.701  69.492  0.00  0.00    +0.000 HD
ENDBRANCH  13  14
ENDBRANCH  11  13
BRANCH  11  16
ATOM     16  CB  UNL     1      65.198  40.901  70.949  0.00  0.00    +0.000 C 
ATOM     17  CG  UNL     1      65.612  41.238  72.386  0.00  0.00    +0.000 C 
BRANCH  17  19
ATOM     18  OE2 UNL     1      65.227  41.750  74.635  0.00  0.00    +0.000 OA
ATOM     19  CD  UNL     1      66.013  41.544  73.726  0.00  0.00    +0.000 C 
BRANCH  19  20
ATOM     20  OE1 UNL     1      67.346  41.604  73.899  0.00  0.00    +0.000 OA
ATOM     21  HE1 UNL     1      67.463  41.367  74.840  0.00  0.00    +0.000 HD
ENDBRANCH  19  20
ENDBRANCH  17  19
ENDBRANCH  11  16
ENDBRANCH   2   9
BRANCH   1  22
ATOM     22  N   UNL     1      70.000  37.564  64.528  0.00  0.00    +0.000 N 
ATOM     23  C   UNL     1      70.599  36.244  64.614  0.00  0.00    +0.000 C 
BRANCH  22  24
ATOM     24  C   UNL     1      70.547  38.429  63.504  0.00  0.00    +0.000 C 
BRANCH  24  31
ATOM     25  N   UNL     1      70.774  40.541  62.581  0.00  0.00    +0.000 NA
ATOM     26  N   UNL     1      72.460  39.575  60.316  0.00  0.00    +0.000 NA
ATOM     27  N   UNL     1      72.556  41.736  59.493  0.00  0.00    +0.000 NA
ATOM     28  N   UNL     1      71.554  43.564  60.620  0.00  0.00    +0.000 NA
ATOM     29  N   UNL     1      70.396  43.427  62.593  0.00  0.00    +0.000 N 
ATOM     30  N   UNL     1      72.684  43.833  58.632  0.00  0.00    +0.000 N 
ATOM     31  C   UNL     1      71.085  39.277  62.501  0.00  0.00    +0.000 C 
ATOM     32  C   UNL     1      71.900  38.964  61.370  0.00  0.00    +0.000 C 
ATOM     33  C   UNL     1      71.316  41.364  61.572  0.00  0.00    +0.000 C 
ATOM     34  C   UNL     1      72.147  40.839  60.426  0.00  0.00    +0.000 C 
ATOM     35  C   UNL     1      71.095  42.823  61.580  0.00  0.00    +0.000 C 
ATOM     36  C   UNL     1      72.253  42.989  59.599  0.00  0.00    +0.000 C 
ATOM     37  H   UNL     1      70.025  44.339  62.356  0.00  0.00    +0.000 HD
ATOM     38  H   UNL     1      69.771  42.827  63.120  0.00  0.00    +0.000 HD
ATOM     39  H   UNL     1      72.805  44.783  58.960  0.00  0.00    +0.000 HD
ATOM     40  H   UNL     1      73.468  43.463  58.112  0.00  0.00    +0.000 HD
ENDBRANCH  24  31
ENDBRANCH  22  24
ENDBRANCH   1  22
TORSDOF 9
ENDMDL
MODEL 4
REMARK VINA RESULT:      -6.2      2.191      3.242
REMARK  Name = Methotrexate.pdbqt.pdb
REMARK  9 active torsions:
REMARK  status: ('A' for Active; 'I' for Inactive)
REMARK    1  A    between atoms: C_1  and  N_22
REMARK    2  A    between atoms: C_2  and  C_9
REMARK    3  A    between atoms: CA_11  and  C_13
REMARK    4  A    between atoms: CA_11  and  CB_16
REMARK    5  A    between atoms: C_13  and  O_14
REMARK    6  A    between atoms: CG_17  and  CD_19
REMARK    7  A    between atoms: CD_19  and  OE1_20
REMARK    8  A    between atoms: N_22  and  C_24
REMARK    9  A    between atoms: C_24  and  C_31
REMARK                            x       y       z     vdW  Elec       q    Type
REMARK                         _______ _______ _______ _____ _____    ______ ____
ROOT
ATOM      1  C   UNL     1      54.549  36.040  65.229  0.00  0.00    +0.000 A 
ATOM      2  C   UNL     1      53.157  35.278  62.888  0.00  0.00    +0.000 A 
ATOM      3  C   UNL     1      55.178  36.031  63.976  0.00  0.00    +0.000 A 
ATOM      4  C   UNL     1      53.203  35.649  65.275  0.00  0.00    +0.000 A 
ATOM      5  C   UNL     1      54.495  35.658  62.818  0.00  0.00    +0.000 A 
ATOM      6  C   UNL     1      52.512  35.274  64.122  0.00  0.00    +0.000 A 
ENDROOT
BRANCH   2   9
ATOM      7  O   UNL     1      51.612  33.928  61.779  0.00  0.00    +0.000 OA
ATOM      8  N   UNL     1      52.618  35.606  60.537  0.00  0.00    +0.000 N 
ATOM      9  C   ACE A   0      52.388  34.871  61.685  0.00  0.00    +0.000 C 
ATOM     10  H   UNL     1      53.284  36.373  60.557  0.00  0.00    +0.000 HD
ATOM     11  CA  UNL     1      52.030  35.420  59.298  0.00  0.00    +0.000 C 
BRANCH  11  13
ATOM     12  OXT UNL     1      53.110  36.021  57.254  0.00  0.00    +0.000 OA
ATOM     13  C   UNL     1      52.463  36.359  58.234  0.00  0.00    +0.000 C 
BRANCH  13  14
ATOM     14  O   UNL     1      52.086  37.631  58.434  0.00  0.00    +0.000 OA
ATOM     15  H   UNL     1      51.110  37.598  58.511  0.00  0.00    +0.000 HD
ENDBRANCH  13  14
ENDBRANCH  11  13
BRANCH  11  16
ATOM     16  CB  UNL     1      51.077  34.396  59.055  0.00  0.00    +0.000 C 
ATOM     17  CG  UNL     1      50.058  33.281  58.798  0.00  0.00    +0.000 C 
BRANCH  17  19
ATOM     18  OE2 UNL     1      48.474  31.688  59.445  0.00  0.00    +0.000 OA
ATOM     19  CD  UNL     1      49.119  32.227  58.561  0.00  0.00    +0.000 C 
BRANCH  19  20
ATOM     20  OE1 UNL     1      49.018  31.861  57.271  0.00  0.00    +0.000 OA
ATOM     21  HE1 UNL     1      48.255  31.250  57.268  0.00  0.00    +0.000 HD
ENDBRANCH  19  20
ENDBRANCH  17  19
ENDBRANCH  11  16
ENDBRANCH   2   9
BRANCH   1  22
ATOM     22  N   UNL     1      55.261  36.402  66.397  0.00  0.00    +0.000 N 
ATOM     23  C   UNL     1      54.640  37.189  67.447  0.00  0.00    +0.000 C 
BRANCH  22  24
ATOM     24  C   UNL     1      56.709  36.385  66.407  0.00  0.00    +0.000 C 
BRANCH  24  31
ATOM     25  N   UNL     1      58.721  37.453  66.827  0.00  0.00    +0.000 NA
ATOM     26  N   UNL     1      60.358  35.141  65.889  0.00  0.00    +0.000 NA
ATOM     27  N   UNL     1      62.281  36.356  66.319  0.00  0.00    +0.000 NA
ATOM     28  N   UNL     1      62.220  38.527  67.265  0.00  0.00    +0.000 NA
ATOM     29  N   UNL     1      60.317  39.662  67.848  0.00  0.00    +0.000 N 
ATOM     30  N   UNL     1      64.204  37.497  66.714  0.00  0.00    +0.000 N 
ATOM     31  C   UNL     1      58.128  36.367  66.416  0.00  0.00    +0.000 C 
ATOM     32  C   UNL     1      59.038  35.345  66.004  0.00  0.00    +0.000 C 
ATOM     33  C   UNL     1      60.130  37.414  66.822  0.00  0.00    +0.000 C 
ATOM     34  C   UNL     1      60.929  36.235  66.319  0.00  0.00    +0.000 C 
ATOM     35  C   UNL     1      60.925  38.552  67.322  0.00  0.00    +0.000 C 
ATOM     36  C   UNL     1      62.851  37.435  66.747  0.00  0.00    +0.000 C 
ATOM     37  H   UNL     1      60.899  40.491  67.857  0.00  0.00    +0.000 HD
ATOM     38  H   UNL     1      59.352  39.813  67.572  0.00  0.00    +0.000 HD
ATOM     39  H   UNL     1      64.589  38.116  67.415  0.00  0.00    +0.000 HD
ATOM     40  H   UNL     1      64.636  36.583  66.672  0.00  0.00    +0.000 HD
ENDBRANCH  24  31
ENDBRANCH  22  24
ENDBRANCH   1  22
TORSDOF 9
ENDMDL
MODEL 5
REMARK VINA RESULT:      -6.1     12.949     14.782
REMARK  Name = Methotrexate.pdbqt.pdb
REMARK  9 active torsions:
REMARK  status: ('A' for Active; 'I' for Inactive)
REMARK    1  A    between atoms: C_1  and  N_22
REMARK    2  A    between atoms: C_2  and  C_9
REMARK    3  A    between atoms: CA_11  and  C_13
REMARK    4  A    between atoms: CA_11  and  CB_16
REMARK    5  A    between atoms: C_13  and  O_14
REMARK    6  A    between atoms: CG_17  and  CD_19
REMARK    7  A    between atoms: CD_19  and  OE1_20
REMARK    8  A    between atoms: N_22  and  C_24
REMARK    9  A    between atoms: C_24  and  C_31
REMARK                            x       y       z     vdW  Elec       q    Type
REMARK                         _______ _______ _______ _____ _____    ______ ____
ROOT
ATOM      1  C   UNL     1      61.148  44.111  52.825  0.00  0.00    +0.000 A 
ATOM      2  C   UNL     1      59.437  45.999  54.052  0.00  0.00    +0.000 A 
ATOM      3  C   UNL     1      59.986  44.566  52.186  0.00  0.00    +0.000 A 
ATOM      4  C   UNL     1      61.423  44.624  54.100  0.00  0.00    +0.000 A 
ATOM      5  C   UNL     1      59.140  45.500  52.786  0.00  0.00    +0.000 A 
ATOM      6  C   UNL     1      60.583  45.557  54.709  0.00  0.00    +0.000 A 
ENDROOT
BRANCH   2   9
ATOM      7  O   UNL     1      57.459  46.634  55.112  0.00  0.00    +0.000 OA
ATOM      8  N   UNL     1      59.094  48.260  54.885  0.00  0.00    +0.000 N 
ATOM      9  C   ACE A   0      58.568  46.991  54.733  0.00  0.00    +0.000 C 
ATOM     10  H   UNL     1      60.027  48.462  54.535  0.00  0.00    +0.000 HD
ATOM     11  CA  UNL     1      58.483  49.350  55.479  0.00  0.00    +0.000 C 
BRANCH  11  13
ATOM     12  OXT UNL     1      59.495  51.246  56.521  0.00  0.00    +0.000 OA
ATOM     13  C   UNL     1      59.281  50.600  55.506  0.00  0.00    +0.000 C 
BRANCH  13  14
ATOM     14  O   UNL     1      59.757  50.975  54.309  0.00  0.00    +0.000 OA
ATOM     15  H   UNL     1      59.445  51.895  54.188  0.00  0.00    +0.000 HD
ENDBRANCH  13  14
ENDBRANCH  11  13
BRANCH  11  16
ATOM     16  CB  UNL     1      57.174  49.282  56.025  0.00  0.00    +0.000 C 
ATOM     17  CG  UNL     1      55.758  49.221  56.611  0.00  0.00    +0.000 C 
BRANCH  17  19
ATOM     18  OE2 UNL     1      53.635  50.097  57.045  0.00  0.00    +0.000 OA
ATOM     19  CD  UNL     1      54.435  49.183  57.154  0.00  0.00    +0.000 C 
BRANCH  19  20
ATOM     20  OE1 UNL     1      54.147  48.050  57.820  0.00  0.00    +0.000 OA
ATOM     21  HE1 UNL     1      53.469  47.624  57.259  0.00  0.00    +0.000 HD
ENDBRANCH  19  20
ENDBRANCH  17  19
ENDBRANCH  11  16
ENDBRANCH   2   9
BRANCH   1  22
ATOM     22  N   UNL     1      61.985  43.148  52.211  0.00  0.00    +0.000 N 
ATOM     23  C   UNL     1      62.252  43.180  50.784  0.00  0.00    +0.000 C 
BRANCH  22  24
ATOM     24  C   UNL     1      62.249  41.884  52.865  0.00  0.00    +0.000 C 
BRANCH  24  31
ATOM     25  N   UNL     1      61.738  40.338  54.511  0.00  0.00    +0.000 NA
ATOM     26  N   UNL     1      63.965  38.505  53.745  0.00  0.00    +0.000 NA
ATOM     27  N   UNL     1      63.357  37.081  55.465  0.00  0.00    +0.000 NA
ATOM     28  N   UNL     1      61.479  37.498  56.848  0.00  0.00    +0.000 NA
ATOM     29  N   UNL     1      60.081  39.305  56.669  0.00  0.00    +0.000 N 
ATOM     30  N   UNL     1      62.815  35.645  57.139  0.00  0.00    +0.000 N 
ATOM     31  C   UNL     1      62.511  40.645  53.507  0.00  0.00    +0.000 C 
ATOM     32  C   UNL     1      63.526  39.673  53.254  0.00  0.00    +0.000 C 
ATOM     33  C   UNL     1      62.019  39.106  55.137  0.00  0.00    +0.000 C 
ATOM     34  C   UNL     1      63.169  38.212  54.739  0.00  0.00    +0.000 C 
ATOM     35  C   UNL     1      61.182  38.607  56.245  0.00  0.00    +0.000 C 
ATOM     36  C   UNL     1      62.570  36.784  56.447  0.00  0.00    +0.000 C 
ATOM     37  H   UNL     1      59.775  39.072  57.606  0.00  0.00    +0.000 HD
ATOM     38  H   UNL     1      60.067  40.293  56.442  0.00  0.00    +0.000 HD
ATOM     39  H   UNL     1      61.984  35.254  57.564  0.00  0.00    +0.000 HD
ATOM     40  H   UNL     1      63.374  34.984  56.617  0.00  0.00    +0.000 HD
ENDBRANCH  24  31
ENDBRANCH  22  24
ENDBRANCH   1  22
TORSDOF 9
ENDMDL
MODEL 6
REMARK VINA RESULT:      -6.1      8.891     12.657
REMARK  Name = Methotrexate.pdbqt.pdb
REMARK  9 active torsions:
REMARK  status: ('A' for Active; 'I' for Inactive)
REMARK    1  A    between atoms: C_1  and  N_22
REMARK    2  A    between atoms: C_2  and  C_9
REMARK    3  A    between atoms: CA_11  and  C_13
REMARK    4  A    between atoms: CA_11  and  CB_16
REMARK    5  A    between atoms: C_13  and  O_14
REMARK    6  A    between atoms: CG_17  and  CD_19
REMARK    7  A    between atoms: CD_19  and  OE1_20
REMARK    8  A    between atoms: N_22  and  C_24
REMARK    9  A    between atoms: C_24  and  C_31
REMARK                            x       y       z     vdW  Elec       q    Type
REMARK                         _______ _______ _______ _____ _____    ______ ____
ROOT
ATOM      1  C   UNL     1      56.725  38.709  72.928  0.00  0.00    +0.000 A 
ATOM      2  C   UNL     1      59.075  38.437  71.379  0.00  0.00    +0.000 A 
ATOM      3  C   UNL     1      57.935  38.300  73.504  0.00  0.00    +0.000 A 
ATOM      4  C   UNL     1      56.725  38.971  71.550  0.00  0.00    +0.000 A 
ATOM      5  C   UNL     1      59.098  38.166  72.744  0.00  0.00    +0.000 A 
ATOM      6  C   UNL     1      57.883  38.841  70.782  0.00  0.00    +0.000 A 
ENDROOT
BRANCH   2   9
ATOM      7  O   UNL     1      60.653  37.186  70.201  0.00  0.00    +0.000 OA
ATOM      8  N   UNL     1      60.906  39.489  70.168  0.00  0.00    +0.000 N 
ATOM      9  C   ACE A   0      60.285  38.308  70.528  0.00  0.00    +0.000 C 
ATOM     10  H   UNL     1      60.525  40.375  70.490  0.00  0.00    +0.000 HD
ATOM     11  CA  UNL     1      62.041  39.629  69.390  0.00  0.00    +0.000 C 
BRANCH  11  13
ATOM     12  OXT UNL     1      63.140  41.669  69.972  0.00  0.00    +0.000 OA
ATOM     13  C   UNL     1      62.495  41.023  69.159  0.00  0.00    +0.000 C 
BRANCH  13  14
ATOM     14  O   UNL     1      62.137  41.529  67.970  0.00  0.00    +0.000 OA
ATOM     15  H   UNL     1      62.944  41.478  67.417  0.00  0.00    +0.000 HD
ENDBRANCH  13  14
ENDBRANCH  11  13
BRANCH  11  16
ATOM     16  CB  UNL     1      62.733  38.514  68.847  0.00  0.00    +0.000 C 
ATOM     17  CG  UNL     1      63.475  37.313  68.249  0.00  0.00    +0.000 C 
BRANCH  17  19
ATOM     18  OE2 UNL     1      65.295  35.870  67.984  0.00  0.00    +0.000 OA
ATOM     19  CD  UNL     1      64.162  36.197  67.674  0.00  0.00    +0.000 C 
BRANCH  19  20
ATOM     20  OE1 UNL     1      63.454  35.541  66.736  0.00  0.00    +0.000 OA
ATOM     21  HE1 UNL     1      62.531  35.804  66.924  0.00  0.00    +0.000 HD
ENDBRANCH  19  20
ENDBRANCH  17  19
ENDBRANCH  11  16
ENDBRANCH   2   9
BRANCH   1  22
ATOM     22  N   UNL     1      55.549  38.820  73.708  0.00  0.00    +0.000 N 
ATOM     23  C   UNL     1      55.200  37.815  74.695  0.00  0.00    +0.000 C 
BRANCH  22  24
ATOM     24  C   UNL     1      54.460  39.670  73.275  0.00  0.00    +0.000 C 
BRANCH  24  31
ATOM     25  N   UNL     1      52.274  39.906  72.547  0.00  0.00    +0.000 NA
ATOM     26  N   UNL     1      52.495  42.867  72.250  0.00  0.00    +0.000 NA
ATOM     27  N   UNL     1      50.308  42.934  71.494  0.00  0.00    +0.000 NA
ATOM     28  N   UNL     1      48.953  40.995  71.374  0.00  0.00    +0.000 NA
ATOM     29  N   UNL     1      49.614  38.881  71.963  0.00  0.00    +0.000 N 
ATOM     30  N   UNL     1      48.170  43.066  70.741  0.00  0.00    +0.000 N 
ATOM     31  C   UNL     1      53.391  40.504  72.852  0.00  0.00    +0.000 C 
ATOM     32  C   UNL     1      53.347  41.920  72.666  0.00  0.00    +0.000 C 
ATOM     33  C   UNL     1      51.229  40.754  72.126  0.00  0.00    +0.000 C 
ATOM     34  C   UNL     1      51.381  42.247  71.964  0.00  0.00    +0.000 C 
ATOM     35  C   UNL     1      49.892  40.214  71.811  0.00  0.00    +0.000 C 
ATOM     36  C   UNL     1      49.202  42.326  71.214  0.00  0.00    +0.000 C 
ATOM     37  H   UNL     1      48.813  38.559  71.432  0.00  0.00    +0.000 HD
ATOM     38  H   UNL     1      50.414  38.257  71.961  0.00  0.00    +0.000 HD
ATOM     39  H   UNL     1      47.266  42.662  70.949  0.00  0.00    +0.000 HD
ATOM     40  H   UNL     1      48.257  44.047  70.969  0.00  0.00    +0.000 HD
ENDBRANCH  24  31
ENDBRANCH  22  24
ENDBRANCH   1  22
TORSDOF 9
ENDMDL
MODEL 7
REMARK VINA RESULT:      -6.1     13.585     15.023
REMARK  Name = Methotrexate.pdbqt.pdb
REMARK  9 active torsions:
REMARK  status: ('A' for Active; 'I' for Inactive)
REMARK    1  A    between atoms: C_1  and  N_22
REMARK    2  A    between atoms: C_2  and  C_9
REMARK    3  A    between atoms: CA_11  and  C_13
REMARK    4  A    between atoms: CA_11  and  CB_16
REMARK    5  A    between atoms: C_13  and  O_14
REMARK    6  A    between atoms: CG_17  and  CD_19
REMARK    7  A    between atoms: CD_19  and  OE1_20
REMARK    8  A    between atoms: N_22  and  C_24
REMARK    9  A    between atoms: C_24  and  C_31
REMARK                            x       y       z     vdW  Elec       q    Type
REMARK                         _______ _______ _______ _____ _____    ______ ____
ROOT
ATOM      1  C   UNL     1      63.432  45.940  54.007  0.00  0.00    +0.000 A 
ATOM      2  C   UNL     1      62.831  43.187  54.237  0.00  0.00    +0.000 A 
ATOM      3  C   UNL     1      64.444  44.971  54.027  0.00  0.00    +0.000 A 
ATOM      4  C   UNL     1      62.109  45.489  54.114  0.00  0.00    +0.000 A 
ATOM      5  C   UNL     1      64.153  43.611  54.138  0.00  0.00    +0.000 A 
ATOM      6  C   UNL     1      61.807  44.131  54.226  0.00  0.00    +0.000 A 
ENDROOT
BRANCH   2   9
ATOM      7  O   UNL     1      62.483  41.238  55.472  0.00  0.00    +0.000 OA
ATOM      8  N   UNL     1      62.143  41.103  53.184  0.00  0.00    +0.000 N 
ATOM      9  C   ACE A   0      62.470  41.752  54.359  0.00  0.00    +0.000 C 
ATOM     10  H   UNL     1      62.162  41.615  52.306  0.00  0.00    +0.000 HD
ATOM     11  CA  UNL     1      61.778  39.776  53.038  0.00  0.00    +0.000 C 
BRANCH  11  13
ATOM     12  OXT UNL     1      61.724  38.222  51.225  0.00  0.00    +0.000 OA
ATOM     13  C   UNL     1      61.478  39.340  51.652  0.00  0.00    +0.000 C 
BRANCH  13  14
ATOM     14  O   UNL     1      60.907  40.284  50.889  0.00  0.00    +0.000 OA
ATOM     15  H   UNL     1      61.406  41.105  51.083  0.00  0.00    +0.000 HD
ENDBRANCH  13  14
ENDBRANCH  11  13
BRANCH  11  16
ATOM     16  CB  UNL     1      61.698  38.886  54.141  0.00  0.00    +0.000 C 
ATOM     17  CG  UNL     1      61.601  37.931  55.337  0.00  0.00    +0.000 C 
BRANCH  17  19
ATOM     18  OE2 UNL     1      62.046  35.963  56.518  0.00  0.00    +0.000 OA
ATOM     19  CD  UNL     1      61.498  37.052  56.461  0.00  0.00    +0.000 C 
BRANCH  19  20
ATOM     20  OE1 UNL     1      60.723  37.520  57.456  0.00  0.00    +0.000 OA
ATOM     21  HE1 UNL     1      61.191  37.230  58.264  0.00  0.00    +0.000 HD
ENDBRANCH  19  20
ENDBRANCH  17  19
ENDBRANCH  11  16
ENDBRANCH   2   9
BRANCH   1  22
ATOM     22  N   UNL     1      63.745  47.318  53.914  0.00  0.00    +0.000 N 
ATOM     23  C   UNL     1      63.923  47.967  52.627  0.00  0.00    +0.000 C 
BRANCH  22  24
ATOM     24  C   UNL     1      64.313  48.018  55.047  0.00  0.00    +0.000 C 
BRANCH  24  31
ATOM     25  N   UNL     1      66.152  48.551  56.349  0.00  0.00    +0.000 NA
ATOM     26  N   UNL     1      64.557  50.197  58.260  0.00  0.00    +0.000 NA
ATOM     27  N   UNL     1      66.479  50.601  59.484  0.00  0.00    +0.000 NA
ATOM     28  N   UNL     1      68.601  49.791  58.810  0.00  0.00    +0.000 NA
ATOM     29  N   UNL     1      69.004  48.542  56.932  0.00  0.00    +0.000 N 
ATOM     30  N   UNL     1      68.328  51.032  60.731  0.00  0.00    +0.000 N 
ATOM     31  C   UNL     1      64.872  48.702  56.158  0.00  0.00    +0.000 C 
ATOM     32  C   UNL     1      64.243  49.518  57.147  0.00  0.00    +0.000 C 
ATOM     33  C   UNL     1      66.684  49.236  57.461  0.00  0.00    +0.000 C 
ATOM     34  C   UNL     1      65.844  50.042  58.423  0.00  0.00    +0.000 C 
ATOM     35  C   UNL     1      68.130  49.202  57.756  0.00  0.00    +0.000 C 
ATOM     36  C   UNL     1      67.754  50.455  59.647  0.00  0.00    +0.000 C 
ATOM     37  H   UNL     1      69.885  48.299  57.368  0.00  0.00    +0.000 HD
ATOM     38  H   UNL     1      68.600  47.823  56.341  0.00  0.00    +0.000 HD
ATOM     39  H   UNL     1      69.304  51.257  60.589  0.00  0.00    +0.000 HD
ATOM     40  H   UNL     1      67.771  51.784  61.113  0.00  0.00    +0.000 HD
ENDBRANCH  24  31
ENDBRANCH  22  24
ENDBRANCH   1  22
TORSDOF 9
ENDMDL
MODEL 8
REMARK VINA RESULT:      -6.0     14.686     17.830
REMARK  Name = Methotrexate.pdbqt.pdb
REMARK  9 active torsions:
REMARK  status: ('A' for Active; 'I' for Inactive)
REMARK    1  A    between atoms: C_1  and  N_22
REMARK    2  A    between atoms: C_2  and  C_9
REMARK    3  A    between atoms: CA_11  and  C_13
REMARK    4  A    between atoms: CA_11  and  CB_16
REMARK    5  A    between atoms: C_13  and  O_14
REMARK    6  A    between atoms: CG_17  and  CD_19
REMARK    7  A    between atoms: CD_19  and  OE1_20
REMARK    8  A    between atoms: N_22  and  C_24
REMARK    9  A    between atoms: C_24  and  C_31
REMARK                            x       y       z     vdW  Elec       q    Type
REMARK                         _______ _______ _______ _____ _____    ______ ____
ROOT
ATOM      1  C   UNL     1      65.033  44.723  53.714  0.00  0.00    +0.000 A 
ATOM      2  C   UNL     1      66.042  46.605  55.569  0.00  0.00    +0.000 A 
ATOM      3  C   UNL     1      66.319  44.595  54.258  0.00  0.00    +0.000 A 
ATOM      4  C   UNL     1      64.270  45.827  54.122  0.00  0.00    +0.000 A 
ATOM      5  C   UNL     1      66.821  45.520  55.175  0.00  0.00    +0.000 A 
ATOM      6  C   UNL     1      64.763  46.757  55.039  0.00  0.00    +0.000 A 
ENDROOT
BRANCH   2   9
ATOM      7  O   UNL     1      67.693  47.547  56.921  0.00  0.00    +0.000 OA
ATOM      8  N   UNL     1      65.615  48.571  56.939  0.00  0.00    +0.000 N 
ATOM      9  C   ACE A   0      66.531  47.616  56.539  0.00  0.00    +0.000 C 
ATOM     10  H   UNL     1      64.670  48.546  56.566  0.00  0.00    +0.000 HD
ATOM     11  CA  UNL     1      65.828  49.608  57.830  0.00  0.00    +0.000 C 
BRANCH  11  13
ATOM     12  OXT UNL     1      64.180  51.232  57.237  0.00  0.00    +0.000 OA
ATOM     13  C   UNL     1      64.662  50.491  58.080  0.00  0.00    +0.000 C 
BRANCH  13  14
ATOM     14  O   UNL     1      64.168  50.413  59.325  0.00  0.00    +0.000 OA
ATOM     15  H   UNL     1      64.577  51.161  59.808  0.00  0.00    +0.000 HD
ENDBRANCH  13  14
ENDBRANCH  11  13
BRANCH  11  16
ATOM     16  CB  UNL     1      67.078  49.815  58.470  0.00  0.00    +0.000 C 
ATOM     17  CG  UNL     1      68.422  50.046  59.170  0.00  0.00    +0.000 C 
BRANCH  17  19
ATOM     18  OE2 UNL     1      70.508  51.067  59.440  0.00  0.00    +0.000 OA
ATOM     19  CD  UNL     1      69.669  50.275  59.835  0.00  0.00    +0.000 C 
BRANCH  19  20
ATOM     20  OE1 UNL     1      69.850  49.522  60.935  0.00  0.00    +0.000 OA
ATOM     21  HE1 UNL     1      69.080  49.748  61.493  0.00  0.00    +0.000 HD
ENDBRANCH  19  20
ENDBRANCH  17  19
ENDBRANCH  11  16
ENDBRANCH   2   9
BRANCH   1  22
ATOM     22  N   UNL     1      64.547  43.788  52.770  0.00  0.00    +0.000 N 
ATOM     23  C   UNL     1      63.989  44.217  51.500  0.00  0.00    +0.000 C 
BRANCH  22  24
ATOM     24  C   UNL     1      64.190  42.447  53.184  0.00  0.00    +0.000 C 
BRANCH  24  31
ATOM     25  N   UNL     1      63.087  41.036  54.652  0.00  0.00    +0.000 NA
ATOM     26  N   UNL     1      64.037  38.561  53.283  0.00  0.00    +0.000 NA
ATOM     27  N   UNL     1      62.918  37.285  54.857  0.00  0.00    +0.000 NA
ATOM     28  N   UNL     1      61.601  38.259  56.569  0.00  0.00    +0.000 NA
ATOM     29  N   UNL     1      61.287  40.508  56.878  0.00  0.00    +0.000 N 
ATOM     30  N   UNL     1      61.845  35.978  56.372  0.00  0.00    +0.000 N 
ATOM     31  C   UNL     1      63.839  41.133  53.592  0.00  0.00    +0.000 C 
ATOM     32  C   UNL     1      64.210  39.868  53.042  0.00  0.00    +0.000 C 
ATOM     33  C   UNL     1      62.755  39.722  55.041  0.00  0.00    +0.000 C 
ATOM     34  C   UNL     1      63.272  38.489  54.340  0.00  0.00    +0.000 C 
ATOM     35  C   UNL     1      61.859  39.471  56.187  0.00  0.00    +0.000 C 
ATOM     36  C   UNL     1      62.157  37.209  55.900  0.00  0.00    +0.000 C 
ATOM     37  H   UNL     1      60.971  40.264  57.809  0.00  0.00    +0.000 HD
ATOM     38  H   UNL     1      61.755  41.405  56.800  0.00  0.00    +0.000 HD
ATOM     39  H   UNL     1      60.962  35.955  56.865  0.00  0.00    +0.000 HD
ATOM     40  H   UNL     1      61.961  35.252  55.678  0.00  0.00    +0.000 HD
ENDBRANCH  24  31
ENDBRANCH  22  24
ENDBRANCH   1  22
TORSDOF 9
ENDMDL
MODEL 9
REMARK VINA RESULT:      -6.0     52.632     56.650
REMARK  Name = Methotrexate.pdbqt.pdb
REMARK  9 active torsions:
REMARK  status: ('A' for Active; 'I' for Inactive)
REMARK    1  A    between atoms: C_1  and  N_22
REMARK    2  A    between atoms: C_2  and  C_9
REMARK    3  A    between atoms: CA_11  and  C_13
REMARK    4  A    between atoms: CA_11  and  CB_16
REMARK    5  A    between atoms: C_13  and  O_14
REMARK    6  A    between atoms: CG_17  and  CD_19
REMARK    7  A    between atoms: CD_19  and  OE1_20
REMARK    8  A    between atoms: N_22  and  C_24
REMARK    9  A    between atoms: C_24  and  C_31
REMARK                            x       y       z     vdW  Elec       q    Type
REMARK                         _______ _______ _______ _____ _____    ______ ____
ROOT
ATOM      1  C   UNL     1      70.389  86.908  85.459  0.00  0.00    +0.000 A 
ATOM      2  C   UNL     1      68.793  87.907  87.569  0.00  0.00    +0.000 A 
ATOM      3  C   UNL     1      69.004  86.694  85.492  0.00  0.00    +0.000 A 
ATOM      4  C   UNL     1      70.952  87.632  86.520  0.00  0.00    +0.000 A 
ATOM      5  C   UNL     1      68.212  87.186  86.529  0.00  0.00    +0.000 A 
ATOM      6  C   UNL     1      70.168  88.129  87.562  0.00  0.00    +0.000 A 
ENDROOT
BRANCH   2   9
ATOM      7  O   UNL     1      68.469  89.358  89.366  0.00  0.00    +0.000 OA
ATOM      8  N   UNL     1      66.753  87.874  88.897  0.00  0.00    +0.000 N 
ATOM      9  C   ACE A   0      67.993  88.450  88.696  0.00  0.00    +0.000 C 
ATOM     10  H   UNL     1      66.444  87.122  88.287  0.00  0.00    +0.000 HD
ATOM     11  CA  UNL     1      65.831  88.201  89.876  0.00  0.00    +0.000 C 
BRANCH  11  13
ATOM     12  OXT UNL     1      63.485  87.874  90.181  0.00  0.00    +0.000 OA
ATOM     13  C   UNL     1      64.572  87.417  89.862  0.00  0.00    +0.000 C 
BRANCH  13  14
ATOM     14  O   UNL     1      64.722  86.143  89.468  0.00  0.00    +0.000 OA
ATOM     15  H   UNL     1      64.492  85.604  90.253  0.00  0.00    +0.000 HD
ENDBRANCH  13  14
ENDBRANCH  11  13
BRANCH  11  16
ATOM     16  CB  UNL     1      66.073  89.219  90.836  0.00  0.00    +0.000 C 
ATOM     17  CG  UNL     1      66.335  90.309  91.882  0.00  0.00    +0.000 C 
BRANCH  17  19
ATOM     18  OE2 UNL     1      65.832  92.253  93.079  0.00  0.00    +0.000 OA
ATOM     19  CD  UNL     1      66.581  91.313  92.872  0.00  0.00    +0.000 C 
BRANCH  19  20
ATOM     20  OE1 UNL     1      67.729  91.144  93.552  0.00  0.00    +0.000 OA
ATOM     21  HE1 UNL     1      67.554  91.585  94.407  0.00  0.00    +0.000 HD
ENDBRANCH  19  20
ENDBRANCH  17  19
ENDBRANCH  11  16
ENDBRANCH   2   9
BRANCH   1  22
ATOM     22  N   UNL     1      71.182  86.384  84.410  0.00  0.00    +0.000 N 
ATOM     23  C   UNL     1      70.986  86.803  83.034  0.00  0.00    +0.000 C 
BRANCH  22  24
ATOM     24  C   UNL     1      71.895  85.136  84.584  0.00  0.00    +0.000 C 
BRANCH  24  31
ATOM     25  N   UNL     1      73.809  83.867  84.288  0.00  0.00    +0.000 NA
ATOM     26  N   UNL     1      72.618  81.436  85.543  0.00  0.00    +0.000 NA
ATOM     27  N   UNL     1      74.585  80.287  85.136  0.00  0.00    +0.000 NA
ATOM     28  N   UNL     1      76.476  81.325  84.157  0.00  0.00    +0.000 NA
ATOM     29  N   UNL     1      76.591  83.519  83.506  0.00  0.00    +0.000 N 
ATOM     30  N   UNL     1      76.486  79.103  84.760  0.00  0.00    +0.000 N 
ATOM     31  C   UNL     1      72.592  83.911  84.753  0.00  0.00    +0.000 C 
ATOM     32  C   UNL     1      72.160  82.678  85.329  0.00  0.00    +0.000 C 
ATOM     33  C   UNL     1      74.481  82.639  84.463  0.00  0.00    +0.000 C 
ATOM     34  C   UNL     1      73.840  81.420  85.082  0.00  0.00    +0.000 C 
ATOM     35  C   UNL     1      75.884  82.473  84.040  0.00  0.00    +0.000 C 
ATOM     36  C   UNL     1      75.797  80.266  84.685  0.00  0.00    +0.000 C 
ATOM     37  H   UNL     1      77.399  83.241  82.962  0.00  0.00    +0.000 HD
ATOM     38  H   UNL     1      76.038  84.271  83.109  0.00  0.00    +0.000 HD
ATOM     39  H   UNL     1      77.487  79.238  84.812  0.00  0.00    +0.000 HD
ATOM     40  H   UNL     1      76.108  78.470  85.453  0.00  0.00    +0.000 HD
ENDBRANCH  24  31
ENDBRANCH  22  24
ENDBRANCH   1  22
TORSDOF 9
ENDMDL
