MODEL 1
REMARK VINA RESULT:      -5.4      0.000      0.000
REMARK  Name = Monobenzone.pdbqt.pdb
REMARK  4 active torsions:
REMARK  status: ('A' for Active; 'I' for Inactive)
REMARK    1  A    between atoms: C_1  and  O_7
REMARK    2  A    between atoms: C_6  and  O_15
REMARK    3  A    between atoms: O_7  and  C_8
REMARK    4  A    between atoms: C_8  and  C_9
REMARK                            x       y       z     vdW  Elec       q    Type
REMARK                         _______ _______ _______ _____ _____    ______ ____
ROOT
ATOM      1  C   UNL     1      62.876  55.047  60.544  0.00  0.00    +0.000 A 
ATOM      2  C   UNL     1      62.730  55.298  61.911  0.00  0.00    +0.000 A 
ATOM      3  C   UNL     1      61.745  54.967  59.731  0.00  0.00    +0.000 A 
ATOM      4  C   UNL     1      61.463  55.470  62.461  0.00  0.00    +0.000 A 
ATOM      5  C   UNL     1      60.475  55.137  60.276  0.00  0.00    +0.000 A 
ATOM      6  C   UNL     1      60.344  55.388  61.638  0.00  0.00    +0.000 A 
ENDROOT
BRANCH   6   7
ATOM      7  O   UNL     1      59.091  55.551  62.150  0.00  0.00    +0.000 OA
ATOM      8  H   UNL     1      58.581  54.741  61.977  0.00  0.00    +0.000 HD
ENDBRANCH   6   7
BRANCH   1   9
ATOM      9  O   UNL     1      64.081  54.865  59.912  0.00  0.00    +0.000 OA
BRANCH   9  10
ATOM     10  C   UNL     1      64.408  53.595  59.685  0.00  0.00    +0.000 C 
BRANCH  10  11
ATOM     11  C   UNL     1      64.772  52.237  59.447  0.00  0.00    +0.000 A 
ATOM     12  C   UNL     1      63.781  51.275  59.265  0.00  0.00    +0.000 A 
ATOM     13  C   UNL     1      64.138  49.947  59.038  0.00  0.00    +0.000 A 
ATOM     14  C   UNL     1      65.482  49.585  58.994  0.00  0.00    +0.000 A 
ATOM     15  C   UNL     1      66.471  50.550  59.176  0.00  0.00    +0.000 A 
ATOM     16  C   UNL     1      66.117  51.877  59.403  0.00  0.00    +0.000 A 
ENDBRANCH  10  11
ENDBRANCH   9  10
ENDBRANCH   1   9
TORSDOF 4
ENDMDL
MODEL 2
REMARK VINA RESULT:      -5.4     11.720     14.926
REMARK  Name = Monobenzone.pdbqt.pdb
REMARK  4 active torsions:
REMARK  status: ('A' for Active; 'I' for Inactive)
REMARK    1  A    between atoms: C_1  and  O_7
REMARK    2  A    between atoms: C_6  and  O_15
REMARK    3  A    between atoms: O_7  and  C_8
REMARK    4  A    between atoms: C_8  and  C_9
REMARK                            x       y       z     vdW  Elec       q    Type
REMARK                         _______ _______ _______ _____ _____    ______ ____
ROOT
ATOM      1  C   UNL     1      61.602  39.173  54.578  0.00  0.00    +0.000 A 
ATOM      2  C   UNL     1      62.778  38.430  54.456  0.00  0.00    +0.000 A 
ATOM      3  C   UNL     1      60.711  38.893  55.615  0.00  0.00    +0.000 A 
ATOM      4  C   UNL     1      63.063  37.414  55.365  0.00  0.00    +0.000 A 
ATOM      5  C   UNL     1      60.991  37.878  56.526  0.00  0.00    +0.000 A 
ATOM      6  C   UNL     1      62.166  37.146  56.393  0.00  0.00    +0.000 A 
ENDROOT
BRANCH   6   7
ATOM      7  O   UNL     1      62.420  36.157  57.298  0.00  0.00    +0.000 OA
ATOM      8  H   UNL     1      62.692  35.360  56.811  0.00  0.00    +0.000 HD
ENDBRANCH   6   7
BRANCH   1   9
ATOM      9  O   UNL     1      61.236  40.192  53.733  0.00  0.00    +0.000 OA
BRANCH   9  10
ATOM     10  C   UNL     1      61.969  41.297  53.838  0.00  0.00    +0.000 C 
BRANCH  10  11
ATOM     11  C   UNL     1      62.769  42.472  53.949  0.00  0.00    +0.000 A 
ATOM     12  C   UNL     1      62.161  43.725  53.967  0.00  0.00    +0.000 A 
ATOM     13  C   UNL     1      62.943  44.874  54.070  0.00  0.00    +0.000 A 
ATOM     14  C   UNL     1      64.329  44.767  54.155  0.00  0.00    +0.000 A 
ATOM     15  C   UNL     1      64.935  43.513  54.138  0.00  0.00    +0.000 A 
ATOM     16  C   UNL     1      64.155  42.364  54.035  0.00  0.00    +0.000 A 
ENDBRANCH  10  11
ENDBRANCH   9  10
ENDBRANCH   1   9
TORSDOF 4
ENDMDL
MODEL 3
REMARK VINA RESULT:      -5.4     10.437     13.462
REMARK  Name = Monobenzone.pdbqt.pdb
REMARK  4 active torsions:
REMARK  status: ('A' for Active; 'I' for Inactive)
REMARK    1  A    between atoms: C_1  and  O_7
REMARK    2  A    between atoms: C_6  and  O_15
REMARK    3  A    between atoms: O_7  and  C_8
REMARK    4  A    between atoms: C_8  and  C_9
REMARK                            x       y       z     vdW  Elec       q    Type
REMARK                         _______ _______ _______ _____ _____    ______ ____
ROOT
ATOM      1  C   UNL     1      62.238  40.682  54.144  0.00  0.00    +0.000 A 
ATOM      2  C   UNL     1      62.259  41.009  55.502  0.00  0.00    +0.000 A 
ATOM      3  C   UNL     1      61.524  39.563  53.714  0.00  0.00    +0.000 A 
ATOM      4  C   UNL     1      61.571  40.225  56.424  0.00  0.00    +0.000 A 
ATOM      5  C   UNL     1      60.834  38.774  54.631  0.00  0.00    +0.000 A 
ATOM      6  C   UNL     1      60.863  39.112  55.980  0.00  0.00    +0.000 A 
ENDROOT
BRANCH   6   7
ATOM      7  O   UNL     1      60.180  38.326  56.861  0.00  0.00    +0.000 OA
ATOM      8  H   UNL     1      60.787  37.643  57.195  0.00  0.00    +0.000 HD
ENDBRANCH   6   7
BRANCH   1   9
ATOM      9  O   UNL     1      62.883  41.394  53.163  0.00  0.00    +0.000 OA
BRANCH   9  10
ATOM     10  C   UNL     1      63.340  42.584  53.545  0.00  0.00    +0.000 C 
BRANCH  10  11
ATOM     11  C   UNL     1      63.834  43.853  53.968  0.00  0.00    +0.000 A 
ATOM     12  C   UNL     1      62.956  44.924  54.116  0.00  0.00    +0.000 A 
ATOM     13  C   UNL     1      63.439  46.166  54.524  0.00  0.00    +0.000 A 
ATOM     14  C   UNL     1      64.798  46.333  54.783  0.00  0.00    +0.000 A 
ATOM     15  C   UNL     1      65.674  45.260  54.635  0.00  0.00    +0.000 A 
ATOM     16  C   UNL     1      65.192  44.018  54.227  0.00  0.00    +0.000 A 
ENDBRANCH  10  11
ENDBRANCH   9  10
ENDBRANCH   1   9
TORSDOF 4
ENDMDL
MODEL 4
REMARK VINA RESULT:      -5.1     19.382     20.653
REMARK  Name = Monobenzone.pdbqt.pdb
REMARK  4 active torsions:
REMARK  status: ('A' for Active; 'I' for Inactive)
REMARK    1  A    between atoms: C_1  and  O_7
REMARK    2  A    between atoms: C_6  and  O_15
REMARK    3  A    between atoms: O_7  and  C_8
REMARK    4  A    between atoms: C_8  and  C_9
REMARK                            x       y       z     vdW  Elec       q    Type
REMARK                         _______ _______ _______ _____ _____    ______ ____
ROOT
ATOM      1  C   UNL     1      52.668  35.222  59.660  0.00  0.00    +0.000 A 
ATOM      2  C   UNL     1      51.461  35.894  59.870  0.00  0.00    +0.000 A 
ATOM      3  C   UNL     1      53.296  35.301  58.416  0.00  0.00    +0.000 A 
ATOM      4  C   UNL     1      50.886  36.641  58.846  0.00  0.00    +0.000 A 
ATOM      5  C   UNL     1      52.724  36.046  57.387  0.00  0.00    +0.000 A 
ATOM      6  C   UNL     1      51.523  36.711  57.611  0.00  0.00    +0.000 A 
ENDROOT
BRANCH   6   7
ATOM      7  O   UNL     1      50.982  37.436  56.590  0.00  0.00    +0.000 OA
ATOM      8  H   UNL     1      50.103  37.071  56.389  0.00  0.00    +0.000 HD
ENDBRANCH   6   7
BRANCH   1   9
ATOM      9  O   UNL     1      53.310  34.463  60.606  0.00  0.00    +0.000 OA
BRANCH   9  10
ATOM     10  C   UNL     1      53.570  35.096  61.748  0.00  0.00    +0.000 C 
BRANCH  10  11
ATOM     11  C   UNL     1      53.835  35.767  62.978  0.00  0.00    +0.000 A 
ATOM     12  C   UNL     1      52.778  36.153  63.799  0.00  0.00    +0.000 A 
ATOM     13  C   UNL     1      53.038  36.813  64.998  0.00  0.00    +0.000 A 
ATOM     14  C   UNL     1      54.351  37.085  65.373  0.00  0.00    +0.000 A 
ATOM     15  C   UNL     1      55.407  36.697  64.551  0.00  0.00    +0.000 A 
ATOM     16  C   UNL     1      55.150  36.037  63.352  0.00  0.00    +0.000 A 
ENDBRANCH  10  11
ENDBRANCH   9  10
ENDBRANCH   1   9
TORSDOF 4
ENDMDL
MODEL 5
REMARK VINA RESULT:      -5.0      4.401      5.307
REMARK  Name = Monobenzone.pdbqt.pdb
REMARK  4 active torsions:
REMARK  status: ('A' for Active; 'I' for Inactive)
REMARK    1  A    between atoms: C_1  and  O_7
REMARK    2  A    between atoms: C_6  and  O_15
REMARK    3  A    between atoms: O_7  and  C_8
REMARK    4  A    between atoms: C_8  and  C_9
REMARK                            x       y       z     vdW  Elec       q    Type
REMARK                         _______ _______ _______ _____ _____    ______ ____
ROOT
ATOM      1  C   UNL     1      58.396  52.101  58.797  0.00  0.00    +0.000 A 
ATOM      2  C   UNL     1      57.135  52.032  59.395  0.00  0.00    +0.000 A 
ATOM      3  C   UNL     1      58.672  51.317  57.675  0.00  0.00    +0.000 A 
ATOM      4  C   UNL     1      56.157  51.187  58.877  0.00  0.00    +0.000 A 
ATOM      5  C   UNL     1      57.698  50.470  57.153  0.00  0.00    +0.000 A 
ATOM      6  C   UNL     1      56.447  50.412  57.758  0.00  0.00    +0.000 A 
ENDROOT
BRANCH   6   7
ATOM      7  O   UNL     1      55.508  49.576  57.229  0.00  0.00    +0.000 OA
ATOM      8  H   UNL     1      55.931  48.720  57.043  0.00  0.00    +0.000 HD
ENDBRANCH   6   7
BRANCH   1   9
ATOM      9  O   UNL     1      59.421  52.901  59.235  0.00  0.00    +0.000 OA
BRANCH   9  10
ATOM     10  C   UNL     1      60.617  52.318  59.253  0.00  0.00    +0.000 C 
BRANCH  10  11
ATOM     11  C   UNL     1      61.906  51.708  59.274  0.00  0.00    +0.000 A 
ATOM     12  C   UNL     1      63.049  52.503  59.310  0.00  0.00    +0.000 A 
ATOM     13  C   UNL     1      64.308  51.907  59.324  0.00  0.00    +0.000 A 
ATOM     14  C   UNL     1      64.421  50.519  59.304  0.00  0.00    +0.000 A 
ATOM     15  C   UNL     1      63.276  49.726  59.269  0.00  0.00    +0.000 A 
ATOM     16  C   UNL     1      62.017  50.320  59.254  0.00  0.00    +0.000 A 
ENDBRANCH  10  11
ENDBRANCH   9  10
ENDBRANCH   1   9
TORSDOF 4
ENDMDL
MODEL 6
REMARK VINA RESULT:      -4.8     27.516     29.922
REMARK  Name = Monobenzone.pdbqt.pdb
REMARK  4 active torsions:
REMARK  status: ('A' for Active; 'I' for Inactive)
REMARK    1  A    between atoms: C_1  and  O_7
REMARK    2  A    between atoms: C_6  and  O_15
REMARK    3  A    between atoms: O_7  and  C_8
REMARK    4  A    between atoms: C_8  and  C_9
REMARK                            x       y       z     vdW  Elec       q    Type
REMARK                         _______ _______ _______ _____ _____    ______ ____
ROOT
ATOM      1  C   UNL     1      58.518  74.132  79.516  0.00  0.00    +0.000 A 
ATOM      2  C   UNL     1      58.393  72.881  78.906  0.00  0.00    +0.000 A 
ATOM      3  C   UNL     1      58.481  74.229  80.907  0.00  0.00    +0.000 A 
ATOM      4  C   UNL     1      58.233  71.736  79.681  0.00  0.00    +0.000 A 
ATOM      5  C   UNL     1      58.320  73.087  81.687  0.00  0.00    +0.000 A 
ATOM      6  C   UNL     1      58.198  71.848  81.067  0.00  0.00    +0.000 A 
ENDROOT
BRANCH   6   7
ATOM      7  O   UNL     1      58.042  70.742  81.851  0.00  0.00    +0.000 OA
ATOM      8  H   UNL     1      57.907  71.035  82.769  0.00  0.00    +0.000 HD
ENDBRANCH   6   7
BRANCH   1   9
ATOM      9  O   UNL     1      58.680  75.314  78.837  0.00  0.00    +0.000 OA
BRANCH   9  10
ATOM     10  C   UNL     1      59.758  76.013  79.181  0.00  0.00    +0.000 C 
BRANCH  10  11
ATOM     11  C   UNL     1      60.905  76.773  79.559  0.00  0.00    +0.000 A 
ATOM     12  C   UNL     1      60.863  77.571  80.699  0.00  0.00    +0.000 A 
ATOM     13  C   UNL     1      61.982  78.317  81.065  0.00  0.00    +0.000 A 
ATOM     14  C   UNL     1      63.138  78.262  80.291  0.00  0.00    +0.000 A 
ATOM     15  C   UNL     1      63.178  77.462  79.151  0.00  0.00    +0.000 A 
ATOM     16  C   UNL     1      62.061  76.716  78.784  0.00  0.00    +0.000 A 
ENDBRANCH  10  11
ENDBRANCH   9  10
ENDBRANCH   1   9
TORSDOF 4
ENDMDL
MODEL 7
REMARK VINA RESULT:      -4.8     35.454     37.495
REMARK  Name = Monobenzone.pdbqt.pdb
REMARK  4 active torsions:
REMARK  status: ('A' for Active; 'I' for Inactive)
REMARK    1  A    between atoms: C_1  and  O_7
REMARK    2  A    between atoms: C_6  and  O_15
REMARK    3  A    between atoms: O_7  and  C_8
REMARK    4  A    between atoms: C_8  and  C_9
REMARK                            x       y       z     vdW  Elec       q    Type
REMARK                         _______ _______ _______ _____ _____    ______ ____
ROOT
ATOM      1  C   UNL     1      75.407  80.631  84.752  0.00  0.00    +0.000 A 
ATOM      2  C   UNL     1      74.560  79.872  85.564  0.00  0.00    +0.000 A 
ATOM      3  C   UNL     1      74.986  81.878  84.289  0.00  0.00    +0.000 A 
ATOM      4  C   UNL     1      73.301  80.356  85.910  0.00  0.00    +0.000 A 
ATOM      5  C   UNL     1      73.728  82.367  84.631  0.00  0.00    +0.000 A 
ATOM      6  C   UNL     1      72.895  81.601  85.441  0.00  0.00    +0.000 A 
ENDROOT
BRANCH   6   7
ATOM      7  O   UNL     1      71.667  82.100  85.764  0.00  0.00    +0.000 OA
ATOM      8  H   UNL     1      71.379  82.691  85.047  0.00  0.00    +0.000 HD
ENDBRANCH   6   7
BRANCH   1   9
ATOM      9  O   UNL     1      76.662  80.239  84.359  0.00  0.00    +0.000 OA
BRANCH   9  10
ATOM     10  C   UNL     1      76.789  79.995  83.057  0.00  0.00    +0.000 C 
BRANCH  10  11
ATOM     11  C   UNL     1      76.916  79.746  81.658  0.00  0.00    +0.000 A 
ATOM     12  C   UNL     1      76.445  80.684  80.742  0.00  0.00    +0.000 A 
ATOM     13  C   UNL     1      76.564  80.439  79.375  0.00  0.00    +0.000 A 
ATOM     14  C   UNL     1      77.153  79.258  78.929  0.00  0.00    +0.000 A 
ATOM     15  C   UNL     1      77.624  78.322  79.847  0.00  0.00    +0.000 A 
ATOM     16  C   UNL     1      77.506  78.566  81.213  0.00  0.00    +0.000 A 
ENDBRANCH  10  11
ENDBRANCH   9  10
ENDBRANCH   1   9
TORSDOF 4
ENDMDL
MODEL 8
REMARK VINA RESULT:      -4.7     15.704     17.007
REMARK  Name = Monobenzone.pdbqt.pdb
REMARK  4 active torsions:
REMARK  status: ('A' for Active; 'I' for Inactive)
REMARK    1  A    between atoms: C_1  and  O_7
REMARK    2  A    between atoms: C_6  and  O_15
REMARK    3  A    between atoms: O_7  and  C_8
REMARK    4  A    between atoms: C_8  and  C_9
REMARK                            x       y       z     vdW  Elec       q    Type
REMARK                         _______ _______ _______ _____ _____    ______ ____
ROOT
ATOM      1  C   UNL     1      61.107  67.332  68.466  0.00  0.00    +0.000 A 
ATOM      2  C   UNL     1      61.245  68.511  69.203  0.00  0.00    +0.000 A 
ATOM      3  C   UNL     1      60.175  66.373  68.865  0.00  0.00    +0.000 A 
ATOM      4  C   UNL     1      60.457  68.730  70.330  0.00  0.00    +0.000 A 
ATOM      5  C   UNL     1      59.385  66.587  69.991  0.00  0.00    +0.000 A 
ATOM      6  C   UNL     1      59.533  67.765  70.715  0.00  0.00    +0.000 A 
ENDROOT
BRANCH   6   7
ATOM      7  O   UNL     1      58.748  67.954  71.815  0.00  0.00    +0.000 OA
ATOM      8  H   UNL     1      58.112  68.663  71.619  0.00  0.00    +0.000 HD
ENDBRANCH   6   7
BRANCH   1   9
ATOM      9  O   UNL     1      61.836  67.028  67.344  0.00  0.00    +0.000 OA
BRANCH   9  10
ATOM     10  C   UNL     1      63.088  67.479  67.351  0.00  0.00    +0.000 C 
BRANCH  10  11
ATOM     11  C   UNL     1      64.434  67.952  67.369  0.00  0.00    +0.000 A 
ATOM     12  C   UNL     1      65.487  67.045  67.283  0.00  0.00    +0.000 A 
ATOM     13  C   UNL     1      66.802  67.506  67.306  0.00  0.00    +0.000 A 
ATOM     14  C   UNL     1      67.059  68.870  67.416  0.00  0.00    +0.000 A 
ATOM     15  C   UNL     1      66.003  69.775  67.502  0.00  0.00    +0.000 A 
ATOM     16  C   UNL     1      64.689  69.316  67.478  0.00  0.00    +0.000 A 
ENDBRANCH  10  11
ENDBRANCH   9  10
ENDBRANCH   1   9
TORSDOF 4
ENDMDL
MODEL 9
REMARK VINA RESULT:      -4.6     19.868     21.803
REMARK  Name = Monobenzone.pdbqt.pdb
REMARK  4 active torsions:
REMARK  status: ('A' for Active; 'I' for Inactive)
REMARK    1  A    between atoms: C_1  and  O_7
REMARK    2  A    between atoms: C_6  and  O_15
REMARK    3  A    between atoms: O_7  and  C_8
REMARK    4  A    between atoms: C_8  and  C_9
REMARK                            x       y       z     vdW  Elec       q    Type
REMARK                         _______ _______ _______ _____ _____    ______ ____
ROOT
ATOM      1  C   UNL     1      50.561  41.281  71.377  0.00  0.00    +0.000 A 
ATOM      2  C   UNL     1      51.364  40.388  72.090  0.00  0.00    +0.000 A 
ATOM      3  C   UNL     1      50.907  42.632  71.325  0.00  0.00    +0.000 A 
ATOM      4  C   UNL     1      52.506  40.841  72.746  0.00  0.00    +0.000 A 
ATOM      5  C   UNL     1      52.047  43.091  71.980  0.00  0.00    +0.000 A 
ATOM      6  C   UNL     1      52.839  42.190  72.685  0.00  0.00    +0.000 A 
ENDROOT
BRANCH   6   7
ATOM      7  O   UNL     1      53.951  42.661  73.318  0.00  0.00    +0.000 OA
ATOM      8  H   UNL     1      54.206  43.503  72.903  0.00  0.00    +0.000 HD
ENDBRANCH   6   7
BRANCH   1   9
ATOM      9  O   UNL     1      49.420  40.930  70.700  0.00  0.00    +0.000 OA
BRANCH   9  10
ATOM     10  C   UNL     1      48.399  41.770  70.850  0.00  0.00    +0.000 C 
BRANCH  10  11
ATOM     11  C   UNL     1      47.307  42.677  70.996  0.00  0.00    +0.000 A 
ATOM     12  C   UNL     1      46.461  42.921  69.917  0.00  0.00    +0.000 A 
ATOM     13  C   UNL     1      45.398  43.811  70.059  0.00  0.00    +0.000 A 
ATOM     14  C   UNL     1      45.184  44.452  71.276  0.00  0.00    +0.000 A 
ATOM     15  C   UNL     1      46.032  44.205  72.354  0.00  0.00    +0.000 A 
ATOM     16  C   UNL     1      47.095  43.317  72.215  0.00  0.00    +0.000 A 
ENDBRANCH  10  11
ENDBRANCH   9  10
ENDBRANCH   1   9
TORSDOF 4
ENDMDL
