MODEL 1
REMARK VINA RESULT:      -5.4      0.000      0.000
REMARK  Name = 
REMARK  5 active torsions:
REMARK  status: ('A' for Active; 'I' for Inactive)
REMARK    1  A    between atoms: O_4  and  C_15
REMARK    2  A    between atoms: C_6  and  C_13
REMARK    3  A    between atoms: C_7  and  C_12
REMARK    4  A    between atoms: C_8  and  C_14
REMARK    5  A    between atoms: C_12  and  C_15
REMARK                            x       y       z     vdW  Elec       q    Type
REMARK                         _______ _______ _______ _____ _____    ______ ____
ROOT
ATOM      1  C   UNL     1      50.827  35.800  59.169  0.00  0.00    +0.000 A 
ATOM      2  C   UNL     1      49.190  35.682  60.988  0.00  0.00    +0.000 A 
ATOM      3  C   UNL     1      50.742  34.400  59.006  0.00  0.00    +0.000 A 
ATOM      4  C   UNL     1      50.047  36.423  60.163  0.00  0.00    +0.000 A 
ATOM      5  C   UNL     1      49.124  34.296  60.823  0.00  0.00    +0.000 A 
ATOM      6  C   UNL     1      49.889  33.664  59.842  0.00  0.00    +0.000 A 
ATOM      7  C   UNL     1      51.555  33.677  57.966  0.00  0.00    +0.000 C 
ENDROOT
BRANCH   1  11
ATOM      8  F   UNL     1      51.556  37.981  58.494  0.00  0.00    +0.000 F 
ATOM      9  F   UNL     1      53.065  36.423  58.527  0.00  0.00    +0.000 F 
ATOM     10  F   UNL     1      51.552  36.428  56.969  0.00  0.00    +0.000 F 
ATOM     11  C   UNL     1      51.738  36.644  58.302  0.00  0.00    +0.000 C 
ENDBRANCH   1  11
BRANCH   2  12
ATOM     12  C   UNL     1      48.374  36.366  62.060  0.00  0.00    +0.000 C 
BRANCH  12  14
ATOM     13  O   UNL     1      47.152  38.443  61.568  0.00  0.00    +0.000 OA
ATOM     14  C   UNL     1      47.259  37.229  61.524  0.00  0.00    +0.000 C 
BRANCH  14  15
ATOM     15  O   UNL     1      46.304  36.492  60.916  0.00  0.00    +0.000 OA
ATOM     16  H   UNL     1      45.485  36.723  61.405  0.00  0.00    +0.000 HD
ENDBRANCH  14  15
ENDBRANCH  12  14
ENDBRANCH   2  12
TORSDOF 4
ENDMDL
MODEL 2
REMARK VINA RESULT:      -5.2     27.856     28.612
REMARK  Name = 
REMARK  5 active torsions:
REMARK  status: ('A' for Active; 'I' for Inactive)
REMARK    1  A    between atoms: O_4  and  C_15
REMARK    2  A    between atoms: C_6  and  C_13
REMARK    3  A    between atoms: C_7  and  C_12
REMARK    4  A    between atoms: C_8  and  C_14
REMARK    5  A    between atoms: C_12  and  C_15
REMARK                            x       y       z     vdW  Elec       q    Type
REMARK                         _______ _______ _______ _____ _____    ______ ____
ROOT
ATOM      1  C   UNL     1      69.352  47.680  77.141  0.00  0.00    +0.000 A 
ATOM      2  C   UNL     1      70.281  45.423  77.360  0.00  0.00    +0.000 A 
ATOM      3  C   UNL     1      68.274  47.313  77.977  0.00  0.00    +0.000 A 
ATOM      4  C   UNL     1      70.343  46.724  76.843  0.00  0.00    +0.000 A 
ATOM      5  C   UNL     1      69.203  45.071  78.176  0.00  0.00    +0.000 A 
ATOM      6  C   UNL     1      68.213  46.006  78.482  0.00  0.00    +0.000 A 
ATOM      7  C   UNL     1      67.182  48.287  78.326  0.00  0.00    +0.000 C 
ENDROOT
BRANCH   1  11
ATOM      8  F   UNL     1      68.273  49.546  76.094  0.00  0.00    +0.000 F 
ATOM      9  F   UNL     1      69.898  50.006  77.455  0.00  0.00    +0.000 F 
ATOM     10  F   UNL     1      70.330  49.143  75.510  0.00  0.00    +0.000 F 
ATOM     11  C   UNL     1      69.464  49.073  76.559  0.00  0.00    +0.000 C 
ENDBRANCH   1  11
BRANCH   2  12
ATOM     12  C   UNL     1      71.345  44.407  77.014  0.00  0.00    +0.000 C 
BRANCH  12  14
ATOM     13  O   UNL     1      71.848  44.511  74.609  0.00  0.00    +0.000 OA
ATOM     14  C   UNL     1      71.327  43.970  75.570  0.00  0.00    +0.000 C 
BRANCH  14  15
ATOM     15  O   UNL     1      70.644  42.817  75.404  0.00  0.00    +0.000 OA
ATOM     16  H   UNL     1      69.814  43.100  74.962  0.00  0.00    +0.000 HD
ENDBRANCH  14  15
ENDBRANCH  12  14
ENDBRANCH   2  12
TORSDOF 4
ENDMDL
MODEL 3
REMARK VINA RESULT:      -5.0     20.447     22.008
REMARK  Name = 
REMARK  5 active torsions:
REMARK  status: ('A' for Active; 'I' for Inactive)
REMARK    1  A    between atoms: O_4  and  C_15
REMARK    2  A    between atoms: C_6  and  C_13
REMARK    3  A    between atoms: C_7  and  C_12
REMARK    4  A    between atoms: C_8  and  C_14
REMARK    5  A    between atoms: C_12  and  C_15
REMARK                            x       y       z     vdW  Elec       q    Type
REMARK                         _______ _______ _______ _____ _____    ______ ____
ROOT
ATOM      1  C   UNL     1      71.167  42.391  61.187  0.00  0.00    +0.000 A 
ATOM      2  C   UNL     1      71.242  40.008  61.753  0.00  0.00    +0.000 A 
ATOM      3  C   UNL     1      72.047  42.159  60.107  0.00  0.00    +0.000 A 
ATOM      4  C   UNL     1      70.777  41.306  61.998  0.00  0.00    +0.000 A 
ATOM      5  C   UNL     1      72.121  39.795  60.687  0.00  0.00    +0.000 A 
ATOM      6  C   UNL     1      72.517  40.858  59.873  0.00  0.00    +0.000 A 
ATOM      7  C   UNL     1      72.504  43.277  59.210  0.00  0.00    +0.000 C 
ENDROOT
BRANCH   1  11
ATOM      8  F   UNL     1      69.898  43.815  62.637  0.00  0.00    +0.000 F 
ATOM      9  F   UNL     1      71.615  44.711  61.660  0.00  0.00    +0.000 F 
ATOM     10  F   UNL     1      69.829  44.264  60.509  0.00  0.00    +0.000 F 
ATOM     11  C   UNL     1      70.636  43.776  61.492  0.00  0.00    +0.000 C 
ENDBRANCH   1  11
BRANCH   2  12
ATOM     12  C   UNL     1      70.826  38.861  62.644  0.00  0.00    +0.000 C 
BRANCH  12  14
ATOM     13  O   UNL     1      69.870  36.987  61.369  0.00  0.00    +0.000 OA
ATOM     14  C   UNL     1      69.746  37.988  62.054  0.00  0.00    +0.000 C 
BRANCH  14  15
ATOM     15  O   UNL     1      68.512  38.426  62.388  0.00  0.00    +0.000 OA
ATOM     16  H   UNL     1      67.961  37.614  62.356  0.00  0.00    +0.000 HD
ENDBRANCH  14  15
ENDBRANCH  12  14
ENDBRANCH   2  12
TORSDOF 4
ENDMDL
MODEL 4
REMARK VINA RESULT:      -5.0      3.719      5.113
REMARK  Name = 
REMARK  5 active torsions:
REMARK  status: ('A' for Active; 'I' for Inactive)
REMARK    1  A    between atoms: O_4  and  C_15
REMARK    2  A    between atoms: C_6  and  C_13
REMARK    3  A    between atoms: C_7  and  C_12
REMARK    4  A    between atoms: C_8  and  C_14
REMARK    5  A    between atoms: C_12  and  C_15
REMARK                            x       y       z     vdW  Elec       q    Type
REMARK                         _______ _______ _______ _____ _____    ______ ____
ROOT
ATOM      1  C   UNL     1      49.313  36.114  61.993  0.00  0.00    +0.000 A 
ATOM      2  C   UNL     1      50.864  35.771  60.128  0.00  0.00    +0.000 A 
ATOM      3  C   UNL     1      50.336  35.770  62.903  0.00  0.00    +0.000 A 
ATOM      4  C   UNL     1      49.594  36.108  60.612  0.00  0.00    +0.000 A 
ATOM      5  C   UNL     1      51.865  35.422  61.039  0.00  0.00    +0.000 A 
ATOM      6  C   UNL     1      51.604  35.424  62.410  0.00  0.00    +0.000 A 
ATOM      7  C   UNL     1      50.096  35.752  64.389  0.00  0.00    +0.000 C 
ENDROOT
BRANCH   1  11
ATOM      8  F   UNL     1      47.067  36.738  61.439  0.00  0.00    +0.000 F 
ATOM      9  F   UNL     1      47.321  35.513  63.210  0.00  0.00    +0.000 F 
ATOM     10  F   UNL     1      47.910  37.602  63.249  0.00  0.00    +0.000 F 
ATOM     11  C   UNL     1      47.924  36.486  62.468  0.00  0.00    +0.000 C 
ENDBRANCH   1  11
BRANCH   2  12
ATOM     12  C   UNL     1      51.140  35.753  58.643  0.00  0.00    +0.000 C 
BRANCH  12  14
ATOM     13  O   UNL     1      50.428  37.527  57.095  0.00  0.00    +0.000 OA
ATOM     14  C   UNL     1      51.133  37.119  58.002  0.00  0.00    +0.000 C 
BRANCH  14  15
ATOM     15  O   UNL     1      52.038  37.944  58.574  0.00  0.00    +0.000 OA
ATOM     16  H   UNL     1      52.892  37.654  58.187  0.00  0.00    +0.000 HD
ENDBRANCH  14  15
ENDBRANCH  12  14
ENDBRANCH   2  12
TORSDOF 4
ENDMDL
MODEL 5
REMARK VINA RESULT:      -5.0     13.662     15.003
REMARK  Name = 
REMARK  5 active torsions:
REMARK  status: ('A' for Active; 'I' for Inactive)
REMARK    1  A    between atoms: O_4  and  C_15
REMARK    2  A    between atoms: C_6  and  C_13
REMARK    3  A    between atoms: C_7  and  C_12
REMARK    4  A    between atoms: C_8  and  C_14
REMARK    5  A    between atoms: C_12  and  C_15
REMARK                            x       y       z     vdW  Elec       q    Type
REMARK                         _______ _______ _______ _____ _____    ______ ____
ROOT
ATOM      1  C   UNL     1      63.187  40.341  53.945  0.00  0.00    +0.000 A 
ATOM      2  C   UNL     1      62.072  38.967  55.641  0.00  0.00    +0.000 A 
ATOM      3  C   UNL     1      62.728  41.508  54.594  0.00  0.00    +0.000 A 
ATOM      4  C   UNL     1      62.849  39.082  54.482  0.00  0.00    +0.000 A 
ATOM      5  C   UNL     1      61.615  40.131  56.267  0.00  0.00    +0.000 A 
ATOM      6  C   UNL     1      61.942  41.386  55.750  0.00  0.00    +0.000 A 
ATOM      7  C   UNL     1      63.051  42.880  54.067  0.00  0.00    +0.000 C 
ENDROOT
BRANCH   1  11
ATOM      8  F   UNL     1      64.364  39.181  52.210  0.00  0.00    +0.000 F 
ATOM      9  F   UNL     1      63.414  41.050  51.654  0.00  0.00    +0.000 F 
ATOM     10  F   UNL     1      65.207  41.072  52.877  0.00  0.00    +0.000 F 
ATOM     11  C   UNL     1      64.030  40.412  52.690  0.00  0.00    +0.000 C 
ENDBRANCH   1  11
BRANCH   2  12
ATOM     12  C   UNL     1      61.706  37.609  56.190  0.00  0.00    +0.000 C 
BRANCH  12  14
ATOM     13  O   UNL     1      63.240  35.693  56.352  0.00  0.00    +0.000 OA
ATOM     14  C   UNL     1      62.886  36.811  56.687  0.00  0.00    +0.000 C 
BRANCH  14  15
ATOM     15  O   UNL     1      63.604  37.496  57.603  0.00  0.00    +0.000 OA
ATOM     16  H   UNL     1      63.076  37.406  58.426  0.00  0.00    +0.000 HD
ENDBRANCH  14  15
ENDBRANCH  12  14
ENDBRANCH   2  12
TORSDOF 4
ENDMDL
MODEL 6
REMARK VINA RESULT:      -4.9     25.906     27.675
REMARK  Name = 
REMARK  5 active torsions:
REMARK  status: ('A' for Active; 'I' for Inactive)
REMARK    1  A    between atoms: O_4  and  C_15
REMARK    2  A    between atoms: C_6  and  C_13
REMARK    3  A    between atoms: C_7  and  C_12
REMARK    4  A    between atoms: C_8  and  C_14
REMARK    5  A    between atoms: C_12  and  C_15
REMARK                            x       y       z     vdW  Elec       q    Type
REMARK                         _______ _______ _______ _____ _____    ______ ____
ROOT
ATOM      1  C   UNL     1      49.264  53.622  81.303  0.00  0.00    +0.000 A 
ATOM      2  C   UNL     1      49.487  51.463  82.442  0.00  0.00    +0.000 A 
ATOM      3  C   UNL     1      50.273  54.159  82.131  0.00  0.00    +0.000 A 
ATOM      4  C   UNL     1      48.884  52.275  81.473  0.00  0.00    +0.000 A 
ATOM      5  C   UNL     1      50.477  52.012  83.262  0.00  0.00    +0.000 A 
ATOM      6  C   UNL     1      50.866  53.344  83.106  0.00  0.00    +0.000 A 
ATOM      7  C   UNL     1      50.718  55.591  82.002  0.00  0.00    +0.000 C 
ENDROOT
BRANCH   1  11
ATOM      8  F   UNL     1      49.464  55.006  79.357  0.00  0.00    +0.000 F 
ATOM      9  F   UNL     1      47.695  53.757  79.478  0.00  0.00    +0.000 F 
ATOM     10  F   UNL     1      47.874  55.501  80.758  0.00  0.00    +0.000 F 
ATOM     11  C   UNL     1      48.582  54.458  80.241  0.00  0.00    +0.000 C 
ENDBRANCH   1  11
BRANCH   2  12
ATOM     12  C   UNL     1      49.053  50.028  82.621  0.00  0.00    +0.000 C 
BRANCH  12  14
ATOM     13  O   UNL     1      51.047  48.602  82.410  0.00  0.00    +0.000 OA
ATOM     14  C   UNL     1      49.984  49.024  81.986  0.00  0.00    +0.000 C 
BRANCH  14  15
ATOM     15  O   UNL     1      49.500  48.567  80.810  0.00  0.00    +0.000 OA
ATOM     16  H   UNL     1      48.611  48.221  81.044  0.00  0.00    +0.000 HD
ENDBRANCH  14  15
ENDBRANCH  12  14
ENDBRANCH   2  12
TORSDOF 4
ENDMDL
MODEL 7
REMARK VINA RESULT:      -4.9      1.733      2.345
REMARK  Name = 
REMARK  5 active torsions:
REMARK  status: ('A' for Active; 'I' for Inactive)
REMARK    1  A    between atoms: O_4  and  C_15
REMARK    2  A    between atoms: C_6  and  C_13
REMARK    3  A    between atoms: C_7  and  C_12
REMARK    4  A    between atoms: C_8  and  C_14
REMARK    5  A    between atoms: C_12  and  C_15
REMARK                            x       y       z     vdW  Elec       q    Type
REMARK                         _______ _______ _______ _____ _____    ______ ____
ROOT
ATOM      1  C   UNL     1      50.977  35.596  60.570  0.00  0.00    +0.000 A 
ATOM      2  C   UNL     1      48.839  36.002  61.697  0.00  0.00    +0.000 A 
ATOM      3  C   UNL     1      51.629  35.576  61.822  0.00  0.00    +0.000 A 
ATOM      4  C   UNL     1      49.585  35.811  60.527  0.00  0.00    +0.000 A 
ATOM      5  C   UNL     1      49.500  35.991  62.929  0.00  0.00    +0.000 A 
ATOM      6  C   UNL     1      50.878  35.778  62.990  0.00  0.00    +0.000 A 
ATOM      7  C   UNL     1      53.114  35.357  61.933  0.00  0.00    +0.000 C 
ENDROOT
BRANCH   1  11
ATOM      8  F   UNL     1      50.935  35.458  58.178  0.00  0.00    +0.000 F 
ATOM      9  F   UNL     1      52.714  36.324  59.067  0.00  0.00    +0.000 F 
ATOM     10  F   UNL     1      52.365  34.186  59.213  0.00  0.00    +0.000 F 
ATOM     11  C   UNL     1      51.739  35.394  59.277  0.00  0.00    +0.000 C 
ENDBRANCH   1  11
BRANCH   2  12
ATOM     12  C   UNL     1      47.351  36.249  61.629  0.00  0.00    +0.000 C 
BRANCH  12  14
ATOM     13  O   UNL     1      47.410  38.602  62.343  0.00  0.00    +0.000 OA
ATOM     14  C   UNL     1      46.972  37.709  61.637  0.00  0.00    +0.000 C 
BRANCH  14  15
ATOM     15  O   UNL     1      46.035  37.988  60.704  0.00  0.00    +0.000 OA
ATOM     16  H   UNL     1      45.363  37.284  60.832  0.00  0.00    +0.000 HD
ENDBRANCH  14  15
ENDBRANCH  12  14
ENDBRANCH   2  12
TORSDOF 4
ENDMDL
MODEL 8
REMARK VINA RESULT:      -4.9     20.347     22.012
REMARK  Name = 
REMARK  5 active torsions:
REMARK  status: ('A' for Active; 'I' for Inactive)
REMARK    1  A    between atoms: O_4  and  C_15
REMARK    2  A    between atoms: C_6  and  C_13
REMARK    3  A    between atoms: C_7  and  C_12
REMARK    4  A    between atoms: C_8  and  C_14
REMARK    5  A    between atoms: C_12  and  C_15
REMARK                            x       y       z     vdW  Elec       q    Type
REMARK                         _______ _______ _______ _____ _____    ______ ____
ROOT
ATOM      1  C   UNL     1      62.568  54.776  61.165  0.00  0.00    +0.000 A 
ATOM      2  C   UNL     1      61.362  53.434  59.507  0.00  0.00    +0.000 A 
ATOM      3  C   UNL     1      63.762  54.603  60.432  0.00  0.00    +0.000 A 
ATOM      4  C   UNL     1      61.381  54.185  60.690  0.00  0.00    +0.000 A 
ATOM      5  C   UNL     1      62.554  53.261  58.798  0.00  0.00    +0.000 A 
ATOM      6  C   UNL     1      63.739  53.841  59.254  0.00  0.00    +0.000 A 
ATOM      7  C   UNL     1      65.063  55.204  60.891  0.00  0.00    +0.000 C 
ENDROOT
BRANCH   1  11
ATOM      8  F   UNL     1      63.156  54.943  63.483  0.00  0.00    +0.000 F 
ATOM      9  F   UNL     1      63.154  56.792  62.349  0.00  0.00    +0.000 F 
ATOM     10  F   UNL     1      61.272  55.847  62.877  0.00  0.00    +0.000 F 
ATOM     11  C   UNL     1      62.537  55.579  62.448  0.00  0.00    +0.000 C 
ENDBRANCH   1  11
BRANCH   2  12
ATOM     12  C   UNL     1      60.083  52.793  59.024  0.00  0.00    +0.000 C 
BRANCH  12  14
ATOM     13  O   UNL     1      60.782  50.535  59.702  0.00  0.00    +0.000 OA
ATOM     14  C   UNL     1      60.124  51.285  59.002  0.00  0.00    +0.000 C 
BRANCH  14  15
ATOM     15  O   UNL     1      59.285  50.775  58.074  0.00  0.00    +0.000 OA
ATOM     16  H   UNL     1      58.474  50.563  58.585  0.00  0.00    +0.000 HD
ENDBRANCH  14  15
ENDBRANCH  12  14
ENDBRANCH   2  12
TORSDOF 4
ENDMDL
MODEL 9
REMARK VINA RESULT:      -4.8     20.304     22.058
REMARK  Name = 
REMARK  5 active torsions:
REMARK  status: ('A' for Active; 'I' for Inactive)
REMARK    1  A    between atoms: O_4  and  C_15
REMARK    2  A    between atoms: C_6  and  C_13
REMARK    3  A    between atoms: C_7  and  C_12
REMARK    4  A    between atoms: C_8  and  C_14
REMARK    5  A    between atoms: C_12  and  C_15
REMARK                            x       y       z     vdW  Elec       q    Type
REMARK                         _______ _______ _______ _____ _____    ______ ____
ROOT
ATOM      1  C   UNL     1      61.855  54.967  60.800  0.00  0.00    +0.000 A 
ATOM      2  C   UNL     1      62.546  53.051  59.438  0.00  0.00    +0.000 A 
ATOM      3  C   UNL     1      63.205  55.360  60.926  0.00  0.00    +0.000 A 
ATOM      4  C   UNL     1      61.545  53.812  60.055  0.00  0.00    +0.000 A 
ATOM      5  C   UNL     1      63.880  53.446  59.582  0.00  0.00    +0.000 A 
ATOM      6  C   UNL     1      64.204  54.588  60.315  0.00  0.00    +0.000 A 
ATOM      7  C   UNL     1      63.600  56.581  61.714  0.00  0.00    +0.000 C 
ENDROOT
BRANCH   1  11
ATOM      8  F   UNL     1      60.702  57.055  61.033  0.00  0.00    +0.000 F 
ATOM      9  F   UNL     1      59.494  55.260  61.184  0.00  0.00    +0.000 F 
ATOM     10  F   UNL     1      60.833  55.800  62.806  0.00  0.00    +0.000 F 
ATOM     11  C   UNL     1      60.737  55.757  61.447  0.00  0.00    +0.000 C 
ENDBRANCH   1  11
BRANCH   2  12
ATOM     12  C   UNL     1      62.195  51.806  58.659  0.00  0.00    +0.000 C 
BRANCH  12  14
ATOM     13  O   UNL     1      59.971  51.235  59.540  0.00  0.00    +0.000 OA
ATOM     14  C   UNL     1      61.135  50.953  59.312  0.00  0.00    +0.000 C 
BRANCH  14  15
ATOM     15  O   UNL     1      61.608  49.732  59.641  0.00  0.00    +0.000 OA
ATOM     16  H   UNL     1      61.021  49.445  60.374  0.00  0.00    +0.000 HD
ENDBRANCH  14  15
ENDBRANCH  12  14
ENDBRANCH   2  12
TORSDOF 4
ENDMDL
