MODEL 1
REMARK VINA RESULT:      -6.4      0.000      0.000
REMARK  Name = OTSSP167.pdbqt.pdb
REMARK  7 active torsions:
REMARK  status: ('A' for Active; 'I' for Inactive)
REMARK    1  A    between atoms: C_5  and  N_19
REMARK    2  A    between atoms: C_7  and  C_31
REMARK    3  A    between atoms: C_11  and  C_13
REMARK    4  A    between atoms: C_18  and  O_34
REMARK    5  A    between atoms: N_19  and  C_21
REMARK    6  A    between atoms: C_24  and  C_27
REMARK    7  A    between atoms: C_27  and  N_28
REMARK                            x       y       z     vdW  Elec       q    Type
REMARK                         _______ _______ _______ _____ _____    ______ ____
ROOT
ATOM      1  N   UNL     1      67.693  48.709  57.615  0.00  0.00    +0.000 NA
ATOM      2  N   UNL     1      70.734  50.442  58.665  0.00  0.00    +0.000 NA
ATOM      3  C   UNL     1      67.995  50.426  59.315  0.00  0.00    +0.000 A 
ATOM      4  C   UNL     1      68.494  49.554  58.311  0.00  0.00    +0.000 A 
ATOM      5  C   UNL     1      68.903  51.289  59.961  0.00  0.00    +0.000 A 
ATOM      6  C   UNL     1      69.877  49.620  58.037  0.00  0.00    +0.000 A 
ATOM      7  C   UNL     1      70.234  51.259  59.609  0.00  0.00    +0.000 A 
ATOM      8  C   UNL     1      70.371  48.783  57.054  0.00  0.00    +0.000 A 
ATOM      9  C   UNL     1      68.206  47.893  56.662  0.00  0.00    +0.000 A 
ATOM     10  C   UNL     1      69.553  47.909  56.354  0.00  0.00    +0.000 A 
ENDROOT
BRANCH   9  13
ATOM     11 CL   UNL     1      63.396  47.104  54.949  0.00  0.00    +0.000 Cl
ATOM     12 CL   UNL     1      67.267  43.296  54.494  0.00  0.00    +0.000 Cl
ATOM     13  C   UNL     1      67.256  46.995  56.002  0.00  0.00    +0.000 A 
ATOM     14  C   UNL     1      67.623  45.710  55.585  0.00  0.00    +0.000 A 
ATOM     15  C   UNL     1      65.931  47.391  55.776  0.00  0.00    +0.000 A 
ATOM     16  C   UNL     1      65.009  46.544  55.166  0.00  0.00    +0.000 A 
ATOM     17  C   UNL     1      66.710  44.854  54.968  0.00  0.00    +0.000 A 
ATOM     18  C   UNL     1      65.394  45.269  54.756  0.00  0.00    +0.000 A 
BRANCH  18  19
ATOM     19  O   UNL     1      64.501  44.423  54.153  0.00  0.00    +0.000 OA
ATOM     20  H   UNL     1      63.966  43.996  54.848  0.00  0.00    +0.000 HD
ENDBRANCH  18  19
ENDBRANCH   9  13
BRANCH   5  21
ATOM     21  C   UNL     1      68.497  52.260  60.975  0.00  0.00    +0.000 C 
ATOM     22  O   UNL     1      67.763  53.214  60.777  0.00  0.00    +0.000 OA
ATOM     23  C   UNL     1      68.976  52.236  62.395  0.00  0.00    +0.000 C 
ENDBRANCH   5  21
BRANCH   3  24
ATOM     24  N   UNL     1      66.637  50.394  59.770  0.00  0.00    +0.000 N 
ATOM     25  H   UNL     1      66.524  50.535  60.778  0.00  0.00    +0.000 HD
BRANCH  24  26
ATOM     26  C   UNL     1      65.506  50.666  59.053  0.00  0.00    +0.000 A 
ATOM     27  C   UNL     1      64.913  51.970  59.209  0.00  0.00    +0.000 A 
ATOM     28  C   UNL     1      63.397  52.280  59.310  0.00  0.00    +0.000 A 
ATOM     29  C   UNL     1      62.348  51.289  59.271  0.00  0.00    +0.000 A 
ATOM     30  C   UNL     1      62.939  49.981  59.141  0.00  0.00    +0.000 A 
ATOM     31  C   UNL     1      64.455  49.677  59.042  0.00  0.00    +0.000 A 
BRANCH  29  32
ATOM     32  C   UNL     1      60.964  51.565  59.224  0.00  0.00    +0.000 C 
BRANCH  32  33
ATOM     33  N   UNL     1      59.537  51.831  59.171  0.00  0.00    +0.000 NA
ATOM     34  C   UNL     1      59.033  51.253  57.936  0.00  0.00    +0.000 C 
ATOM     35  C   UNL     1      59.367  53.271  59.069  0.00  0.00    +0.000 C 
ENDBRANCH  32  33
ENDBRANCH  29  32
ENDBRANCH  24  26
ENDBRANCH   3  24
TORSDOF 7
ENDMDL
MODEL 2
REMARK VINA RESULT:      -6.4     17.314     20.190
REMARK  Name = OTSSP167.pdbqt.pdb
REMARK  7 active torsions:
REMARK  status: ('A' for Active; 'I' for Inactive)
REMARK    1  A    between atoms: C_5  and  N_19
REMARK    2  A    between atoms: C_7  and  C_31
REMARK    3  A    between atoms: C_11  and  C_13
REMARK    4  A    between atoms: C_18  and  O_34
REMARK    5  A    between atoms: N_19  and  C_21
REMARK    6  A    between atoms: C_24  and  C_27
REMARK    7  A    between atoms: C_27  and  N_28
REMARK                            x       y       z     vdW  Elec       q    Type
REMARK                         _______ _______ _______ _____ _____    ______ ____
ROOT
ATOM      1  N   UNL     1      52.705  35.443  62.196  0.00  0.00    +0.000 NA
ATOM      2  N   UNL     1      51.429  34.821  65.563  0.00  0.00    +0.000 NA
ATOM      3  C   UNL     1      53.691  35.984  64.355  0.00  0.00    +0.000 A 
ATOM      4  C   UNL     1      52.651  35.447  63.551  0.00  0.00    +0.000 A 
ATOM      5  C   UNL     1      53.556  35.912  65.757  0.00  0.00    +0.000 A 
ATOM      6  C   UNL     1      51.550  34.878  64.227  0.00  0.00    +0.000 A 
ATOM      7  C   UNL     1      52.430  35.335  66.301  0.00  0.00    +0.000 A 
ATOM      8  C   UNL     1      50.537  34.342  63.453  0.00  0.00    +0.000 A 
ATOM      9  C   UNL     1      51.693  34.919  61.462  0.00  0.00    +0.000 A 
ATOM     10  C   UNL     1      50.587  34.354  62.067  0.00  0.00    +0.000 A 
ENDROOT
BRANCH   9  13
ATOM     11 CL   UNL     1      53.580  32.845  57.123  0.00  0.00    +0.000 Cl
ATOM     12 CL   UNL     1      50.776  37.517  57.088  0.00  0.00    +0.000 Cl
ATOM     13  C   UNL     1      51.839  35.005  60.007  0.00  0.00    +0.000 A 
ATOM     14  C   UNL     1      51.312  36.076  59.275  0.00  0.00    +0.000 A 
ATOM     15  C   UNL     1      52.531  34.017  59.295  0.00  0.00    +0.000 A 
ATOM     16  C   UNL     1      52.696  34.092  57.914  0.00  0.00    +0.000 A 
ATOM     17  C   UNL     1      51.466  36.159  57.890  0.00  0.00    +0.000 A 
ATOM     18  C   UNL     1      52.161  35.164  57.202  0.00  0.00    +0.000 A 
BRANCH  18  19
ATOM     19  O   UNL     1      52.312  35.253  55.843  0.00  0.00    +0.000 OA
ATOM     20  H   UNL     1      51.704  34.615  55.425  0.00  0.00    +0.000 HD
ENDBRANCH  18  19
ENDBRANCH   9  13
BRANCH   5  21
ATOM     21  C   UNL     1      54.581  36.389  66.683  0.00  0.00    +0.000 C 
ATOM     22  O   UNL     1      54.762  37.557  66.985  0.00  0.00    +0.000 OA
ATOM     23  C   UNL     1      55.584  35.499  67.351  0.00  0.00    +0.000 C 
ENDBRANCH   5  21
BRANCH   3  24
ATOM     24  N   UNL     1      54.815  36.684  63.810  0.00  0.00    +0.000 N 
ATOM     25  H   UNL     1      54.865  37.674  64.068  0.00  0.00    +0.000 HD
BRANCH  24  26
ATOM     26  C   UNL     1      56.017  36.164  63.416  0.00  0.00    +0.000 A 
ATOM     27  C   UNL     1      56.243  34.759  63.646  0.00  0.00    +0.000 A 
ATOM     28  C   UNL     1      57.564  34.115  64.140  0.00  0.00    +0.000 A 
ATOM     29  C   UNL     1      58.770  34.842  64.456  0.00  0.00    +0.000 A 
ATOM     30  C   UNL     1      58.538  36.250  64.252  0.00  0.00    +0.000 A 
ATOM     31  C   UNL     1      57.216  36.889  63.759  0.00  0.00    +0.000 A 
BRANCH  29  32
ATOM     32  C   UNL     1      60.016  34.260  64.774  0.00  0.00    +0.000 C 
BRANCH  32  33
ATOM     33  N   UNL     1      61.299  33.672  65.118  0.00  0.00    +0.000 NA
ATOM     34  C   UNL     1      61.071  32.740  66.210  0.00  0.00    +0.000 C 
ATOM     35  C   UNL     1      62.140  34.738  65.636  0.00  0.00    +0.000 C 
ENDBRANCH  32  33
ENDBRANCH  29  32
ENDBRANCH  24  26
ENDBRANCH   3  24
TORSDOF 7
ENDMDL
MODEL 3
REMARK VINA RESULT:      -6.3     16.955     19.205
REMARK  Name = OTSSP167.pdbqt.pdb
REMARK  7 active torsions:
REMARK  status: ('A' for Active; 'I' for Inactive)
REMARK    1  A    between atoms: C_5  and  N_19
REMARK    2  A    between atoms: C_7  and  C_31
REMARK    3  A    between atoms: C_11  and  C_13
REMARK    4  A    between atoms: C_18  and  O_34
REMARK    5  A    between atoms: N_19  and  C_21
REMARK    6  A    between atoms: C_24  and  C_27
REMARK    7  A    between atoms: C_27  and  N_28
REMARK                            x       y       z     vdW  Elec       q    Type
REMARK                         _______ _______ _______ _____ _____    ______ ____
ROOT
ATOM      1  N   UNL     1      57.035  37.200  66.396  0.00  0.00    +0.000 NA
ATOM      2  N   UNL     1      56.826  34.668  63.770  0.00  0.00    +0.000 NA
ATOM      3  C   UNL     1      55.140  36.550  65.012  0.00  0.00    +0.000 A 
ATOM      4  C   UNL     1      56.500  36.441  65.407  0.00  0.00    +0.000 A 
ATOM      5  C   UNL     1      54.670  35.694  63.995  0.00  0.00    +0.000 A 
ATOM      6  C   UNL     1      57.283  35.473  64.743  0.00  0.00    +0.000 A 
ATOM      7  C   UNL     1      55.534  34.790  63.417  0.00  0.00    +0.000 A 
ATOM      8  C   UNL     1      58.605  35.351  65.129  0.00  0.00    +0.000 A 
ATOM      9  C   UNL     1      58.337  37.065  66.748  0.00  0.00    +0.000 A 
ATOM     10  C   UNL     1      59.154  36.140  66.129  0.00  0.00    +0.000 A 
ENDROOT
BRANCH   9  13
ATOM     11 CL   UNL     1      57.472  39.304  71.323  0.00  0.00    +0.000 Cl
ATOM     12 CL   UNL     1      62.009  40.273  68.464  0.00  0.00    +0.000 Cl
ATOM     13  C   UNL     1      58.817  37.964  67.800  0.00  0.00    +0.000 A 
ATOM     14  C   UNL     1      60.041  38.636  67.694  0.00  0.00    +0.000 A 
ATOM     15  C   UNL     1      58.053  38.195  68.951  0.00  0.00    +0.000 A 
ATOM     16  C   UNL     1      58.486  39.061  69.953  0.00  0.00    +0.000 A 
ATOM     17  C   UNL     1      60.487  39.500  68.694  0.00  0.00    +0.000 A 
ATOM     18  C   UNL     1      59.709  39.718  69.831  0.00  0.00    +0.000 A 
BRANCH  18  19
ATOM     19  O   UNL     1      60.150  40.571  70.808  0.00  0.00    +0.000 OA
ATOM     20  H   UNL     1      60.462  40.038  71.563  0.00  0.00    +0.000 HD
ENDBRANCH  18  19
ENDBRANCH   9  13
BRANCH   5  21
ATOM     21  C   UNL     1      53.282  35.684  63.538  0.00  0.00    +0.000 C 
ATOM     22  O   UNL     1      52.638  36.674  63.234  0.00  0.00    +0.000 OA
ATOM     23  C   UNL     1      52.445  34.445  63.431  0.00  0.00    +0.000 C 
ENDBRANCH   5  21
BRANCH   3  24
ATOM     24  N   UNL     1      54.257  37.555  65.523  0.00  0.00    +0.000 N 
ATOM     25  H   UNL     1      53.971  38.258  64.836  0.00  0.00    +0.000 HD
BRANCH  24  26
ATOM     26  C   UNL     1      53.410  37.462  66.592  0.00  0.00    +0.000 A 
ATOM     27  C   UNL     1      52.149  38.154  66.506  0.00  0.00    +0.000 A 
ATOM     28  C   UNL     1      51.463  38.949  67.647  0.00  0.00    +0.000 A 
ATOM     29  C   UNL     1      52.002  39.119  68.975  0.00  0.00    +0.000 A 
ATOM     30  C   UNL     1      53.276  38.450  69.056  0.00  0.00    +0.000 A 
ATOM     31  C   UNL     1      53.958  37.658  67.913  0.00  0.00    +0.000 A 
BRANCH  29  32
ATOM     32  C   UNL     1      51.329  39.721  70.060  0.00  0.00    +0.000 C 
BRANCH  32  33
ATOM     33  N   UNL     1      50.631  40.323  71.183  0.00  0.00    +0.000 NA
ATOM     34  C   UNL     1      49.339  40.780  70.697  0.00  0.00    +0.000 C 
ATOM     35  C   UNL     1      51.380  41.505  71.577  0.00  0.00    +0.000 C 
ENDBRANCH  32  33
ENDBRANCH  29  32
ENDBRANCH  24  26
ENDBRANCH   3  24
TORSDOF 7
ENDMDL
MODEL 4
REMARK VINA RESULT:      -6.3     27.981     30.253
REMARK  Name = OTSSP167.pdbqt.pdb
REMARK  7 active torsions:
REMARK  status: ('A' for Active; 'I' for Inactive)
REMARK    1  A    between atoms: C_5  and  N_19
REMARK    2  A    between atoms: C_7  and  C_31
REMARK    3  A    between atoms: C_11  and  C_13
REMARK    4  A    between atoms: C_18  and  O_34
REMARK    5  A    between atoms: N_19  and  C_21
REMARK    6  A    between atoms: C_24  and  C_27
REMARK    7  A    between atoms: C_27  and  N_28
REMARK                            x       y       z     vdW  Elec       q    Type
REMARK                         _______ _______ _______ _____ _____    ______ ____
ROOT
ATOM      1  N   UNL     1      52.715  51.849  83.964  0.00  0.00    +0.000 NA
ATOM      2  N   UNL     1      52.753  49.273  86.556  0.00  0.00    +0.000 NA
ATOM      3  C   UNL     1      54.534  50.402  84.690  0.00  0.00    +0.000 A 
ATOM      4  C   UNL     1      53.197  50.874  84.775  0.00  0.00    +0.000 A 
ATOM      5  C   UNL     1      54.931  49.362  85.556  0.00  0.00    +0.000 A 
ATOM      6  C   UNL     1      52.362  50.258  85.731  0.00  0.00    +0.000 A 
ATOM      7  C   UNL     1      54.023  48.843  86.453  0.00  0.00    +0.000 A 
ATOM      8  C   UNL     1      51.055  50.703  85.814  0.00  0.00    +0.000 A 
ATOM      9  C   UNL     1      51.432  52.272  84.074  0.00  0.00    +0.000 A 
ATOM     10  C   UNL     1      50.569  51.712  84.995  0.00  0.00    +0.000 A 
ENDROOT
BRANCH   9  13
ATOM     11 CL   UNL     1      48.341  53.880  80.259  0.00  0.00    +0.000 Cl
ATOM     12 CL   UNL     1      52.149  57.119  82.427  0.00  0.00    +0.000 Cl
ATOM     13  C   UNL     1      51.032  53.357  83.175  0.00  0.00    +0.000 A 
ATOM     14  C   UNL     1      51.673  54.601  83.190  0.00  0.00    +0.000 A 
ATOM     15  C   UNL     1      49.993  53.179  82.252  0.00  0.00    +0.000 A 
ATOM     16  C   UNL     1      49.612  54.193  81.377  0.00  0.00    +0.000 A 
ATOM     17  C   UNL     1      51.295  55.627  82.323  0.00  0.00    +0.000 A 
ATOM     18  C   UNL     1      50.261  55.426  81.409  0.00  0.00    +0.000 A 
BRANCH  18  19
ATOM     19  O   UNL     1      49.897  56.436  80.557  0.00  0.00    +0.000 OA
ATOM     20  H   UNL     1      49.007  56.745  80.811  0.00  0.00    +0.000 HD
ENDBRANCH  18  19
ENDBRANCH   9  13
BRANCH   5  21
ATOM     21  C   UNL     1      56.264  48.765  85.528  0.00  0.00    +0.000 C 
ATOM     22  O   UNL     1      56.757  48.198  84.568  0.00  0.00    +0.000 OA
ATOM     23  C   UNL     1      57.191  48.732  86.706  0.00  0.00    +0.000 C 
ENDBRANCH   5  21
BRANCH   3  24
ATOM     24  N   UNL     1      55.520  51.000  83.842  0.00  0.00    +0.000 N 
ATOM     25  H   UNL     1      55.283  50.994  82.846  0.00  0.00    +0.000 HD
BRANCH  24  26
ATOM     26  C   UNL     1      56.450  51.946  84.174  0.00  0.00    +0.000 A 
ATOM     27  C   UNL     1      57.840  51.593  84.036  0.00  0.00    +0.000 A 
ATOM     28  C   UNL     1      58.978  51.953  85.026  0.00  0.00    +0.000 A 
ATOM     29  C   UNL     1      58.802  52.695  86.251  0.00  0.00    +0.000 A 
ATOM     30  C   UNL     1      57.408  53.028  86.405  0.00  0.00    +0.000 A 
ATOM     31  C   UNL     1      56.275  52.665  85.414  0.00  0.00    +0.000 A 
BRANCH  29  32
ATOM     32  C   UNL     1      59.844  53.147  87.090  0.00  0.00    +0.000 C 
BRANCH  32  33
ATOM     33  N   UNL     1      60.903  53.620  87.965  0.00  0.00    +0.000 NA
ATOM     34  C   UNL     1      61.386  54.879  87.422  0.00  0.00    +0.000 C 
ATOM     35  C   UNL     1      61.998  52.668  87.873  0.00  0.00    +0.000 C 
ENDBRANCH  32  33
ENDBRANCH  29  32
ENDBRANCH  24  26
ENDBRANCH   3  24
TORSDOF 7
ENDMDL
MODEL 5
REMARK VINA RESULT:      -6.3      4.487      8.225
REMARK  Name = OTSSP167.pdbqt.pdb
REMARK  7 active torsions:
REMARK  status: ('A' for Active; 'I' for Inactive)
REMARK    1  A    between atoms: C_5  and  N_19
REMARK    2  A    between atoms: C_7  and  C_31
REMARK    3  A    between atoms: C_11  and  C_13
REMARK    4  A    between atoms: C_18  and  O_34
REMARK    5  A    between atoms: N_19  and  C_21
REMARK    6  A    between atoms: C_24  and  C_27
REMARK    7  A    between atoms: C_27  and  N_28
REMARK                            x       y       z     vdW  Elec       q    Type
REMARK                         _______ _______ _______ _____ _____    ______ ____
ROOT
ATOM      1  N   UNL     1      63.661  52.218  59.225  0.00  0.00    +0.000 NA
ATOM      2  N   UNL     1      60.266  50.869  59.265  0.00  0.00    +0.000 NA
ATOM      3  C   UNL     1      61.525  53.386  59.189  0.00  0.00    +0.000 A 
ATOM      4  C   UNL     1      62.305  52.199  59.212  0.00  0.00    +0.000 A 
ATOM      5  C   UNL     1      60.121  53.262  59.210  0.00  0.00    +0.000 A 
ATOM      6  C   UNL     1      61.604  50.975  59.253  0.00  0.00    +0.000 A 
ATOM      7  C   UNL     1      59.551  52.009  59.246  0.00  0.00    +0.000 A 
ATOM      8  C   UNL     1      62.355  49.813  59.287  0.00  0.00    +0.000 A 
ATOM      9  C   UNL     1      64.372  51.064  59.249  0.00  0.00    +0.000 A 
ATOM     10  C   UNL     1      63.742  49.835  59.283  0.00  0.00    +0.000 A 
ENDROOT
BRANCH   9  13
ATOM     11 CL   UNL     1      68.504  54.033  60.146  0.00  0.00    +0.000 Cl
ATOM     12 CL   UNL     1      68.973  48.998  58.114  0.00  0.00    +0.000 Cl
ATOM     13  C   UNL     1      65.830  51.203  59.219  0.00  0.00    +0.000 A 
ATOM     14  C   UNL     1      66.659  50.178  58.748  0.00  0.00    +0.000 A 
ATOM     15  C   UNL     1      66.447  52.383  59.653  0.00  0.00    +0.000 A 
ATOM     16  C   UNL     1      67.831  52.540  59.615  0.00  0.00    +0.000 A 
ATOM     17  C   UNL     1      68.046  50.322  58.711  0.00  0.00    +0.000 A 
ATOM     18  C   UNL     1      68.640  51.507  59.145  0.00  0.00    +0.000 A 
BRANCH  18  19
ATOM     19  O   UNL     1      70.003  51.644  59.103  0.00  0.00    +0.000 OA
ATOM     20  H   UNL     1      70.404  50.778  59.304  0.00  0.00    +0.000 HD
ENDBRANCH  18  19
ENDBRANCH   9  13
BRANCH   5  21
ATOM     21  C   UNL     1      59.219  54.412  59.235  0.00  0.00    +0.000 C 
ATOM     22  O   UNL     1      59.076  55.168  60.181  0.00  0.00    +0.000 OA
ATOM     23  C   UNL     1      58.306  54.784  58.107  0.00  0.00    +0.000 C 
ENDBRANCH   5  21
BRANCH   3  24
ATOM     24  N   UNL     1      62.096  54.691  59.042  0.00  0.00    +0.000 N 
ATOM     25  H   UNL     1      61.794  55.194  58.202  0.00  0.00    +0.000 HD
BRANCH  24  26
ATOM     26  C   UNL     1      62.578  55.511  60.024  0.00  0.00    +0.000 A 
ATOM     27  C   UNL     1      62.545  56.931  59.783  0.00  0.00    +0.000 A 
ATOM     28  C   UNL     1      63.660  57.946  60.147  0.00  0.00    +0.000 A 
ATOM     29  C   UNL     1      64.911  57.607  60.779  0.00  0.00    +0.000 A 
ATOM     30  C   UNL     1      64.958  56.183  60.998  0.00  0.00    +0.000 A 
ATOM     31  C   UNL     1      63.842  55.173  60.631  0.00  0.00    +0.000 A 
BRANCH  29  32
ATOM     32  C   UNL     1      65.873  58.532  61.239  0.00  0.00    +0.000 C 
BRANCH  32  33
ATOM     33  N   UNL     1      66.875  59.470  61.715  0.00  0.00    +0.000 NA
ATOM     34  C   UNL     1      67.012  60.509  60.708  0.00  0.00    +0.000 C 
ATOM     35  C   UNL     1      68.142  58.760  61.770  0.00  0.00    +0.000 C 
ENDBRANCH  32  33
ENDBRANCH  29  32
ENDBRANCH  24  26
ENDBRANCH   3  24
TORSDOF 7
ENDMDL
MODEL 6
REMARK VINA RESULT:      -6.2      3.778      9.390
REMARK  Name = OTSSP167.pdbqt.pdb
REMARK  7 active torsions:
REMARK  status: ('A' for Active; 'I' for Inactive)
REMARK    1  A    between atoms: C_5  and  N_19
REMARK    2  A    between atoms: C_7  and  C_31
REMARK    3  A    between atoms: C_11  and  C_13
REMARK    4  A    between atoms: C_18  and  O_34
REMARK    5  A    between atoms: N_19  and  C_21
REMARK    6  A    between atoms: C_24  and  C_27
REMARK    7  A    between atoms: C_27  and  N_28
REMARK                            x       y       z     vdW  Elec       q    Type
REMARK                         _______ _______ _______ _____ _____    ______ ____
ROOT
ATOM      1  N   UNL     1      58.261  52.234  58.308  0.00  0.00    +0.000 NA
ATOM      2  N   UNL     1      58.710  55.836  58.723  0.00  0.00    +0.000 NA
ATOM      3  C   UNL     1      60.017  53.457  59.469  0.00  0.00    +0.000 A 
ATOM      4  C   UNL     1      58.828  53.404  58.695  0.00  0.00    +0.000 A 
ATOM      5  C   UNL     1      60.511  54.722  59.849  0.00  0.00    +0.000 A 
ATOM      6  C   UNL     1      58.227  54.636  58.362  0.00  0.00    +0.000 A 
ATOM      7  C   UNL     1      59.836  55.857  59.458  0.00  0.00    +0.000 A 
ATOM      8  C   UNL     1      57.062  54.595  57.617  0.00  0.00    +0.000 A 
ATOM      9  C   UNL     1      57.124  52.223  57.571  0.00  0.00    +0.000 A 
ATOM     10  C   UNL     1      56.494  53.398  57.209  0.00  0.00    +0.000 A 
ENDROOT
BRANCH   9  13
ATOM     11 CL   UNL     1      53.364  48.693  57.885  0.00  0.00    +0.000 Cl
ATOM     12 CL   UNL     1      57.887  47.819  54.974  0.00  0.00    +0.000 Cl
ATOM     13  C   UNL     1      56.624  50.904  57.175  0.00  0.00    +0.000 A 
ATOM     14  C   UNL     1      57.368  50.049  56.354  0.00  0.00    +0.000 A 
ATOM     15  C   UNL     1      55.378  50.445  57.622  0.00  0.00    +0.000 A 
ATOM     16  C   UNL     1      54.895  49.187  57.271  0.00  0.00    +0.000 A 
ATOM     17  C   UNL     1      56.891  48.789  55.990  0.00  0.00    +0.000 A 
ATOM     18  C   UNL     1      55.650  48.351  56.450  0.00  0.00    +0.000 A 
BRANCH  18  19
ATOM     19  O   UNL     1      55.188  47.111  56.094  0.00  0.00    +0.000 OA
ATOM     20  H   UNL     1      55.791  46.740  55.422  0.00  0.00    +0.000 HD
ENDBRANCH  18  19
ENDBRANCH   9  13
BRANCH   5  21
ATOM     21  C   UNL     1      61.698  54.898  60.683  0.00  0.00    +0.000 C 
ATOM     22  O   UNL     1      62.839  54.641  60.338  0.00  0.00    +0.000 OA
ATOM     23  C   UNL     1      61.659  55.377  62.102  0.00  0.00    +0.000 C 
ENDBRANCH   5  21
BRANCH   3  24
ATOM     24  N   UNL     1      60.790  52.295  59.792  0.00  0.00    +0.000 N 
ATOM     25  H   UNL     1      60.454  51.775  60.608  0.00  0.00    +0.000 HD
BRANCH  24  26
ATOM     26  C   UNL     1      61.572  51.549  58.955  0.00  0.00    +0.000 A 
ATOM     27  C   UNL     1      62.119  50.320  59.472  0.00  0.00    +0.000 A 
ATOM     28  C   UNL     1      63.553  49.783  59.226  0.00  0.00    +0.000 A 
ATOM     29  C   UNL     1      64.562  50.452  58.442  0.00  0.00    +0.000 A 
ATOM     30  C   UNL     1      64.026  51.695  57.945  0.00  0.00    +0.000 A 
ATOM     31  C   UNL     1      62.593  52.227  58.194  0.00  0.00    +0.000 A 
BRANCH  29  32
ATOM     32  C   UNL     1      65.821  49.914  58.097  0.00  0.00    +0.000 C 
BRANCH  32  33
ATOM     33  N   UNL     1      67.108  49.342  57.740  0.00  0.00    +0.000 NA
ATOM     34  C   UNL     1      67.746  50.257  56.808  0.00  0.00    +0.000 C 
ATOM     35  C   UNL     1      66.849  48.109  57.017  0.00  0.00    +0.000 C 
ENDBRANCH  32  33
ENDBRANCH  29  32
ENDBRANCH  24  26
ENDBRANCH   3  24
TORSDOF 7
ENDMDL
MODEL 7
REMARK VINA RESULT:      -6.2     17.325     19.576
REMARK  Name = OTSSP167.pdbqt.pdb
REMARK  7 active torsions:
REMARK  status: ('A' for Active; 'I' for Inactive)
REMARK    1  A    between atoms: C_5  and  N_19
REMARK    2  A    between atoms: C_7  and  C_31
REMARK    3  A    between atoms: C_11  and  C_13
REMARK    4  A    between atoms: C_18  and  O_34
REMARK    5  A    between atoms: N_19  and  C_21
REMARK    6  A    between atoms: C_24  and  C_27
REMARK    7  A    between atoms: C_27  and  N_28
REMARK                            x       y       z     vdW  Elec       q    Type
REMARK                         _______ _______ _______ _____ _____    ______ ____
ROOT
ATOM      1  N   UNL     1      56.931  37.298  66.495  0.00  0.00    +0.000 NA
ATOM      2  N   UNL     1      56.746  34.979  63.677  0.00  0.00    +0.000 NA
ATOM      3  C   UNL     1      55.006  36.614  65.170  0.00  0.00    +0.000 A 
ATOM      4  C   UNL     1      56.393  36.582  65.477  0.00  0.00    +0.000 A 
ATOM      5  C   UNL     1      54.538  35.808  64.112  0.00  0.00    +0.000 A 
ATOM      6  C   UNL     1      57.202  35.737  64.688  0.00  0.00    +0.000 A 
ATOM      7  C   UNL     1      55.428  35.026  63.410  0.00  0.00    +0.000 A 
ATOM      8  C   UNL     1      58.552  35.689  64.985  0.00  0.00    +0.000 A 
ATOM      9  C   UNL     1      58.260  37.240  66.759  0.00  0.00    +0.000 A 
ATOM     10  C   UNL     1      59.103  36.436  66.017  0.00  0.00    +0.000 A 
ENDROOT
BRANCH   9  13
ATOM     11 CL   UNL     1      62.013  40.243  68.654  0.00  0.00    +0.000 Cl
ATOM     12 CL   UNL     1      57.442  39.250  71.450  0.00  0.00    +0.000 Cl
ATOM     13  C   UNL     1      58.737  38.086  67.855  0.00  0.00    +0.000 A 
ATOM     14  C   UNL     1      57.984  38.280  69.019  0.00  0.00    +0.000 A 
ATOM     15  C   UNL     1      59.983  38.723  67.780  0.00  0.00    +0.000 A 
ATOM     16  C   UNL     1      60.461  39.516  68.820  0.00  0.00    +0.000 A 
ATOM     17  C   UNL     1      58.450  39.077  70.065  0.00  0.00    +0.000 A 
ATOM     18  C   UNL     1      59.695  39.700  69.970  0.00  0.00    +0.000 A 
BRANCH  18  19
ATOM     19  O   UNL     1      60.149  40.478  71.002  0.00  0.00    +0.000 OA
ATOM     20  H   UNL     1      59.964  41.411  70.787  0.00  0.00    +0.000 HD
ENDBRANCH  18  19
ENDBRANCH   9  13
BRANCH   5  21
ATOM     21  C   UNL     1      53.128  35.725  63.737  0.00  0.00    +0.000 C 
ATOM     22  O   UNL     1      52.538  36.540  63.048  0.00  0.00    +0.000 OA
ATOM     23  C   UNL     1      52.203  34.638  64.196  0.00  0.00    +0.000 C 
ENDBRANCH   5  21
BRANCH   3  24
ATOM     24  N   UNL     1      54.085  37.500  65.816  0.00  0.00    +0.000 N 
ATOM     25  H   UNL     1      53.532  38.077  65.176  0.00  0.00    +0.000 HD
BRANCH  24  26
ATOM     26  C   UNL     1      53.521  37.367  67.054  0.00  0.00    +0.000 A 
ATOM     27  C   UNL     1      53.506  38.526  67.909  0.00  0.00    +0.000 A 
ATOM     28  C   UNL     1      53.787  38.542  69.434  0.00  0.00    +0.000 A 
ATOM     29  C   UNL     1      54.119  37.381  70.224  0.00  0.00    +0.000 A 
ATOM     30  C   UNL     1      54.160  36.223  69.367  0.00  0.00    +0.000 A 
ATOM     31  C   UNL     1      53.879  36.213  67.844  0.00  0.00    +0.000 A 
BRANCH  29  32
ATOM     32  C   UNL     1      54.242  37.357  71.631  0.00  0.00    +0.000 C 
BRANCH  32  33
ATOM     33  N   UNL     1      54.372  37.351  73.078  0.00  0.00    +0.000 NA
ATOM     34  C   UNL     1      54.471  38.735  73.511  0.00  0.00    +0.000 C 
ATOM     35  C   UNL     1      55.639  36.713  73.396  0.00  0.00    +0.000 C 
ENDBRANCH  32  33
ENDBRANCH  29  32
ENDBRANCH  24  26
ENDBRANCH   3  24
TORSDOF 7
ENDMDL
MODEL 8
REMARK VINA RESULT:      -6.1     18.145     20.450
REMARK  Name = OTSSP167.pdbqt.pdb
REMARK  7 active torsions:
REMARK  status: ('A' for Active; 'I' for Inactive)
REMARK    1  A    between atoms: C_5  and  N_19
REMARK    2  A    between atoms: C_7  and  C_31
REMARK    3  A    between atoms: C_11  and  C_13
REMARK    4  A    between atoms: C_18  and  O_34
REMARK    5  A    between atoms: N_19  and  C_21
REMARK    6  A    between atoms: C_24  and  C_27
REMARK    7  A    between atoms: C_27  and  N_28
REMARK                            x       y       z     vdW  Elec       q    Type
REMARK                         _______ _______ _______ _____ _____    ______ ____
ROOT
ATOM      1  N   UNL     1      56.514  64.322  68.202  0.00  0.00    +0.000 NA
ATOM      2  N   UNL     1      57.529  67.310  70.043  0.00  0.00    +0.000 NA
ATOM      3  C   UNL     1      58.743  65.207  68.619  0.00  0.00    +0.000 A 
ATOM      4  C   UNL     1      57.329  65.266  68.735  0.00  0.00    +0.000 A 
ATOM      5  C   UNL     1      59.507  66.220  69.236  0.00  0.00    +0.000 A 
ATOM      6  C   UNL     1      56.793  66.347  69.466  0.00  0.00    +0.000 A 
ATOM      7  C   UNL     1      58.866  67.229  69.921  0.00  0.00    +0.000 A 
ATOM      8  C   UNL     1      55.417  66.408  69.595  0.00  0.00    +0.000 A 
ATOM      9  C   UNL     1      55.168  64.412  68.335  0.00  0.00    +0.000 A 
ATOM     10  C   UNL     1      54.584  65.451  69.034  0.00  0.00    +0.000 A 
ENDROOT
BRANCH   9  13
ATOM     11 CL   UNL     1      50.812  61.636  68.223  0.00  0.00    +0.000 Cl
ATOM     12 CL   UNL     1      54.825  60.827  64.627  0.00  0.00    +0.000 Cl
ATOM     13  C   UNL     1      54.383  63.359  67.685  0.00  0.00    +0.000 A 
ATOM     14  C   UNL     1      54.875  62.648  66.584  0.00  0.00    +0.000 A 
ATOM     15  C   UNL     1      53.110  63.017  68.157  0.00  0.00    +0.000 A 
ATOM     16  C   UNL     1      52.358  62.007  67.563  0.00  0.00    +0.000 A 
ATOM     17  C   UNL     1      54.128  61.638  65.976  0.00  0.00    +0.000 A 
ATOM     18  C   UNL     1      52.863  61.311  66.465  0.00  0.00    +0.000 A 
BRANCH  18  19
ATOM     19  O   UNL     1      52.135  60.316  65.867  0.00  0.00    +0.000 OA
ATOM     20  H   UNL     1      52.385  60.277  64.925  0.00  0.00    +0.000 HD
ENDBRANCH  18  19
ENDBRANCH   9  13
BRANCH   5  21
ATOM     21  C   UNL     1      60.968  66.237  69.223  0.00  0.00    +0.000 C 
ATOM     22  O   UNL     1      61.682  65.387  69.727  0.00  0.00    +0.000 OA
ATOM     23  C   UNL     1      61.785  67.341  68.624  0.00  0.00    +0.000 C 
ENDBRANCH   5  21
BRANCH   3  24
ATOM     24  N   UNL     1      59.420  64.229  67.822  0.00  0.00    +0.000 N 
ATOM     25  H   UNL     1      59.493  63.304  68.256  0.00  0.00    +0.000 HD
BRANCH  24  26
ATOM     26  C   UNL     1      59.556  64.203  66.462  0.00  0.00    +0.000 A 
ATOM     27  C   UNL     1      59.562  65.466  65.768  0.00  0.00    +0.000 A 
ATOM     28  C   UNL     1      58.856  65.773  64.422  0.00  0.00    +0.000 A 
ATOM     29  C   UNL     1      58.073  64.825  63.666  0.00  0.00    +0.000 A 
ATOM     30  C   UNL     1      58.045  63.568  64.370  0.00  0.00    +0.000 A 
ATOM     31  C   UNL     1      58.750  63.268  65.716  0.00  0.00    +0.000 A 
BRANCH  29  32
ATOM     32  C   UNL     1      57.541  65.048  62.377  0.00  0.00    +0.000 C 
BRANCH  32  33
ATOM     33  N   UNL     1      57.000  65.259  61.045  0.00  0.00    +0.000 NA
ATOM     34  C   UNL     1      55.918  64.307  60.859  0.00  0.00    +0.000 C 
ATOM     35  C   UNL     1      58.042  64.912  60.094  0.00  0.00    +0.000 C 
ENDBRANCH  32  33
ENDBRANCH  29  32
ENDBRANCH  24  26
ENDBRANCH   3  24
TORSDOF 7
ENDMDL
MODEL 9
REMARK VINA RESULT:      -6.1     17.055     18.417
REMARK  Name = OTSSP167.pdbqt.pdb
REMARK  7 active torsions:
REMARK  status: ('A' for Active; 'I' for Inactive)
REMARK    1  A    between atoms: C_5  and  N_19
REMARK    2  A    between atoms: C_7  and  C_31
REMARK    3  A    between atoms: C_11  and  C_13
REMARK    4  A    between atoms: C_18  and  O_34
REMARK    5  A    between atoms: N_19  and  C_21
REMARK    6  A    between atoms: C_24  and  C_27
REMARK    7  A    between atoms: C_27  and  N_28
REMARK                            x       y       z     vdW  Elec       q    Type
REMARK                         _______ _______ _______ _____ _____    ______ ____
ROOT
ATOM      1  N   UNL     1      57.089  37.246  66.395  0.00  0.00    +0.000 NA
ATOM      2  N   UNL     1      60.590  36.501  67.128  0.00  0.00    +0.000 NA
ATOM      3  C   UNL     1      58.561  38.205  68.080  0.00  0.00    +0.000 A 
ATOM      4  C   UNL     1      58.295  37.308  67.012  0.00  0.00    +0.000 A 
ATOM      5  C   UNL     1      59.858  38.216  68.635  0.00  0.00    +0.000 A 
ATOM      6  C   UNL     1      59.361  36.487  66.586  0.00  0.00    +0.000 A 
ATOM      7  C   UNL     1      60.816  37.363  68.136  0.00  0.00    +0.000 A 
ATOM      8  C   UNL     1      59.116  35.617  65.540  0.00  0.00    +0.000 A 
ATOM      9  C   UNL     1      56.873  36.377  65.377  0.00  0.00    +0.000 A 
ATOM     10  C   UNL     1      57.876  35.544  64.921  0.00  0.00    +0.000 A 
ENDROOT
BRANCH   9  13
ATOM     11 CL   UNL     1      51.888  37.615  65.936  0.00  0.00    +0.000 Cl
ATOM     12 CL   UNL     1      53.725  35.030  61.504  0.00  0.00    +0.000 Cl
ATOM     13  C   UNL     1      55.521  36.367  64.813  0.00  0.00    +0.000 A 
ATOM     14  C   UNL     1      55.245  35.786  63.570  0.00  0.00    +0.000 A 
ATOM     15  C   UNL     1      54.447  36.933  65.512  0.00  0.00    +0.000 A 
ATOM     16  C   UNL     1      53.152  36.917  64.999  0.00  0.00    +0.000 A 
ATOM     17  C   UNL     1      53.953  35.770  63.043  0.00  0.00    +0.000 A 
ATOM     18  C   UNL     1      52.898  36.336  63.757  0.00  0.00    +0.000 A 
BRANCH  18  19
ATOM     19  O   UNL     1      51.631  36.313  63.237  0.00  0.00    +0.000 OA
ATOM     20  H   UNL     1      51.688  36.505  62.282  0.00  0.00    +0.000 HD
ENDBRANCH  18  19
ENDBRANCH   9  13
BRANCH   5  21
ATOM     21  C   UNL     1      60.260  39.128  69.704  0.00  0.00    +0.000 C 
ATOM     22  O   UNL     1      60.057  40.331  69.711  0.00  0.00    +0.000 OA
ATOM     23  C   UNL     1      61.026  38.704  70.920  0.00  0.00    +0.000 C 
ENDBRANCH   5  21
BRANCH   3  24
ATOM     24  N   UNL     1      57.551  39.021  68.683  0.00  0.00    +0.000 N 
ATOM     25  H   UNL     1      57.198  39.773  68.084  0.00  0.00    +0.000 HD
BRANCH  24  26
ATOM     26  C   UNL     1      56.695  38.685  69.695  0.00  0.00    +0.000 A 
ATOM     27  C   UNL     1      55.338  38.355  69.339  0.00  0.00    +0.000 A 
ATOM     28  C   UNL     1      54.061  38.783  70.108  0.00  0.00    +0.000 A 
ATOM     29  C   UNL     1      54.050  39.593  71.302  0.00  0.00    +0.000 A 
ATOM     30  C   UNL     1      55.404  39.946  71.646  0.00  0.00    +0.000 A 
ATOM     31  C   UNL     1      56.676  39.517  70.873  0.00  0.00    +0.000 A 
BRANCH  29  32
ATOM     32  C   UNL     1      52.911  39.875  72.088  0.00  0.00    +0.000 C 
BRANCH  32  33
ATOM     33  N   UNL     1      51.733  40.148  72.893  0.00  0.00    +0.000 NA
ATOM     34  C   UNL     1      50.593  39.555  72.211  0.00  0.00    +0.000 C 
ATOM     35  C   UNL     1      51.529  41.587  72.890  0.00  0.00    +0.000 C 
ENDBRANCH  32  33
ENDBRANCH  29  32
ENDBRANCH  24  26
ENDBRANCH   3  24
TORSDOF 7
ENDMDL
