MODEL 1
REMARK VINA RESULT:      -5.9      0.000      0.000
REMARK  Name = 
REMARK  0 active torsions:
REMARK  status: ('A' for Active; 'I' for Inactive)
REMARK                            x       y       z     vdW  Elec       q    Type
REMARK                         _______ _______ _______ _____ _____    ______ ____
ROOT
ATOM      1  O   UNL     1      58.591  67.853  68.714  0.00  0.00    +0.000 OA
ATOM      2  O   UNL     1      55.719  64.129  66.469  0.00  0.00    +0.000 OA
ATOM      3  N   UNL     1      58.951  67.400  69.953  0.00  0.00    +0.000 N 
ATOM      4  N   UNL     1      57.581  64.658  67.738  0.00  0.00    +0.000 N 
ATOM      5  C   UNL     1      58.727  65.885  70.126  0.00  0.00    +0.000 C 
ATOM      6  C   UNL     1      59.584  65.034  69.169  0.00  0.00    +0.000 C 
ATOM      7  C   UNL     1      57.249  65.483  70.056  0.00  0.00    +0.000 C 
ATOM      8  C   UNL     1      59.016  65.022  67.722  0.00  0.00    +0.000 C 
ATOM      9  C   UNL     1      61.065  65.436  69.304  0.00  0.00    +0.000 C 
ATOM     10  C   UNL     1      56.731  65.465  68.618  0.00  0.00    +0.000 C 
ATOM     11  C   UNL     1      60.420  67.707  70.157  0.00  0.00    +0.000 C 
ATOM     12  C   UNL     1      56.382  66.338  70.989  0.00  0.00    +0.000 C 
ATOM     13  C   UNL     1      58.135  68.141  70.991  0.00  0.00    +0.000 C 
ATOM     14  C   UNL     1      61.289  66.937  69.170  0.00  0.00    +0.000 C 
ATOM     15  C   UNL     1      56.649  67.832  70.856  0.00  0.00    +0.000 C 
ATOM     16  C   UNL     1      59.839  64.086  66.821  0.00  0.00    +0.000 C 
ATOM     17  C   UNL     1      59.176  63.946  65.464  0.00  0.00    +0.000 C 
ATOM     18  C   UNL     1      56.943  64.115  66.621  0.00  0.00    +0.000 C 
ATOM     19  C   UNL     1      57.803  63.341  65.648  0.00  0.00    +0.000 C 
ENDROOT
TORSDOF 0
ENDMDL
MODEL 2
REMARK VINA RESULT:      -5.7     31.405     32.409
REMARK  Name = 
REMARK  0 active torsions:
REMARK  status: ('A' for Active; 'I' for Inactive)
REMARK                            x       y       z     vdW  Elec       q    Type
REMARK                         _______ _______ _______ _____ _____    ______ ____
ROOT
ATOM      1  O   UNL     1      52.298  36.090  62.316  0.00  0.00    +0.000 OA
ATOM      2  O   UNL     1      50.464  37.481  57.641  0.00  0.00    +0.000 OA
ATOM      3  N   UNL     1      51.629  34.960  62.698  0.00  0.00    +0.000 N 
ATOM      4  N   UNL     1      51.159  35.767  59.033  0.00  0.00    +0.000 N 
ATOM      5  C   UNL     1      50.870  34.291  61.536  0.00  0.00    +0.000 C 
ATOM      6  C   UNL     1      51.801  33.795  60.412  0.00  0.00    +0.000 C 
ATOM      7  C   UNL     1      49.737  35.160  60.976  0.00  0.00    +0.000 C 
ATOM      8  C   UNL     1      52.303  34.955  59.506  0.00  0.00    +0.000 C 
ATOM      9  C   UNL     1      52.896  32.890  61.008  0.00  0.00    +0.000 C 
ATOM     10  C   UNL     1      50.267  36.278  60.079  0.00  0.00    +0.000 C 
ATOM     11  C   UNL     1      52.641  33.980  63.254  0.00  0.00    +0.000 C 
ATOM     12  C   UNL     1      48.815  35.678  62.088  0.00  0.00    +0.000 C 
ATOM     13  C   UNL     1      50.641  35.332  63.783  0.00  0.00    +0.000 C 
ATOM     14  C   UNL     1      53.625  33.531  62.181  0.00  0.00    +0.000 C 
ATOM     15  C   UNL     1      49.573  36.286  63.262  0.00  0.00    +0.000 C 
ATOM     16  C   UNL     1      53.146  34.412  58.342  0.00  0.00    +0.000 C 
ATOM     17  C   UNL     1      53.483  35.529  57.372  0.00  0.00    +0.000 C 
ATOM     18  C   UNL     1      51.231  36.543  57.875  0.00  0.00    +0.000 C 
ATOM     19  C   UNL     1      52.199  36.092  56.805  0.00  0.00    +0.000 C 
ENDROOT
TORSDOF 0
ENDMDL
MODEL 3
REMARK VINA RESULT:      -5.6     14.148     16.850
REMARK  Name = 
REMARK  0 active torsions:
REMARK  status: ('A' for Active; 'I' for Inactive)
REMARK                            x       y       z     vdW  Elec       q    Type
REMARK                         _______ _______ _______ _____ _____    ______ ____
ROOT
ATOM      1  O   UNL     1      60.582  79.750  80.159  0.00  0.00    +0.000 OA
ATOM      2  O   UNL     1      58.007  75.229  79.884  0.00  0.00    +0.000 OA
ATOM      3  N   UNL     1      61.642  79.567  81.003  0.00  0.00    +0.000 N 
ATOM      4  N   UNL     1      60.054  76.309  79.923  0.00  0.00    +0.000 N 
ATOM      5  C   UNL     1      61.933  78.080  81.285  0.00  0.00    +0.000 C 
ATOM      6  C   UNL     1      62.339  77.294  80.023  0.00  0.00    +0.000 C 
ATOM      7  C   UNL     1      60.798  77.375  82.038  0.00  0.00    +0.000 C 
ATOM      8  C   UNL     1      61.118  76.954  79.122  0.00  0.00    +0.000 C 
ATOM      9  C   UNL     1      63.510  78.008  79.322  0.00  0.00    +0.000 C 
ATOM     10  C   UNL     1      59.624  77.043  81.117  0.00  0.00    +0.000 C 
ATOM     11  C   UNL     1      62.863  80.196  80.368  0.00  0.00    +0.000 C 
ATOM     12  C   UNL     1      60.370  78.160  83.285  0.00  0.00    +0.000 C 
ATOM     13  C   UNL     1      61.339  80.267  82.312  0.00  0.00    +0.000 C 
ATOM     14  C   UNL     1      63.243  79.487  79.074  0.00  0.00    +0.000 C 
ATOM     15  C   UNL     1      60.140  79.642  83.014  0.00  0.00    +0.000 C 
ATOM     16  C   UNL     1      61.547  76.088  77.927  0.00  0.00    +0.000 C 
ATOM     17  C   UNL     1      60.329  75.618  77.154  0.00  0.00    +0.000 C 
ATOM     18  C   UNL     1      59.084  75.489  79.342  0.00  0.00    +0.000 C 
ATOM     19  C   UNL     1      59.464  74.777  78.064  0.00  0.00    +0.000 C 
ENDROOT
TORSDOF 0
ENDMDL
MODEL 4
REMARK VINA RESULT:      -5.3     11.451     13.416
REMARK  Name = 
REMARK  0 active torsions:
REMARK  status: ('A' for Active; 'I' for Inactive)
REMARK                            x       y       z     vdW  Elec       q    Type
REMARK                         _______ _______ _______ _____ _____    ______ ____
ROOT
ATOM      1  O   UNL     1      71.784  60.630  64.944  0.00  0.00    +0.000 OA
ATOM      2  O   UNL     1      67.481  63.437  65.812  0.00  0.00    +0.000 OA
ATOM      3  N   UNL     1      71.806  59.619  65.865  0.00  0.00    +0.000 N 
ATOM      4  N   UNL     1      68.443  61.338  65.662  0.00  0.00    +0.000 N 
ATOM      5  C   UNL     1      70.451  59.424  66.573  0.00  0.00    +0.000 C 
ATOM      6  C   UNL     1      69.321  59.008  65.610  0.00  0.00    +0.000 C 
ATOM      7  C   UNL     1      70.037  60.628  67.428  0.00  0.00    +0.000 C 
ATOM      8  C   UNL     1      68.789  60.205  64.773  0.00  0.00    +0.000 C 
ATOM      9  C   UNL     1      69.757  57.770  64.804  0.00  0.00    +0.000 C 
ATOM     10  C   UNL     1      69.504  61.777  66.573  0.00  0.00    +0.000 C 
ATOM     11  C   UNL     1      72.177  58.338  65.149  0.00  0.00    +0.000 C 
ATOM     12  C   UNL     1      71.162  61.065  68.376  0.00  0.00    +0.000 C 
ATOM     13  C   UNL     1      72.862  59.939  66.903  0.00  0.00    +0.000 C 
ATOM     14  C   UNL     1      71.113  57.943  64.132  0.00  0.00    +0.000 C 
ATOM     15  C   UNL     1      72.513  61.200  67.683  0.00  0.00    +0.000 C 
ATOM     16  C   UNL     1      67.601  59.774  63.898  0.00  0.00    +0.000 C 
ATOM     17  C   UNL     1      66.981  60.982  63.222  0.00  0.00    +0.000 C 
ATOM     18  C   UNL     1      67.532  62.326  65.282  0.00  0.00    +0.000 C 
ATOM     19  C   UNL     1      66.470  61.931  64.281  0.00  0.00    +0.000 C 
ENDROOT
TORSDOF 0
ENDMDL
MODEL 5
REMARK VINA RESULT:      -5.3      1.851      3.655
REMARK  Name = 
REMARK  0 active torsions:
REMARK  status: ('A' for Active; 'I' for Inactive)
REMARK                            x       y       z     vdW  Elec       q    Type
REMARK                         _______ _______ _______ _____ _____    ______ ____
ROOT
ATOM      1  O   UNL     1      59.491  67.244  66.973  0.00  0.00    +0.000 OA
ATOM      2  O   UNL     1      55.936  65.588  70.404  0.00  0.00    +0.000 OA
ATOM      3  N   UNL     1      60.546  66.376  67.026  0.00  0.00    +0.000 N 
ATOM      4  N   UNL     1      57.462  65.033  68.754  0.00  0.00    +0.000 N 
ATOM      5  C   UNL     1      60.207  65.064  67.759  0.00  0.00    +0.000 C 
ATOM      6  C   UNL     1      59.105  64.247  67.056  0.00  0.00    +0.000 C 
ATOM      7  C   UNL     1      59.885  65.269  69.245  0.00  0.00    +0.000 C 
ATOM      8  C   UNL     1      57.686  64.833  67.305  0.00  0.00    +0.000 C 
ATOM      9  C   UNL     1      59.488  64.024  65.581  0.00  0.00    +0.000 C 
ATOM     10  C   UNL     1      58.478  65.829  69.450  0.00  0.00    +0.000 C 
ATOM     11  C   UNL     1      60.963  66.054  65.607  0.00  0.00    +0.000 C 
ATOM     12  C   UNL     1      60.964  66.099  69.951  0.00  0.00    +0.000 C 
ATOM     13  C   UNL     1      61.693  67.059  67.743  0.00  0.00    +0.000 C 
ATOM     14  C   UNL     1      59.860  65.313  64.860  0.00  0.00    +0.000 C 
ATOM     15  C   UNL     1      61.339  67.367  69.193  0.00  0.00    +0.000 C 
ATOM     16  C   UNL     1      56.609  63.938  66.672  0.00  0.00    +0.000 C 
ATOM     17  C   UNL     1      55.226  64.421  67.068  0.00  0.00    +0.000 C 
ATOM     18  C   UNL     1      56.180  65.084  69.305  0.00  0.00    +0.000 C 
ATOM     19  C   UNL     1      55.088  64.339  68.571  0.00  0.00    +0.000 C 
ENDROOT
TORSDOF 0
ENDMDL
MODEL 6
REMARK VINA RESULT:      -5.3     25.948     28.257
REMARK  Name = 
REMARK  0 active torsions:
REMARK  status: ('A' for Active; 'I' for Inactive)
REMARK                            x       y       z     vdW  Elec       q    Type
REMARK                         _______ _______ _______ _____ _____    ______ ____
ROOT
ATOM      1  O   UNL     1      73.125  41.432  61.695  0.00  0.00    +0.000 OA
ATOM      2  O   UNL     1      71.117  40.860  66.469  0.00  0.00    +0.000 OA
ATOM      3  N   UNL     1      72.105  41.267  60.800  0.00  0.00    +0.000 N 
ATOM      4  N   UNL     1      70.874  41.744  64.343  0.00  0.00    +0.000 N 
ATOM      5  C   UNL     1      70.713  41.336  61.457  0.00  0.00    +0.000 C 
ATOM      6  C   UNL     1      70.414  42.708  62.094  0.00  0.00    +0.000 C 
ATOM      7  C   UNL     1      70.456  40.195  62.449  0.00  0.00    +0.000 C 
ATOM      8  C   UNL     1      71.142  42.898  63.455  0.00  0.00    +0.000 C 
ATOM      9  C   UNL     1      70.638  43.822  61.054  0.00  0.00    +0.000 C 
ATOM     10  C   UNL     1      71.173  40.425  63.779  0.00  0.00    +0.000 C 
ATOM     11  C   UNL     1      72.212  42.360  59.757  0.00  0.00    +0.000 C 
ATOM     12  C   UNL     1      70.771  38.826  61.833  0.00  0.00    +0.000 C 
ATOM     13  C   UNL     1      72.267  39.917  60.131  0.00  0.00    +0.000 C 
ATOM     14  C   UNL     1      71.997  43.737  60.374  0.00  0.00    +0.000 C 
ATOM     15  C   UNL     1      72.124  38.779  61.133  0.00  0.00    +0.000 C 
ATOM     16  C   UNL     1      70.743  44.232  64.105  0.00  0.00    +0.000 C 
ATOM     17  C   UNL     1      71.319  44.327  65.505  0.00  0.00    +0.000 C 
ATOM     18  C   UNL     1      70.981  41.840  65.733  0.00  0.00    +0.000 C 
ATOM     19  C   UNL     1      70.757  43.204  66.345  0.00  0.00    +0.000 C 
ENDROOT
TORSDOF 0
ENDMDL
MODEL 7
REMARK VINA RESULT:      -5.3     32.020     33.907
REMARK  Name = 
REMARK  0 active torsions:
REMARK  status: ('A' for Active; 'I' for Inactive)
REMARK                            x       y       z     vdW  Elec       q    Type
REMARK                         _______ _______ _______ _____ _____    ______ ____
ROOT
ATOM      1  O   UNL     1      50.424  34.428  59.210  0.00  0.00    +0.000 OA
ATOM      2  O   UNL     1      53.445  30.187  59.407  0.00  0.00    +0.000 OA
ATOM      3  N   UNL     1      51.153  35.473  59.705  0.00  0.00    +0.000 N 
ATOM      4  N   UNL     1      53.282  32.445  58.927  0.00  0.00    +0.000 N 
ATOM      5  C   UNL     1      52.659  35.160  59.802  0.00  0.00    +0.000 C 
ATOM      6  C   UNL     1      53.309  34.886  58.432  0.00  0.00    +0.000 C 
ATOM      7  C   UNL     1      52.980  34.043  60.803  0.00  0.00    +0.000 C 
ATOM      8  C   UNL     1      52.978  33.463  57.896  0.00  0.00    +0.000 C 
ATOM      9  C   UNL     1      53.003  36.050  57.471  0.00  0.00    +0.000 C 
ATOM     10  C   UNL     1      52.658  32.661  60.236  0.00  0.00    +0.000 C 
ATOM     11  C   UNL     1      50.955  36.661  58.787  0.00  0.00    +0.000 C 
ATOM     12  C   UNL     1      52.320  34.295  62.166  0.00  0.00    +0.000 C 
ATOM     13  C   UNL     1      50.630  35.812  61.086  0.00  0.00    +0.000 C 
ATOM     14  C   UNL     1      51.520  36.388  57.398  0.00  0.00    +0.000 C 
ATOM     15  C   UNL     1      50.845  34.661  62.061  0.00  0.00    +0.000 C 
ATOM     16  C   UNL     1      53.721  33.191  56.579  0.00  0.00    +0.000 C 
ATOM     17  C   UNL     1      53.531  31.746  56.158  0.00  0.00    +0.000 C 
ATOM     18  C   UNL     1      53.539  31.112  58.598  0.00  0.00    +0.000 C 
ATOM     19  C   UNL     1      54.109  30.843  57.224  0.00  0.00    +0.000 C 
ENDROOT
TORSDOF 0
ENDMDL
MODEL 8
REMARK VINA RESULT:      -5.2      1.527      5.307
REMARK  Name = 
REMARK  0 active torsions:
REMARK  status: ('A' for Active; 'I' for Inactive)
REMARK                            x       y       z     vdW  Elec       q    Type
REMARK                         _______ _______ _______ _____ _____    ______ ____
ROOT
ATOM      1  O   UNL     1      57.333  66.283  66.460  0.00  0.00    +0.000 OA
ATOM      2  O   UNL     1      61.923  67.579  68.558  0.00  0.00    +0.000 OA
ATOM      3  N   UNL     1      57.106  64.967  66.754  0.00  0.00    +0.000 N 
ATOM      4  N   UNL     1      59.913  66.458  68.803  0.00  0.00    +0.000 N 
ATOM      5  C   UNL     1      58.037  64.430  67.858  0.00  0.00    +0.000 C 
ATOM      6  C   UNL     1      57.839  65.140  69.213  0.00  0.00    +0.000 C 
ATOM      7  C   UNL     1      59.514  64.417  67.448  0.00  0.00    +0.000 C 
ATOM      8  C   UNL     1      58.502  66.547  69.243  0.00  0.00    +0.000 C 
ATOM      9  C   UNL     1      56.353  65.092  69.611  0.00  0.00    +0.000 C 
ATOM     10  C   UNL     1      60.134  65.812  67.506  0.00  0.00    +0.000 C 
ATOM     11  C   UNL     1      55.669  64.829  67.211  0.00  0.00    +0.000 C 
ATOM     12  C   UNL     1      59.720  63.731  66.091  0.00  0.00    +0.000 C 
ATOM     13  C   UNL     1      57.313  64.152  65.495  0.00  0.00    +0.000 C 
ATOM     14  C   UNL     1      55.424  65.587  68.510  0.00  0.00    +0.000 C 
ATOM     15  C   UNL     1      58.758  64.224  65.017  0.00  0.00    +0.000 C 
ATOM     16  C   UNL     1      58.370  67.181  70.637  0.00  0.00    +0.000 C 
ATOM     17  C   UNL     1      59.167  68.470  70.705  0.00  0.00    +0.000 C 
ATOM     18  C   UNL     1      60.863  67.415  69.167  0.00  0.00    +0.000 C 
ATOM     19  C   UNL     1      60.626  68.159  70.461  0.00  0.00    +0.000 C 
ENDROOT
TORSDOF 0
ENDMDL
MODEL 9
REMARK VINA RESULT:      -5.2     25.755     27.804
REMARK  Name = 
REMARK  0 active torsions:
REMARK  status: ('A' for Active; 'I' for Inactive)
REMARK                            x       y       z     vdW  Elec       q    Type
REMARK                         _______ _______ _______ _____ _____    ______ ____
ROOT
ATOM      1  O   UNL     1      46.079  40.695  70.455  0.00  0.00    +0.000 OA
ATOM      2  O   UNL     1      45.838  41.428  75.608  0.00  0.00    +0.000 OA
ATOM      3  N   UNL     1      44.868  41.056  69.933  0.00  0.00    +0.000 N 
ATOM      4  N   UNL     1      45.332  42.232  73.497  0.00  0.00    +0.000 N 
ATOM      5  C   UNL     1      44.007  41.866  70.922  0.00  0.00    +0.000 C 
ATOM      6  C   UNL     1      44.644  43.213  71.314  0.00  0.00    +0.000 C 
ATOM      7  C   UNL     1      43.596  41.063  72.162  0.00  0.00    +0.000 C 
ATOM      8  C   UNL     1      45.793  43.043  72.348  0.00  0.00    +0.000 C 
ATOM      9  C   UNL     1      45.000  44.008  70.044  0.00  0.00    +0.000 C 
ATOM     10  C   UNL     1      44.744  40.931  73.162  0.00  0.00    +0.000 C 
ATOM     11  C   UNL     1      45.119  41.893  68.697  0.00  0.00    +0.000 C 
ATOM     12  C   UNL     1      42.979  39.710  71.784  0.00  0.00    +0.000 C 
ATOM     13  C   UNL     1      44.119  39.798  69.544  0.00  0.00    +0.000 C 
ATOM     14  C   UNL     1      45.820  43.201  69.046  0.00  0.00    +0.000 C 
ATOM     15  C   UNL     1      43.804  38.938  70.762  0.00  0.00    +0.000 C 
ATOM     16  C   UNL     1      46.337  44.411  72.789  0.00  0.00    +0.000 C 
ATOM     17  C   UNL     1      47.332  44.241  73.921  0.00  0.00    +0.000 C 
ATOM     18  C   UNL     1      45.944  42.307  74.750  0.00  0.00    +0.000 C 
ATOM     19  C   UNL     1      46.631  43.608  75.101  0.00  0.00    +0.000 C 
ENDROOT
TORSDOF 0
ENDMDL
