MODEL 1
REMARK VINA RESULT:      -5.9      0.000      0.000
REMARK  Name = 
REMARK  23 active torsions:
REMARK  status: ('A' for Active; 'I' for Inactive)
REMARK    1  A    between atoms: O_2  and  C_17
REMARK    2  A    between atoms: O_2  and  C_36
REMARK    3  A    between atoms: O_3  and  C_20
REMARK    4  A    between atoms: O_3  and  C_37
REMARK    5  A    between atoms: O_4  and  C_21
REMARK    6  A    between atoms: O_5  and  C_22
REMARK    7  A    between atoms: O_6  and  C_30
REMARK    8  A    between atoms: O_6  and  C_39
REMARK    9  A    between atoms: O_8  and  C_31
REMARK   10  A    between atoms: O_8  and  C_40
REMARK   11  A    between atoms: O_13  and  C_42
REMARK   12  A    between atoms: N_15  and  C_46
REMARK   13  A    between atoms: C_18  and  C_29
REMARK   14  A    between atoms: C_24  and  C_33
REMARK   15  A    between atoms: C_24  and  C_34
REMARK   16  A    between atoms: C_32  and  C_35
REMARK   17  A    between atoms: C_36  and  C_38
REMARK   18  A    between atoms: C_37  and  C_41
REMARK   19  A    between atoms: C_39  and  C_43
REMARK   20  A    between atoms: C_40  and  C_42
REMARK   21  A    between atoms: C_42  and  C_46
REMARK   22  A    between atoms: C_46  and  C_50
REMARK   23  A    between atoms: C_53  and  C_56
REMARK                            x       y       z     vdW  Elec       q    Type
REMARK                         _______ _______ _______ _____ _____    ______ ____
ROOT
ATOM      1  O   UNL     1      52.094  34.606  66.785  0.00  0.00    +0.000 OA
ATOM      2  O   UNL     1      52.247  34.909  73.444  0.00  0.00    +0.000 OA
ATOM      3  C   UNL     1      52.747  36.644  69.479  0.00  0.00    +0.000 C 
ATOM      4  C   UNL     1      53.115  35.864  68.183  0.00  0.00    +0.000 C 
ATOM      5  C   UNL     1      52.971  35.444  70.931  0.00  0.00    +0.000 C 
ATOM      6  C   UNL     1      51.898  34.852  68.205  0.00  0.00    +0.000 C 
ATOM      7  C   UNL     1      53.479  38.359  69.493  0.00  0.00    +0.000 C 
ATOM      8  C   UNL     1      53.621  39.902  70.583  0.00  0.00    +0.000 C 
ATOM      9  C   UNL     1      51.961  34.262  70.616  0.00  0.00    +0.000 C 
ATOM     10  C   UNL     1      52.020  33.693  69.167  0.00  0.00    +0.000 C 
ATOM     11  C   UNL     1      53.205  40.087  72.297  0.00  0.00    +0.000 C 
ATOM     12  C   UNL     1      52.561  36.008  66.711  0.00  0.00    +0.000 C 
ATOM     13  C   UNL     1      52.771  35.818  72.764  0.00  0.00    +0.000 C 
ATOM     14  C   UNL     1      55.179  40.251  70.642  0.00  0.00    +0.000 C 
ATOM     15  C   UNL     1      53.933  38.986  73.210  0.00  0.00    +0.000 C 
ATOM     16  C   UNL     1      54.381  34.719  70.909  0.00  0.00    +0.000 C 
ATOM     17  C   UNL     1      53.237  37.412  73.729  0.00  0.00    +0.000 C 
ATOM     18  C   UNL     1      56.026  39.729  71.889  0.00  0.00    +0.000 C 
ATOM     19  C   UNL     1      55.302  39.088  73.130  0.00  0.00    +0.000 C 
ATOM     20  C   UNL     1      53.769  41.527  72.747  0.00  0.00    +0.000 C 
ATOM     21  C   UNL     1      51.724  40.392  72.694  0.00  0.00    +0.000 C 
ATOM     22  C   UNL     1      56.225  38.360  74.075  0.00  0.00    +0.000 C 
ENDROOT
BRANCH   9  23
ATOM     23  O   UNL     1      50.626  34.722  70.828  0.00  0.00    +0.000 OA
ATOM     24  H   UNL     1      50.121  34.475  70.027  0.00  0.00    +0.000 HD
ENDBRANCH   9  23
BRANCH   8  25
ATOM     25  O   UNL     1      52.990  40.961  69.838  0.00  0.00    +0.000 OA
ATOM     26  H   UNL     1      52.391  40.567  69.180  0.00  0.00    +0.000 HD
ENDBRANCH   8  25
BRANCH  18  27
ATOM     27  O   UNL     1      56.972  38.732  71.404  0.00  0.00    +0.000 OA
BRANCH  27  29
ATOM     28  O   UNL     1      58.526  39.953  70.301  0.00  0.00    +0.000 OA
ATOM     29  C   UNL     1      58.246  39.150  71.185  0.00  0.00    +0.000 C 
BRANCH  29  30
ATOM     30  C   UNL     1      59.305  38.420  72.016  0.00  0.00    +0.000 C 
BRANCH  30  31
ATOM     31  O   UNL     1      59.768  39.124  73.173  0.00  0.00    +0.000 OA
ATOM     32  H   UNL     1      59.935  40.040  72.883  0.00  0.00    +0.000 HD
ENDBRANCH  30  31
BRANCH  30  33
ATOM     33  C   UNL     1      60.494  38.067  71.080  0.00  0.00    +0.000 C 
BRANCH  33  34
ATOM     34  C   UNL     1      61.141  36.756  71.504  0.00  0.00    +0.000 A 
ATOM     35  C   UNL     1      60.446  35.890  72.366  0.00  0.00    +0.000 A 
ATOM     36  C   UNL     1      62.431  36.393  71.086  0.00  0.00    +0.000 A 
ATOM     37  C   UNL     1      61.018  34.687  72.782  0.00  0.00    +0.000 A 
ATOM     38  C   UNL     1      63.001  35.189  71.502  0.00  0.00    +0.000 A 
ATOM     39  C   UNL     1      62.294  34.336  72.348  0.00  0.00    +0.000 A 
ENDBRANCH  33  34
BRANCH  33  41
ATOM     40  O   UNL     1      62.442  40.969  70.149  0.00  0.00    +0.000 OA
ATOM     41  N   UNL     1      61.477  39.159  71.066  0.00  0.00    +0.000 N 
ATOM     42  C   UNL     1      62.000  39.834  69.998  0.00  0.00    +0.000 C 
ATOM     43  H   UNL     1      61.573  39.654  71.948  0.00  0.00    +0.000 HD
BRANCH  42  44
ATOM     44  C   UNL     1      61.993  39.225  68.649  0.00  0.00    +0.000 A 
ATOM     45  C   UNL     1      62.909  38.229  68.294  0.00  0.00    +0.000 A 
ATOM     46  C   UNL     1      61.092  39.716  67.697  0.00  0.00    +0.000 A 
ATOM     47  C   UNL     1      62.880  37.685  67.009  0.00  0.00    +0.000 A 
ATOM     48  C   UNL     1      61.067  39.173  66.413  0.00  0.00    +0.000 A 
ATOM     49  C   UNL     1      61.955  38.151  66.074  0.00  0.00    +0.000 A 
ENDBRANCH  42  44
ENDBRANCH  33  41
ENDBRANCH  30  33
ENDBRANCH  29  30
ENDBRANCH  27  29
ENDBRANCH  18  27
BRANCH  17  50
ATOM     50  O   UNL     1      52.230  37.790  74.693  0.00  0.00    +0.000 OA
BRANCH  50  52
ATOM     51  O   UNL     1      51.269  37.034  76.568  0.00  0.00    +0.000 OA
ATOM     52  C   UNL     1      52.281  37.426  75.995  0.00  0.00    +0.000 C 
ATOM     53  C   UNL     1      53.580  37.603  76.722  0.00  0.00    +0.000 C 
ENDBRANCH  50  52
ENDBRANCH  17  50
BRANCH   7  54
ATOM     54  O   UNL     1      54.475  37.828  70.170  0.00  0.00    +0.000 OA
BRANCH  54  56
ATOM     55  O   UNL     1      54.587  38.570  68.306  0.00  0.00    +0.000 OA
ATOM     56  C   UNL     1      55.309  37.956  69.085  0.00  0.00    +0.000 C 
BRANCH  56  57
ATOM     57  C   UNL     1      56.983  37.047  68.902  0.00  0.00    +0.000 A 
ATOM     58  C   UNL     1      57.387  35.861  69.656  0.00  0.00    +0.000 A 
ATOM     59  C   UNL     1      58.007  37.297  67.939  0.00  0.00    +0.000 A 
ATOM     60  C   UNL     1      58.563  35.091  69.477  0.00  0.00    +0.000 A 
ATOM     61  C   UNL     1      59.195  36.537  67.746  0.00  0.00    +0.000 A 
ATOM     62  C   UNL     1      59.474  35.431  68.512  0.00  0.00    +0.000 A 
ENDBRANCH  56  57
ENDBRANCH  54  56
ENDBRANCH   7  54
BRANCH   4  63
ATOM     63  O   UNL     1      54.416  35.236  68.272  0.00  0.00    +0.000 OA
BRANCH  63  65
ATOM     64  O   UNL     1      55.042  33.289  67.368  0.00  0.00    +0.000 OA
ATOM     65  C   UNL     1      54.988  34.514  67.281  0.00  0.00    +0.000 C 
ATOM     66  C   UNL     1      55.654  35.224  66.146  0.00  0.00    +0.000 C 
ENDBRANCH  63  65
ENDBRANCH   4  63
TORSDOF 17
ENDMDL
MODEL 2
REMARK VINA RESULT:      -5.8      2.640      4.118
REMARK  Name = 
REMARK  23 active torsions:
REMARK  status: ('A' for Active; 'I' for Inactive)
REMARK    1  A    between atoms: O_2  and  C_17
REMARK    2  A    between atoms: O_2  and  C_36
REMARK    3  A    between atoms: O_3  and  C_20
REMARK    4  A    between atoms: O_3  and  C_37
REMARK    5  A    between atoms: O_4  and  C_21
REMARK    6  A    between atoms: O_5  and  C_22
REMARK    7  A    between atoms: O_6  and  C_30
REMARK    8  A    between atoms: O_6  and  C_39
REMARK    9  A    between atoms: O_8  and  C_31
REMARK   10  A    between atoms: O_8  and  C_40
REMARK   11  A    between atoms: O_13  and  C_42
REMARK   12  A    between atoms: N_15  and  C_46
REMARK   13  A    between atoms: C_18  and  C_29
REMARK   14  A    between atoms: C_24  and  C_33
REMARK   15  A    between atoms: C_24  and  C_34
REMARK   16  A    between atoms: C_32  and  C_35
REMARK   17  A    between atoms: C_36  and  C_38
REMARK   18  A    between atoms: C_37  and  C_41
REMARK   19  A    between atoms: C_39  and  C_43
REMARK   20  A    between atoms: C_40  and  C_42
REMARK   21  A    between atoms: C_42  and  C_46
REMARK   22  A    between atoms: C_46  and  C_50
REMARK   23  A    between atoms: C_53  and  C_56
REMARK                            x       y       z     vdW  Elec       q    Type
REMARK                         _______ _______ _______ _____ _____    ______ ____
ROOT
ATOM      1  O   UNL     1      57.408  33.500  65.018  0.00  0.00    +0.000 OA
ATOM      2  O   UNL     1      56.656  32.874  71.614  0.00  0.00    +0.000 OA
ATOM      3  C   UNL     1      56.759  35.206  67.935  0.00  0.00    +0.000 C 
ATOM      4  C   UNL     1      57.584  34.860  66.661  0.00  0.00    +0.000 C 
ATOM      5  C   UNL     1      57.337  34.027  69.306  0.00  0.00    +0.000 C 
ATOM      6  C   UNL     1      56.963  33.427  66.401  0.00  0.00    +0.000 C 
ATOM      7  C   UNL     1      56.629  37.046  68.205  0.00  0.00    +0.000 C 
ATOM      8  C   UNL     1      55.934  38.321  69.421  0.00  0.00    +0.000 C 
ATOM      9  C   UNL     1      57.014  32.583  68.736  0.00  0.00    +0.000 C 
ATOM     10  C   UNL     1      57.488  32.312  67.276  0.00  0.00    +0.000 C 
ATOM     11  C   UNL     1      55.288  38.057  71.052  0.00  0.00    +0.000 C 
ATOM     12  C   UNL     1      57.195  34.959  65.133  0.00  0.00    +0.000 C 
ATOM     13  C   UNL     1      56.784  34.008  71.104  0.00  0.00    +0.000 C 
ATOM     14  C   UNL     1      57.147  39.302  69.765  0.00  0.00    +0.000 C 
ATOM     15  C   UNL     1      56.328  37.264  71.984  0.00  0.00    +0.000 C 
ATOM     16  C   UNL     1      58.915  34.001  69.460  0.00  0.00    +0.000 C 
ATOM     17  C   UNL     1      56.366  35.488  72.255  0.00  0.00    +0.000 C 
ATOM     18  C   UNL     1      57.992  39.028  71.090  0.00  0.00    +0.000 C 
ATOM     19  C   UNL     1      57.502  37.963  72.139  0.00  0.00    +0.000 C 
ATOM     20  C   UNL     1      55.085  39.517  71.701  0.00  0.00    +0.000 C 
ATOM     21  C   UNL     1      53.796  37.624  71.221  0.00  0.00    +0.000 C 
ATOM     22  C   UNL     1      58.542  37.583  73.164  0.00  0.00    +0.000 C 
ENDROOT
BRANCH   9  23
ATOM     23  O   UNL     1      55.602  32.379  68.759  0.00  0.00    +0.000 OA
ATOM     24  H   UNL     1      55.370  31.962  67.904  0.00  0.00    +0.000 HD
ENDBRANCH   9  23
BRANCH   8  25
ATOM     25  O   UNL     1      54.980  39.094  68.668  0.00  0.00    +0.000 OA
ATOM     26  H   UNL     1      54.541  38.510  68.025  0.00  0.00    +0.000 HD
ENDBRANCH   8  25
BRANCH  18  27
ATOM     27  O   UNL     1      59.335  38.625  70.691  0.00  0.00    +0.000 OA
BRANCH  27  29
ATOM     28  O   UNL     1      60.743  40.336  70.233  0.00  0.00    +0.000 OA
ATOM     29  C   UNL     1      60.349  39.471  71.008  0.00  0.00    +0.000 C 
BRANCH  29  30
ATOM     30  C   UNL     1      61.055  39.149  72.329  0.00  0.00    +0.000 C 
BRANCH  30  31
ATOM     31  O   UNL     1      60.910  40.135  73.357  0.00  0.00    +0.000 OA
ATOM     32  H   UNL     1      59.986  40.072  73.664  0.00  0.00    +0.000 HD
ENDBRANCH  30  31
BRANCH  30  33
ATOM     33  C   UNL     1      62.557  38.896  72.024  0.00  0.00    +0.000 C 
BRANCH  33  34
ATOM     34  C   UNL     1      62.881  37.411  72.114  0.00  0.00    +0.000 A 
ATOM     35  C   UNL     1      64.191  36.972  71.854  0.00  0.00    +0.000 A 
ATOM     36  C   UNL     1      61.901  36.452  72.417  0.00  0.00    +0.000 A 
ATOM     37  C   UNL     1      64.515  35.616  71.916  0.00  0.00    +0.000 A 
ATOM     38  C   UNL     1      62.227  35.097  72.480  0.00  0.00    +0.000 A 
ATOM     39  C   UNL     1      63.533  34.679  72.231  0.00  0.00    +0.000 A 
ENDBRANCH  33  34
BRANCH  33  41
ATOM     40  O   UNL     1      64.756  41.401  73.426  0.00  0.00    +0.000 OA
ATOM     41  N   UNL     1      63.404  39.674  72.937  0.00  0.00    +0.000 N 
ATOM     42  C   UNL     1      64.449  40.507  72.644  0.00  0.00    +0.000 C 
ATOM     43  H   UNL     1      63.003  39.832  73.857  0.00  0.00    +0.000 HD
BRANCH  42  44
ATOM     44  C   UNL     1      65.183  40.369  71.366  0.00  0.00    +0.000 A 
ATOM     45  C   UNL     1      64.629  40.798  70.156  0.00  0.00    +0.000 A 
ATOM     46  C   UNL     1      66.428  39.728  71.376  0.00  0.00    +0.000 A 
ATOM     47  C   UNL     1      65.346  40.641  68.969  0.00  0.00    +0.000 A 
ATOM     48  C   UNL     1      67.141  39.570  70.188  0.00  0.00    +0.000 A 
ATOM     49  C   UNL     1      66.603  40.036  68.987  0.00  0.00    +0.000 A 
ENDBRANCH  42  44
ENDBRANCH  33  41
ENDBRANCH  30  33
ENDBRANCH  29  30
ENDBRANCH  27  29
ENDBRANCH  18  27
BRANCH  17  50
ATOM     50  O   UNL     1      55.196  35.245  73.066  0.00  0.00    +0.000 OA
BRANCH  50  52
ATOM     51  O   UNL     1      55.783  35.564  75.202  0.00  0.00    +0.000 OA
ATOM     52  C   UNL     1      55.262  34.844  74.356  0.00  0.00    +0.000 C 
ATOM     53  C   UNL     1      54.763  33.470  74.689  0.00  0.00    +0.000 C 
ENDBRANCH  50  52
ENDBRANCH  17  50
BRANCH   7  54
ATOM     54  O   UNL     1      57.674  36.911  68.994  0.00  0.00    +0.000 OA
BRANCH  54  56
ATOM     55  O   UNL     1      57.652  37.854  67.220  0.00  0.00    +0.000 OA
ATOM     56  C   UNL     1      58.475  37.553  68.079  0.00  0.00    +0.000 C 
BRANCH  56  57
ATOM     57  C   UNL     1      60.387  37.562  68.143  0.00  0.00    +0.000 A 
ATOM     58  C   UNL     1      61.216  36.534  68.769  0.00  0.00    +0.000 A 
ATOM     59  C   UNL     1      61.274  38.475  67.494  0.00  0.00    +0.000 A 
ATOM     60  C   UNL     1      62.630  36.440  68.744  0.00  0.00    +0.000 A 
ATOM     61  C   UNL     1      62.695  38.398  67.460  0.00  0.00    +0.000 A 
ATOM     62  C   UNL     1      63.376  37.380  68.082  0.00  0.00    +0.000 A 
ENDBRANCH  56  57
ENDBRANCH  54  56
ENDBRANCH   7  54
BRANCH   4  63
ATOM     63  O   UNL     1      59.009  34.857  66.914  0.00  0.00    +0.000 OA
BRANCH  63  65
ATOM     64  O   UNL     1      60.055  35.961  65.276  0.00  0.00    +0.000 OA
ATOM     65  C   UNL     1      59.958  34.941  65.954  0.00  0.00    +0.000 C 
ATOM     66  C   UNL     1      60.803  33.745  65.651  0.00  0.00    +0.000 C 
ENDBRANCH  63  65
ENDBRANCH   4  63
TORSDOF 17
ENDMDL
MODEL 3
REMARK VINA RESULT:      -5.7     34.936     38.930
REMARK  Name = 
REMARK  23 active torsions:
REMARK  status: ('A' for Active; 'I' for Inactive)
REMARK    1  A    between atoms: O_2  and  C_17
REMARK    2  A    between atoms: O_2  and  C_36
REMARK    3  A    between atoms: O_3  and  C_20
REMARK    4  A    between atoms: O_3  and  C_37
REMARK    5  A    between atoms: O_4  and  C_21
REMARK    6  A    between atoms: O_5  and  C_22
REMARK    7  A    between atoms: O_6  and  C_30
REMARK    8  A    between atoms: O_6  and  C_39
REMARK    9  A    between atoms: O_8  and  C_31
REMARK   10  A    between atoms: O_8  and  C_40
REMARK   11  A    between atoms: O_13  and  C_42
REMARK   12  A    between atoms: N_15  and  C_46
REMARK   13  A    between atoms: C_18  and  C_29
REMARK   14  A    between atoms: C_24  and  C_33
REMARK   15  A    between atoms: C_24  and  C_34
REMARK   16  A    between atoms: C_32  and  C_35
REMARK   17  A    between atoms: C_36  and  C_38
REMARK   18  A    between atoms: C_37  and  C_41
REMARK   19  A    between atoms: C_39  and  C_43
REMARK   20  A    between atoms: C_40  and  C_42
REMARK   21  A    between atoms: C_42  and  C_46
REMARK   22  A    between atoms: C_46  and  C_50
REMARK   23  A    between atoms: C_53  and  C_56
REMARK                            x       y       z     vdW  Elec       q    Type
REMARK                         _______ _______ _______ _____ _____    ______ ____
ROOT
ATOM      1  O   UNL     1      53.890  67.771  82.901  0.00  0.00    +0.000 OA
ATOM      2  O   UNL     1      58.881  69.867  86.793  0.00  0.00    +0.000 OA
ATOM      3  C   UNL     1      55.264  70.517  84.455  0.00  0.00    +0.000 C 
ATOM      4  C   UNL     1      54.810  69.676  83.226  0.00  0.00    +0.000 C 
ATOM      5  C   UNL     1      57.036  69.983  84.868  0.00  0.00    +0.000 C 
ATOM      6  C   UNL     1      54.767  68.268  83.949  0.00  0.00    +0.000 C 
ATOM      7  C   UNL     1      54.785  72.311  84.286  0.00  0.00    +0.000 C 
ATOM      8  C   UNL     1      54.947  73.978  85.173  0.00  0.00    +0.000 C 
ATOM      9  C   UNL     1      56.909  68.436  85.194  0.00  0.00    +0.000 C 
ATOM     10  C   UNL     1      56.102  67.593  84.161  0.00  0.00    +0.000 C 
ATOM     11  C   UNL     1      55.979  74.402  86.552  0.00  0.00    +0.000 C 
ATOM     12  C   UNL     1      53.376  69.156  82.815  0.00  0.00    +0.000 C 
ATOM     13  C   UNL     1      58.165  70.697  86.193  0.00  0.00    +0.000 C 
ATOM     14  C   UNL     1      55.517  74.997  84.083  0.00  0.00    +0.000 C 
ATOM     15  C   UNL     1      57.519  74.038  86.279  0.00  0.00    +0.000 C 
ATOM     16  C   UNL     1      57.988  69.999  83.600  0.00  0.00    +0.000 C 
ATOM     17  C   UNL     1      58.350  72.521  86.767  0.00  0.00    +0.000 C 
ATOM     18  C   UNL     1      57.089  75.268  84.047  0.00  0.00    +0.000 C 
ATOM     19  C   UNL     1      58.016  74.724  85.195  0.00  0.00    +0.000 C 
ATOM     20  C   UNL     1      55.889  76.003  86.709  0.00  0.00    +0.000 C 
ATOM     21  C   UNL     1      55.480  74.095  88.001  0.00  0.00    +0.000 C 
ATOM     22  C   UNL     1      59.489  74.774  84.876  0.00  0.00    +0.000 C 
ENDROOT
BRANCH   9  23
ATOM     23  O   UNL     1      56.260  68.278  86.456  0.00  0.00    +0.000 OA
ATOM     24  H   UNL     1      55.611  69.007  86.525  0.00  0.00    +0.000 HD
ENDBRANCH   9  23
BRANCH   8  25
ATOM     25  O   UNL     1      53.599  74.395  85.460  0.00  0.00    +0.000 OA
ATOM     26  H   UNL     1      53.178  74.688  84.633  0.00  0.00    +0.000 HD
ENDBRANCH   8  25
BRANCH  18  27
ATOM     27  O   UNL     1      57.611  74.721  82.802  0.00  0.00    +0.000 OA
BRANCH  27  29
ATOM     28  O   UNL     1      59.086  75.207  81.155  0.00  0.00    +0.000 OA
ATOM     29  C   UNL     1      58.252  75.584  81.972  0.00  0.00    +0.000 C 
BRANCH  29  30
ATOM     30  C   UNL     1      57.966  77.063  82.251  0.00  0.00    +0.000 C 
BRANCH  30  31
ATOM     31  O   UNL     1      57.069  77.697  81.332  0.00  0.00    +0.000 OA
ATOM     32  H   UNL     1      56.263  77.147  81.318  0.00  0.00    +0.000 HD
ENDBRANCH  30  31
BRANCH  30  33
ATOM     33  C   UNL     1      59.324  77.817  82.295  0.00  0.00    +0.000 C 
BRANCH  33  34
ATOM     34  C   UNL     1      59.652  78.248  83.718  0.00  0.00    +0.000 A 
ATOM     35  C   UNL     1      58.620  78.333  84.669  0.00  0.00    +0.000 A 
ATOM     36  C   UNL     1      60.954  78.598  84.108  0.00  0.00    +0.000 A 
ATOM     37  C   UNL     1      58.888  78.739  85.977  0.00  0.00    +0.000 A 
ATOM     38  C   UNL     1      61.220  79.001  85.417  0.00  0.00    +0.000 A 
ATOM     39  C   UNL     1      60.188  79.070  86.352  0.00  0.00    +0.000 A 
ENDBRANCH  33  34
BRANCH  33  41
ATOM     40  O   UNL     1      59.087  79.915  79.359  0.00  0.00    +0.000 OA
ATOM     41  N   UNL     1      59.299  78.971  81.387  0.00  0.00    +0.000 N 
ATOM     42  C   UNL     1      59.566  79.018  80.046  0.00  0.00    +0.000 C 
ATOM     43  H   UNL     1      58.762  79.764  81.724  0.00  0.00    +0.000 HD
BRANCH  42  44
ATOM     44  C   UNL     1      60.390  77.967  79.408  0.00  0.00    +0.000 A 
ATOM     45  C   UNL     1      61.767  77.881  79.636  0.00  0.00    +0.000 A 
ATOM     46  C   UNL     1      59.776  77.092  78.504  0.00  0.00    +0.000 A 
ATOM     47  C   UNL     1      62.514  76.882  79.009  0.00  0.00    +0.000 A 
ATOM     48  C   UNL     1      60.525  76.098  77.876  0.00  0.00    +0.000 A 
ATOM     49  C   UNL     1      61.892  75.988  78.137  0.00  0.00    +0.000 A 
ENDBRANCH  42  44
ENDBRANCH  33  41
ENDBRANCH  30  33
ENDBRANCH  29  30
ENDBRANCH  27  29
ENDBRANCH  18  27
BRANCH  17  50
ATOM     50  O   UNL     1      58.459  72.642  88.201  0.00  0.00    +0.000 OA
BRANCH  50  52
ATOM     51  O   UNL     1      60.515  73.501  88.412  0.00  0.00    +0.000 OA
ATOM     52  C   UNL     1      59.355  73.453  88.808  0.00  0.00    +0.000 C 
ATOM     53  C   UNL     1      58.905  74.211  90.021  0.00  0.00    +0.000 C 
ENDBRANCH  50  52
ENDBRANCH  17  50
BRANCH   7  54
ATOM     54  O   UNL     1      55.994  72.491  83.797  0.00  0.00    +0.000 OA
BRANCH  54  56
ATOM     55  O   UNL     1      54.274  72.632  82.769  0.00  0.00    +0.000 OA
ATOM     56  C   UNL     1      55.477  72.699  82.540  0.00  0.00    +0.000 C 
BRANCH  56  57
ATOM     57  C   UNL     1      56.522  72.717  80.937  0.00  0.00    +0.000 A 
ATOM     58  C   UNL     1      56.256  73.550  79.765  0.00  0.00    +0.000 A 
ATOM     59  C   UNL     1      57.757  72.043  80.697  0.00  0.00    +0.000 A 
ATOM     60  C   UNL     1      57.060  73.680  78.606  0.00  0.00    +0.000 A 
ATOM     61  C   UNL     1      58.578  72.160  79.540  0.00  0.00    +0.000 A 
ATOM     62  C   UNL     1      58.233  72.981  78.493  0.00  0.00    +0.000 A 
ENDBRANCH  56  57
ENDBRANCH  54  56
ENDBRANCH   7  54
BRANCH   4  63
ATOM     63  O   UNL     1      55.752  69.755  82.129  0.00  0.00    +0.000 OA
BRANCH  63  65
ATOM     64  O   UNL     1      56.098  68.248  80.514  0.00  0.00    +0.000 OA
ATOM     65  C   UNL     1      55.525  69.270  80.887  0.00  0.00    +0.000 C 
ATOM     66  C   UNL     1      54.670  70.049  79.940  0.00  0.00    +0.000 C 
ENDBRANCH  63  65
ENDBRANCH   4  63
TORSDOF 17
ENDMDL
MODEL 4
REMARK VINA RESULT:      -5.7      2.986      9.214
REMARK  Name = 
REMARK  23 active torsions:
REMARK  status: ('A' for Active; 'I' for Inactive)
REMARK    1  A    between atoms: O_2  and  C_17
REMARK    2  A    between atoms: O_2  and  C_36
REMARK    3  A    between atoms: O_3  and  C_20
REMARK    4  A    between atoms: O_3  and  C_37
REMARK    5  A    between atoms: O_4  and  C_21
REMARK    6  A    between atoms: O_5  and  C_22
REMARK    7  A    between atoms: O_6  and  C_30
REMARK    8  A    between atoms: O_6  and  C_39
REMARK    9  A    between atoms: O_8  and  C_31
REMARK   10  A    between atoms: O_8  and  C_40
REMARK   11  A    between atoms: O_13  and  C_42
REMARK   12  A    between atoms: N_15  and  C_46
REMARK   13  A    between atoms: C_18  and  C_29
REMARK   14  A    between atoms: C_24  and  C_33
REMARK   15  A    between atoms: C_24  and  C_34
REMARK   16  A    between atoms: C_32  and  C_35
REMARK   17  A    between atoms: C_36  and  C_38
REMARK   18  A    between atoms: C_37  and  C_41
REMARK   19  A    between atoms: C_39  and  C_43
REMARK   20  A    between atoms: C_40  and  C_42
REMARK   21  A    between atoms: C_42  and  C_46
REMARK   22  A    between atoms: C_46  and  C_50
REMARK   23  A    between atoms: C_53  and  C_56
REMARK                            x       y       z     vdW  Elec       q    Type
REMARK                         _______ _______ _______ _____ _____    ______ ____
ROOT
ATOM      1  O   UNL     1      62.116  40.544  68.090  0.00  0.00    +0.000 OA
ATOM      2  O   UNL     1      62.695  33.979  67.075  0.00  0.00    +0.000 OA
ATOM      3  C   UNL     1      60.410  37.686  67.219  0.00  0.00    +0.000 C 
ATOM      4  C   UNL     1      60.726  38.916  68.118  0.00  0.00    +0.000 C 
ATOM      5  C   UNL     1      61.536  36.273  67.797  0.00  0.00    +0.000 C 
ATOM      6  C   UNL     1      62.194  39.181  67.588  0.00  0.00    +0.000 C 
ATOM      7  C   UNL     1      58.575  37.452  66.977  0.00  0.00    +0.000 C 
ATOM      8  C   UNL     1      57.325  36.288  66.160  0.00  0.00    +0.000 C 
ATOM      9  C   UNL     1      63.004  36.833  67.578  0.00  0.00    +0.000 C 
ATOM     10  C   UNL     1      63.268  38.266  68.132  0.00  0.00    +0.000 C 
ATOM     11  C   UNL     1      57.602  34.683  65.456  0.00  0.00    +0.000 C 
ATOM     12  C   UNL     1      60.669  40.461  67.794  0.00  0.00    +0.000 C 
ATOM     13  C   UNL     1      61.562  34.501  67.164  0.00  0.00    +0.000 C 
ATOM     14  C   UNL     1      56.275  35.906  67.301  0.00  0.00    +0.000 C 
ATOM     15  C   UNL     1      58.324  33.693  66.494  0.00  0.00    +0.000 C 
ATOM     16  C   UNL     1      61.474  36.048  69.365  0.00  0.00    +0.000 C 
ATOM     17  C   UNL     1      60.092  33.393  66.615  0.00  0.00    +0.000 C 
ATOM     18  C   UNL     1      56.484  34.540  68.099  0.00  0.00    +0.000 C 
ATOM     19  C   UNL     1      57.560  33.497  67.620  0.00  0.00    +0.000 C 
ATOM     20  C   UNL     1      56.147  34.067  65.145  0.00  0.00    +0.000 C 
ATOM     21  C   UNL     1      58.113  34.574  63.983  0.00  0.00    +0.000 C 
ATOM     22  C   UNL     1      57.870  32.421  68.631  0.00  0.00    +0.000 C 
ENDROOT
BRANCH   9  23
ATOM     23  O   UNL     1      63.284  36.870  66.179  0.00  0.00    +0.000 OA
ATOM     24  H   UNL     1      62.601  36.320  65.747  0.00  0.00    +0.000 HD
ENDBRANCH   9  23
BRANCH   8  25
ATOM     25  O   UNL     1      56.615  37.095  65.201  0.00  0.00    +0.000 OA
ATOM     26  H   UNL     1      55.669  37.094  65.431  0.00  0.00    +0.000 HD
ENDBRANCH   8  25
BRANCH  18  27
ATOM     27  O   UNL     1      56.818  34.872  69.478  0.00  0.00    +0.000 OA
BRANCH  27  29
ATOM     28  O   UNL     1      55.699  33.269  70.617  0.00  0.00    +0.000 OA
ATOM     29  C   UNL     1      55.952  34.456  70.437  0.00  0.00    +0.000 C 
BRANCH  29  30
ATOM     30  C   UNL     1      55.207  35.586  71.154  0.00  0.00    +0.000 C 
BRANCH  30  31
ATOM     31  O   UNL     1      54.481  35.195  72.325  0.00  0.00    +0.000 OA
ATOM     32  H   UNL     1      53.982  34.393  72.079  0.00  0.00    +0.000 HD
ENDBRANCH  30  31
BRANCH  30  33
ATOM     33  C   UNL     1      54.259  36.266  70.128  0.00  0.00    +0.000 C 
BRANCH  33  34
ATOM     34  C   UNL     1      54.204  37.769  70.362  0.00  0.00    +0.000 A 
ATOM     35  C   UNL     1      53.779  38.259  71.609  0.00  0.00    +0.000 A 
ATOM     36  C   UNL     1      54.536  38.692  69.357  0.00  0.00    +0.000 A 
ATOM     37  C   UNL     1      53.705  39.632  71.849  0.00  0.00    +0.000 A 
ATOM     38  C   UNL     1      54.464  40.064  69.600  0.00  0.00    +0.000 A 
ATOM     39  C   UNL     1      54.051  40.534  70.846  0.00  0.00    +0.000 A 
ENDBRANCH  33  34
BRANCH  33  41
ATOM     40  O   UNL     1      51.176  34.557  69.318  0.00  0.00    +0.000 OA
ATOM     41  N   UNL     1      52.917  35.673  70.197  0.00  0.00    +0.000 N 
ATOM     42  C   UNL     1      52.030  35.429  69.185  0.00  0.00    +0.000 C 
ATOM     43  H   UNL     1      52.735  35.134  71.038  0.00  0.00    +0.000 HD
BRANCH  42  44
ATOM     44  C   UNL     1      52.120  36.178  67.911  0.00  0.00    +0.000 A 
ATOM     45  C   UNL     1      51.533  37.438  67.762  0.00  0.00    +0.000 A 
ATOM     46  C   UNL     1      52.749  35.566  66.820  0.00  0.00    +0.000 A 
ATOM     47  C   UNL     1      51.630  38.110  66.542  0.00  0.00    +0.000 A 
ATOM     48  C   UNL     1      52.842  36.239  65.602  0.00  0.00    +0.000 A 
ATOM     49  C   UNL     1      52.290  37.514  65.468  0.00  0.00    +0.000 A 
ENDBRANCH  42  44
ENDBRANCH  33  41
ENDBRANCH  30  33
ENDBRANCH  29  30
ENDBRANCH  27  29
ENDBRANCH  18  27
BRANCH  17  50
ATOM     50  O   UNL     1      60.388  32.631  65.425  0.00  0.00    +0.000 OA
BRANCH  50  52
ATOM     51  O   UNL     1      61.729  30.917  65.948  0.00  0.00    +0.000 OA
ATOM     52  C   UNL     1      60.680  31.311  65.446  0.00  0.00    +0.000 C 
ATOM     53  C   UNL     1      59.730  30.372  64.766  0.00  0.00    +0.000 C 
ENDBRANCH  50  52
ENDBRANCH  17  50
BRANCH   7  54
ATOM     54  O   UNL     1      58.643  36.614  67.991  0.00  0.00    +0.000 OA
BRANCH  54  56
ATOM     55  O   UNL     1      57.656  38.364  67.992  0.00  0.00    +0.000 OA
ATOM     56  C   UNL     1      58.011  37.521  68.809  0.00  0.00    +0.000 C 
BRANCH  56  57
ATOM     57  C   UNL     1      58.079  37.475  70.721  0.00  0.00    +0.000 A 
ATOM     58  C   UNL     1      58.851  36.522  71.516  0.00  0.00    +0.000 A 
ATOM     59  C   UNL     1      57.513  38.417  71.633  0.00  0.00    +0.000 A 
ATOM     60  C   UNL     1      59.022  36.518  72.922  0.00  0.00    +0.000 A 
ATOM     61  C   UNL     1      57.672  38.429  73.048  0.00  0.00    +0.000 A 
ATOM     62  C   UNL     1      58.428  37.482  73.696  0.00  0.00    +0.000 A 
ENDBRANCH  56  57
ENDBRANCH  54  56
ENDBRANCH   7  54
BRANCH   4  63
ATOM     63  O   UNL     1      60.649  38.600  69.528  0.00  0.00    +0.000 OA
BRANCH  63  65
ATOM     64  O   UNL     1      60.182  40.457  70.683  0.00  0.00    +0.000 OA
ATOM     65  C   UNL     1      60.907  39.476  70.526  0.00  0.00    +0.000 C 
ATOM     66  C   UNL     1      62.141  39.304  71.352  0.00  0.00    +0.000 C 
ENDBRANCH  63  65
ENDBRANCH   4  63
TORSDOF 17
ENDMDL
MODEL 5
REMARK VINA RESULT:      -5.6      7.601     13.555
REMARK  Name = 
REMARK  23 active torsions:
REMARK  status: ('A' for Active; 'I' for Inactive)
REMARK    1  A    between atoms: O_2  and  C_17
REMARK    2  A    between atoms: O_2  and  C_36
REMARK    3  A    between atoms: O_3  and  C_20
REMARK    4  A    between atoms: O_3  and  C_37
REMARK    5  A    between atoms: O_4  and  C_21
REMARK    6  A    between atoms: O_5  and  C_22
REMARK    7  A    between atoms: O_6  and  C_30
REMARK    8  A    between atoms: O_6  and  C_39
REMARK    9  A    between atoms: O_8  and  C_31
REMARK   10  A    between atoms: O_8  and  C_40
REMARK   11  A    between atoms: O_13  and  C_42
REMARK   12  A    between atoms: N_15  and  C_46
REMARK   13  A    between atoms: C_18  and  C_29
REMARK   14  A    between atoms: C_24  and  C_33
REMARK   15  A    between atoms: C_24  and  C_34
REMARK   16  A    between atoms: C_32  and  C_35
REMARK   17  A    between atoms: C_36  and  C_38
REMARK   18  A    between atoms: C_37  and  C_41
REMARK   19  A    between atoms: C_39  and  C_43
REMARK   20  A    between atoms: C_40  and  C_42
REMARK   21  A    between atoms: C_42  and  C_46
REMARK   22  A    between atoms: C_46  and  C_50
REMARK   23  A    between atoms: C_53  and  C_56
REMARK                            x       y       z     vdW  Elec       q    Type
REMARK                         _______ _______ _______ _____ _____    ______ ____
ROOT
ATOM      1  O   UNL     1      56.569  33.949  64.759  0.00  0.00    +0.000 OA
ATOM      2  O   UNL     1      53.497  29.598  60.748  0.00  0.00    +0.000 OA
ATOM      3  C   UNL     1      54.428  33.639  62.083  0.00  0.00    +0.000 C 
ATOM      4  C   UNL     1      54.818  34.052  63.533  0.00  0.00    +0.000 C 
ATOM      5  C   UNL     1      53.840  31.837  62.160  0.00  0.00    +0.000 C 
ATOM      6  C   UNL     1      56.080  33.107  63.679  0.00  0.00    +0.000 C 
ATOM      7  C   UNL     1      53.439  34.965  61.223  0.00  0.00    +0.000 C 
ATOM      8  C   UNL     1      52.539  35.321  59.595  0.00  0.00    +0.000 C 
ATOM      9  C   UNL     1      55.098  31.042  62.708  0.00  0.00    +0.000 C 
ATOM     10  C   UNL     1      55.785  31.653  63.968  0.00  0.00    +0.000 C 
ATOM     11  C   UNL     1      52.127  34.194  58.288  0.00  0.00    +0.000 C 
ATOM     12  C   UNL     1      55.913  35.068  64.047  0.00  0.00    +0.000 C 
ATOM     13  C   UNL     1      53.151  30.799  60.750  0.00  0.00    +0.000 C 
ATOM     14  C   UNL     1      51.073  35.807  60.005  0.00  0.00    +0.000 C 
ATOM     15  C   UNL     1      51.309  32.924  58.831  0.00  0.00    +0.000 C 
ATOM     16  C   UNL     1      52.753  31.599  63.289  0.00  0.00    +0.000 C 
ATOM     17  C   UNL     1      52.008  31.336  59.302  0.00  0.00    +0.000 C 
ATOM     18  C   UNL     1      49.892  34.735  60.010  0.00  0.00    +0.000 C 
ATOM     19  C   UNL     1      50.119  33.299  59.410  0.00  0.00    +0.000 C 
ATOM     20  C   UNL     1      51.152  34.996  57.289  0.00  0.00    +0.000 C 
ATOM     21  C   UNL     1      53.198  33.866  57.198  0.00  0.00    +0.000 C 
ATOM     22  C   UNL     1      49.042  32.304  59.765  0.00  0.00    +0.000 C 
ENDROOT
BRANCH   9  23
ATOM     23  O   UNL     1      56.091  30.977  61.685  0.00  0.00    +0.000 OA
ATOM     24  H   UNL     1      56.945  30.832  62.139  0.00  0.00    +0.000 HD
ENDBRANCH   9  23
BRANCH   8  25
ATOM     25  O   UNL     1      53.206  36.463  59.025  0.00  0.00    +0.000 OA
ATOM     26  H   UNL     1      53.337  37.130  59.722  0.00  0.00    +0.000 HD
ENDBRANCH   8  25
BRANCH  18  27
ATOM     27  O   UNL     1      49.466  34.542  61.391  0.00  0.00    +0.000 OA
BRANCH  27  29
ATOM     28  O   UNL     1      48.601  36.515  62.086  0.00  0.00    +0.000 OA
ATOM     29  C   UNL     1      48.448  35.324  61.834  0.00  0.00    +0.000 C 
BRANCH  29  30
ATOM     30  C   UNL     1      47.154  34.566  62.145  0.00  0.00    +0.000 C 
BRANCH  30  31
ATOM     31  O   UNL     1      46.049  34.861  61.283  0.00  0.00    +0.000 OA
ATOM     32  H   UNL     1      45.396  34.152  61.428  0.00  0.00    +0.000 HD
ENDBRANCH  30  31
BRANCH  30  33
ATOM     33  C   UNL     1      46.777  34.840  63.627  0.00  0.00    +0.000 C 
BRANCH  33  34
ATOM     34  C   UNL     1      46.631  33.533  64.394  0.00  0.00    +0.000 A 
ATOM     35  C   UNL     1      47.038  32.330  63.793  0.00  0.00    +0.000 A 
ATOM     36  C   UNL     1      46.070  33.484  65.680  0.00  0.00    +0.000 A 
ATOM     37  C   UNL     1      46.904  31.115  64.466  0.00  0.00    +0.000 A 
ATOM     38  C   UNL     1      45.939  32.268  66.353  0.00  0.00    +0.000 A 
ATOM     39  C   UNL     1      46.358  31.084  65.747  0.00  0.00    +0.000 A 
ENDBRANCH  33  34
BRANCH  33  41
ATOM     40  O   UNL     1      44.425  37.582  63.793  0.00  0.00    +0.000 OA
ATOM     41  N   UNL     1      45.546  35.636  63.704  0.00  0.00    +0.000 N 
ATOM     42  C   UNL     1      45.368  36.903  64.189  0.00  0.00    +0.000 C 
ATOM     43  H   UNL     1      44.802  35.329  63.084  0.00  0.00    +0.000 HD
BRANCH  42  44
ATOM     44  C   UNL     1      46.332  37.480  65.153  0.00  0.00    +0.000 A 
ATOM     45  C   UNL     1      46.239  37.217  66.523  0.00  0.00    +0.000 A 
ATOM     46  C   UNL     1      47.309  38.362  64.675  0.00  0.00    +0.000 A 
ATOM     47  C   UNL     1      47.160  37.787  67.404  0.00  0.00    +0.000 A 
ATOM     48  C   UNL     1      48.226  38.932  65.558  0.00  0.00    +0.000 A 
ATOM     49  C   UNL     1      48.156  38.636  66.920  0.00  0.00    +0.000 A 
ENDBRANCH  42  44
ENDBRANCH  33  41
ENDBRANCH  30  33
ENDBRANCH  29  30
ENDBRANCH  27  29
ENDBRANCH  18  27
BRANCH  17  50
ATOM     50  O   UNL     1      52.403  30.754  58.041  0.00  0.00    +0.000 OA
BRANCH  50  52
ATOM     51  O   UNL     1      52.190  29.201  56.443  0.00  0.00    +0.000 OA
ATOM     52  C   UNL     1      51.793  29.673  57.504  0.00  0.00    +0.000 C 
ATOM     53  C   UNL     1      50.578  29.136  58.199  0.00  0.00    +0.000 C 
ENDBRANCH  50  52
ENDBRANCH  17  50
BRANCH   7  54
ATOM     54  O   UNL     1      52.375  34.306  61.630  0.00  0.00    +0.000 OA
BRANCH  54  56
ATOM     55  O   UNL     1      52.913  36.141  62.245  0.00  0.00    +0.000 OA
ATOM     56  C   UNL     1      52.112  35.272  62.572  0.00  0.00    +0.000 C 
BRANCH  56  57
ATOM     57  C   UNL     1      51.003  35.001  64.109  0.00  0.00    +0.000 A 
ATOM     58  C   UNL     1      50.523  33.706  64.586  0.00  0.00    +0.000 A 
ATOM     59  C   UNL     1      50.600  35.976  65.071  0.00  0.00    +0.000 A 
ATOM     60  C   UNL     1      49.797  33.445  65.775  0.00  0.00    +0.000 A 
ATOM     61  C   UNL     1      49.870  35.734  66.270  0.00  0.00    +0.000 A 
ATOM     62  C   UNL     1      49.470  34.469  66.626  0.00  0.00    +0.000 A 
ENDBRANCH  56  57
ENDBRANCH  54  56
ENDBRANCH   7  54
BRANCH   4  63
ATOM     63  O   UNL     1      53.760  33.786  64.483  0.00  0.00    +0.000 OA
BRANCH  63  65
ATOM     64  O   UNL     1      53.830  35.350  66.079  0.00  0.00    +0.000 OA
ATOM     65  C   UNL     1      53.785  34.157  65.783  0.00  0.00    +0.000 C 
ATOM     66  C   UNL     1      53.877  33.108  66.845  0.00  0.00    +0.000 C 
ENDBRANCH  63  65
ENDBRANCH   4  63
TORSDOF 17
ENDMDL
MODEL 6
REMARK VINA RESULT:      -5.5      3.139      9.017
REMARK  Name = 
REMARK  23 active torsions:
REMARK  status: ('A' for Active; 'I' for Inactive)
REMARK    1  A    between atoms: O_2  and  C_17
REMARK    2  A    between atoms: O_2  and  C_36
REMARK    3  A    between atoms: O_3  and  C_20
REMARK    4  A    between atoms: O_3  and  C_37
REMARK    5  A    between atoms: O_4  and  C_21
REMARK    6  A    between atoms: O_5  and  C_22
REMARK    7  A    between atoms: O_6  and  C_30
REMARK    8  A    between atoms: O_6  and  C_39
REMARK    9  A    between atoms: O_8  and  C_31
REMARK   10  A    between atoms: O_8  and  C_40
REMARK   11  A    between atoms: O_13  and  C_42
REMARK   12  A    between atoms: N_15  and  C_46
REMARK   13  A    between atoms: C_18  and  C_29
REMARK   14  A    between atoms: C_24  and  C_33
REMARK   15  A    between atoms: C_24  and  C_34
REMARK   16  A    between atoms: C_32  and  C_35
REMARK   17  A    between atoms: C_36  and  C_38
REMARK   18  A    between atoms: C_37  and  C_41
REMARK   19  A    between atoms: C_39  and  C_43
REMARK   20  A    between atoms: C_40  and  C_42
REMARK   21  A    between atoms: C_42  and  C_46
REMARK   22  A    between atoms: C_46  and  C_50
REMARK   23  A    between atoms: C_53  and  C_56
REMARK                            x       y       z     vdW  Elec       q    Type
REMARK                         _______ _______ _______ _____ _____    ______ ____
ROOT
ATOM      1  O   UNL     1      62.298  40.645  68.127  0.00  0.00    +0.000 OA
ATOM      2  O   UNL     1      63.007  34.097  67.091  0.00  0.00    +0.000 OA
ATOM      3  C   UNL     1      60.645  37.753  67.264  0.00  0.00    +0.000 C 
ATOM      4  C   UNL     1      60.943  38.988  68.163  0.00  0.00    +0.000 C 
ATOM      5  C   UNL     1      61.806  36.363  67.828  0.00  0.00    +0.000 C 
ATOM      6  C   UNL     1      62.400  39.285  67.621  0.00  0.00    +0.000 C 
ATOM      7  C   UNL     1      58.814  37.480  67.038  0.00  0.00    +0.000 C 
ATOM      8  C   UNL     1      57.581  36.292  66.228  0.00  0.00    +0.000 C 
ATOM      9  C   UNL     1      63.260  36.955  67.598  0.00  0.00    +0.000 C 
ATOM     10  C   UNL     1      63.498  38.393  68.153  0.00  0.00    +0.000 C 
ATOM     11  C   UNL     1      57.887  34.695  65.518  0.00  0.00    +0.000 C 
ATOM     12  C   UNL     1      60.850  40.532  67.843  0.00  0.00    +0.000 C 
ATOM     13  C   UNL     1      61.865  34.594  67.191  0.00  0.00    +0.000 C 
ATOM     14  C   UNL     1      56.550  35.885  67.378  0.00  0.00    +0.000 C 
ATOM     15  C   UNL     1      58.638  33.719  66.547  0.00  0.00    +0.000 C 
ATOM     16  C   UNL     1      61.763  36.133  69.396  0.00  0.00    +0.000 C 
ATOM     17  C   UNL     1      60.413  33.456  66.652  0.00  0.00    +0.000 C 
ATOM     18  C   UNL     1      56.795  34.523  68.170  0.00  0.00    +0.000 C 
ATOM     19  C   UNL     1      57.889  33.504  67.680  0.00  0.00    +0.000 C 
ATOM     20  C   UNL     1      56.442  34.049  65.219  0.00  0.00    +0.000 C 
ATOM     21  C   UNL     1      58.387  34.600  64.041  0.00  0.00    +0.000 C 
ATOM     22  C   UNL     1      58.230  32.432  68.686  0.00  0.00    +0.000 C 
ENDROOT
BRANCH   9  23
ATOM     23  O   UNL     1      63.527  37.001  66.197  0.00  0.00    +0.000 OA
ATOM     24  H   UNL     1      62.775  37.475  65.789  0.00  0.00    +0.000 HD
ENDBRANCH   9  23
BRANCH   8  25
ATOM     25  O   UNL     1      56.846  37.086  65.278  0.00  0.00    +0.000 OA
ATOM     26  H   UNL     1      57.211  36.928  64.389  0.00  0.00    +0.000 HD
ENDBRANCH   8  25
BRANCH  18  27
ATOM     27  O   UNL     1      57.134  34.859  69.548  0.00  0.00    +0.000 OA
BRANCH  27  29
ATOM     28  O   UNL     1      55.182  35.605  70.415  0.00  0.00    +0.000 OA
ATOM     29  C   UNL     1      56.125  34.822  70.455  0.00  0.00    +0.000 C 
BRANCH  29  30
ATOM     30  C   UNL     1      56.346  33.840  71.610  0.00  0.00    +0.000 C 
BRANCH  30  31
ATOM     31  O   UNL     1      55.556  32.646  71.558  0.00  0.00    +0.000 OA
ATOM     32  H   UNL     1      54.638  32.921  71.740  0.00  0.00    +0.000 HD
ENDBRANCH  30  31
BRANCH  30  33
ATOM     33  C   UNL     1      56.098  34.599  72.943  0.00  0.00    +0.000 C 
BRANCH  33  34
ATOM     34  C   UNL     1      57.139  34.210  73.984  0.00  0.00    +0.000 A 
ATOM     35  C   UNL     1      58.219  33.393  73.608  0.00  0.00    +0.000 A 
ATOM     36  C   UNL     1      57.039  34.615  75.324  0.00  0.00    +0.000 A 
ATOM     37  C   UNL     1      59.182  33.008  74.543  0.00  0.00    +0.000 A 
ATOM     38  C   UNL     1      58.003  34.231  76.257  0.00  0.00    +0.000 A 
ATOM     39  C   UNL     1      59.075  33.430  75.866  0.00  0.00    +0.000 A 
ENDBRANCH  33  34
BRANCH  33  41
ATOM     40  O   UNL     1      52.542  34.794  73.570  0.00  0.00    +0.000 OA
ATOM     41  N   UNL     1      54.739  34.341  73.436  0.00  0.00    +0.000 N 
ATOM     42  C   UNL     1      53.695  35.214  73.580  0.00  0.00    +0.000 C 
ATOM     43  H   UNL     1      54.455  33.367  73.405  0.00  0.00    +0.000 HD
BRANCH  42  44
ATOM     44  C   UNL     1      53.944  36.668  73.701  0.00  0.00    +0.000 A 
ATOM     45  C   UNL     1      53.746  37.534  72.621  0.00  0.00    +0.000 A 
ATOM     46  C   UNL     1      54.455  37.161  74.907  0.00  0.00    +0.000 A 
ATOM     47  C   UNL     1      54.000  38.899  72.768  0.00  0.00    +0.000 A 
ATOM     48  C   UNL     1      54.711  38.524  75.051  0.00  0.00    +0.000 A 
ATOM     49  C   UNL     1      54.474  39.393  73.984  0.00  0.00    +0.000 A 
ENDBRANCH  42  44
ENDBRANCH  33  41
ENDBRANCH  30  33
ENDBRANCH  29  30
ENDBRANCH  27  29
ENDBRANCH  18  27
BRANCH  17  50
ATOM     50  O   UNL     1      60.715  32.703  65.457  0.00  0.00    +0.000 OA
BRANCH  50  52
ATOM     51  O   UNL     1      60.146  30.644  64.790  0.00  0.00    +0.000 OA
ATOM     52  C   UNL     1      60.888  31.362  65.453  0.00  0.00    +0.000 C 
ATOM     53  C   UNL     1      61.946  30.789  66.348  0.00  0.00    +0.000 C 
ENDBRANCH  50  52
ENDBRANCH  17  50
BRANCH   7  54
ATOM     54  O   UNL     1      58.908  36.643  68.049  0.00  0.00    +0.000 OA
BRANCH  54  56
ATOM     55  O   UNL     1      57.854  38.353  68.053  0.00  0.00    +0.000 OA
ATOM     56  C   UNL     1      58.248  37.526  68.869  0.00  0.00    +0.000 C 
BRANCH  56  57
ATOM     57  C   UNL     1      58.332  37.487  70.781  0.00  0.00    +0.000 A 
ATOM     58  C   UNL     1      59.248  36.666  71.569  0.00  0.00    +0.000 A 
ATOM     59  C   UNL     1      57.628  38.325  71.698  0.00  0.00    +0.000 A 
ATOM     60  C   UNL     1      59.424  36.686  72.975  0.00  0.00    +0.000 A 
ATOM     61  C   UNL     1      57.790  38.359  73.113  0.00  0.00    +0.000 A 
ATOM     62  C   UNL     1      58.690  37.542  73.754  0.00  0.00    +0.000 A 
ENDBRANCH  56  57
ENDBRANCH  54  56
ENDBRANCH   7  54
BRANCH   4  63
ATOM     63  O   UNL     1      60.885  38.667  69.573  0.00  0.00    +0.000 OA
BRANCH  63  65
ATOM     64  O   UNL     1      60.341  40.506  70.723  0.00  0.00    +0.000 OA
ATOM     65  C   UNL     1      61.104  39.554  70.571  0.00  0.00    +0.000 C 
ATOM     66  C   UNL     1      62.339  39.430  71.404  0.00  0.00    +0.000 C 
ENDBRANCH  63  65
ENDBRANCH   4  63
TORSDOF 17
ENDMDL
MODEL 7
REMARK VINA RESULT:      -5.3     38.262     42.282
REMARK  Name = 
REMARK  23 active torsions:
REMARK  status: ('A' for Active; 'I' for Inactive)
REMARK    1  A    between atoms: O_2  and  C_17
REMARK    2  A    between atoms: O_2  and  C_36
REMARK    3  A    between atoms: O_3  and  C_20
REMARK    4  A    between atoms: O_3  and  C_37
REMARK    5  A    between atoms: O_4  and  C_21
REMARK    6  A    between atoms: O_5  and  C_22
REMARK    7  A    between atoms: O_6  and  C_30
REMARK    8  A    between atoms: O_6  and  C_39
REMARK    9  A    between atoms: O_8  and  C_31
REMARK   10  A    between atoms: O_8  and  C_40
REMARK   11  A    between atoms: O_13  and  C_42
REMARK   12  A    between atoms: N_15  and  C_46
REMARK   13  A    between atoms: C_18  and  C_29
REMARK   14  A    between atoms: C_24  and  C_33
REMARK   15  A    between atoms: C_24  and  C_34
REMARK   16  A    between atoms: C_32  and  C_35
REMARK   17  A    between atoms: C_36  and  C_38
REMARK   18  A    between atoms: C_37  and  C_41
REMARK   19  A    between atoms: C_39  and  C_43
REMARK   20  A    between atoms: C_40  and  C_42
REMARK   21  A    between atoms: C_42  and  C_46
REMARK   22  A    between atoms: C_46  and  C_50
REMARK   23  A    between atoms: C_53  and  C_56
REMARK                            x       y       z     vdW  Elec       q    Type
REMARK                         _______ _______ _______ _____ _____    ______ ____
ROOT
ATOM      1  O   UNL     1      55.942  72.713  81.381  0.00  0.00    +0.000 OA
ATOM      2  O   UNL     1      58.456  75.176  87.043  0.00  0.00    +0.000 OA
ATOM      3  C   UNL     1      56.930  75.593  82.985  0.00  0.00    +0.000 C 
ATOM      4  C   UNL     1      56.999  74.509  81.870  0.00  0.00    +0.000 C 
ATOM      5  C   UNL     1      58.011  74.983  84.419  0.00  0.00    +0.000 C 
ATOM      6  C   UNL     1      56.224  73.369  82.648  0.00  0.00    +0.000 C 
ATOM      7  C   UNL     1      57.087  77.317  82.292  0.00  0.00    +0.000 C 
ATOM      8  C   UNL     1      57.172  79.130  82.834  0.00  0.00    +0.000 C 
ATOM      9  C   UNL     1      57.342  73.611  84.852  0.00  0.00    +0.000 C 
ATOM     10  C   UNL     1      57.022  72.621  83.691  0.00  0.00    +0.000 C 
ATOM     11  C   UNL     1      57.386  79.788  84.467  0.00  0.00    +0.000 C 
ATOM     12  C   UNL     1      55.923  74.073  80.798  0.00  0.00    +0.000 C 
ATOM     13  C   UNL     1      58.405  75.891  86.019  0.00  0.00    +0.000 C 
ATOM     14  C   UNL     1      58.469  79.736  82.125  0.00  0.00    +0.000 C 
ATOM     15  C   UNL     1      58.684  79.181  85.190  0.00  0.00    +0.000 C 
ATOM     16  C   UNL     1      59.456  74.537  83.945  0.00  0.00    +0.000 C 
ATOM     17  C   UNL     1      58.715  77.766  86.298  0.00  0.00    +0.000 C 
ATOM     18  C   UNL     1      59.830  79.796  82.956  0.00  0.00    +0.000 C 
ATOM     19  C   UNL     1      59.835  79.479  84.497  0.00  0.00    +0.000 C 
ATOM     20  C   UNL     1      57.636  81.369  84.289  0.00  0.00    +0.000 C 
ATOM     21  C   UNL     1      56.137  79.952  85.393  0.00  0.00    +0.000 C 
ATOM     22  C   UNL     1      61.210  79.262  85.078  0.00  0.00    +0.000 C 
ENDROOT
BRANCH   9  23
ATOM     23  O   UNL     1      56.110  73.883  85.518  0.00  0.00    +0.000 OA
ATOM     24  H   UNL     1      56.272  74.660  86.090  0.00  0.00    +0.000 HD
ENDBRANCH   9  23
BRANCH   8  25
ATOM     25  O   UNL     1      56.034  79.770  82.224  0.00  0.00    +0.000 OA
ATOM     26  H   UNL     1      55.861  80.608  82.688  0.00  0.00    +0.000 HD
ENDBRANCH   8  25
BRANCH  18  27
ATOM     27  O   UNL     1      60.773  78.869  82.342  0.00  0.00    +0.000 OA
BRANCH  27  29
ATOM     28  O   UNL     1      62.165  80.525  81.678  0.00  0.00    +0.000 OA
ATOM     29  C   UNL     1      61.702  79.402  81.507  0.00  0.00    +0.000 C 
BRANCH  29  30
ATOM     30  C   UNL     1      61.995  78.558  80.263  0.00  0.00    +0.000 C 
BRANCH  30  31
ATOM     31  O   UNL     1      63.379  78.449  79.909  0.00  0.00    +0.000 OA
ATOM     32  H   UNL     1      63.881  78.638  80.723  0.00  0.00    +0.000 HD
ENDBRANCH  30  31
BRANCH  30  33
ATOM     33  C   UNL     1      61.174  79.142  79.079  0.00  0.00    +0.000 C 
BRANCH  33  34
ATOM     34  C   UNL     1      60.830  78.051  78.075  0.00  0.00    +0.000 A 
ATOM     35  C   UNL     1      61.252  76.732  78.316  0.00  0.00    +0.000 A 
ATOM     36  C   UNL     1      60.128  78.324  76.890  0.00  0.00    +0.000 A 
ATOM     37  C   UNL     1      60.963  75.713  77.408  0.00  0.00    +0.000 A 
ATOM     38  C   UNL     1      59.839  77.304  75.984  0.00  0.00    +0.000 A 
ATOM     39  C   UNL     1      60.254  75.998  76.243  0.00  0.00    +0.000 A 
ENDBRANCH  33  34
BRANCH  33  41
ATOM     40  O   UNL     1      62.464  82.401  78.188  0.00  0.00    +0.000 OA
ATOM     41  N   UNL     1      61.911  80.237  78.435  0.00  0.00    +0.000 N 
ATOM     42  C   UNL     1      61.583  81.562  78.348  0.00  0.00    +0.000 C 
ATOM     43  H   UNL     1      62.897  80.050  78.279  0.00  0.00    +0.000 HD
BRANCH  42  44
ATOM     44  C   UNL     1      60.175  81.998  78.493  0.00  0.00    +0.000 A 
ATOM     45  C   UNL     1      59.344  82.161  77.380  0.00  0.00    +0.000 A 
ATOM     46  C   UNL     1      59.702  82.317  79.771  0.00  0.00    +0.000 A 
ATOM     47  C   UNL     1      58.025  82.583  77.554  0.00  0.00    +0.000 A 
ATOM     48  C   UNL     1      58.385  82.741  79.942  0.00  0.00    +0.000 A 
ATOM     49  C   UNL     1      57.545  82.864  78.834  0.00  0.00    +0.000 A 
ENDBRANCH  42  44
ENDBRANCH  33  41
ENDBRANCH  30  33
ENDBRANCH  29  30
ENDBRANCH  27  29
ENDBRANCH  18  27
BRANCH  17  50
ATOM     50  O   UNL     1      58.074  78.261  87.494  0.00  0.00    +0.000 OA
BRANCH  50  52
ATOM     51  O   UNL     1      58.081  78.598  89.707  0.00  0.00    +0.000 OA
ATOM     52  C   UNL     1      58.716  78.383  88.678  0.00  0.00    +0.000 C 
ATOM     53  C   UNL     1      60.214  78.338  88.672  0.00  0.00    +0.000 C 
ENDBRANCH  50  52
ENDBRANCH  17  50
BRANCH   7  54
ATOM     54  O   UNL     1      58.371  77.209  82.565  0.00  0.00    +0.000 OA
BRANCH  54  56
ATOM     55  O   UNL     1      59.780  76.465  81.341  0.00  0.00    +0.000 OA
ATOM     56  C   UNL     1      58.648  76.928  81.248  0.00  0.00    +0.000 C 
BRANCH  56  57
ATOM     57  C   UNL     1      57.568  77.502  79.775  0.00  0.00    +0.000 A 
ATOM     58  C   UNL     1      57.460  78.877  79.293  0.00  0.00    +0.000 A 
ATOM     59  C   UNL     1      56.832  76.683  78.866  0.00  0.00    +0.000 A 
ATOM     60  C   UNL     1      56.766  79.331  78.144  0.00  0.00    +0.000 A 
ATOM     61  C   UNL     1      56.127  77.120  77.709  0.00  0.00    +0.000 A 
ATOM     62  C   UNL     1      56.095  78.444  77.343  0.00  0.00    +0.000 A 
ENDBRANCH  56  57
ENDBRANCH  54  56
ENDBRANCH   7  54
BRANCH   4  63
ATOM     63  O   UNL     1      58.362  74.171  81.517  0.00  0.00    +0.000 OA
BRANCH  63  65
ATOM     64  O   UNL     1      58.713  73.919  79.324  0.00  0.00    +0.000 OA
ATOM     65  C   UNL     1      58.714  73.422  80.448  0.00  0.00    +0.000 C 
ATOM     66  C   UNL     1      58.986  71.963  80.631  0.00  0.00    +0.000 C 
ENDBRANCH  63  65
ENDBRANCH   4  63
TORSDOF 17
ENDMDL
MODEL 8
REMARK VINA RESULT:      -5.3      3.761      7.647
REMARK  Name = 
REMARK  23 active torsions:
REMARK  status: ('A' for Active; 'I' for Inactive)
REMARK    1  A    between atoms: O_2  and  C_17
REMARK    2  A    between atoms: O_2  and  C_36
REMARK    3  A    between atoms: O_3  and  C_20
REMARK    4  A    between atoms: O_3  and  C_37
REMARK    5  A    between atoms: O_4  and  C_21
REMARK    6  A    between atoms: O_5  and  C_22
REMARK    7  A    between atoms: O_6  and  C_30
REMARK    8  A    between atoms: O_6  and  C_39
REMARK    9  A    between atoms: O_8  and  C_31
REMARK   10  A    between atoms: O_8  and  C_40
REMARK   11  A    between atoms: O_13  and  C_42
REMARK   12  A    between atoms: N_15  and  C_46
REMARK   13  A    between atoms: C_18  and  C_29
REMARK   14  A    between atoms: C_24  and  C_33
REMARK   15  A    between atoms: C_24  and  C_34
REMARK   16  A    between atoms: C_32  and  C_35
REMARK   17  A    between atoms: C_36  and  C_38
REMARK   18  A    between atoms: C_37  and  C_41
REMARK   19  A    between atoms: C_39  and  C_43
REMARK   20  A    between atoms: C_40  and  C_42
REMARK   21  A    between atoms: C_42  and  C_46
REMARK   22  A    between atoms: C_46  and  C_50
REMARK   23  A    between atoms: C_53  and  C_56
REMARK                            x       y       z     vdW  Elec       q    Type
REMARK                         _______ _______ _______ _____ _____    ______ ____
ROOT
ATOM      1  O   UNL     1      58.311  34.008  64.228  0.00  0.00    +0.000 OA
ATOM      2  O   UNL     1      56.452  33.666  70.622  0.00  0.00    +0.000 OA
ATOM      3  C   UNL     1      55.609  33.968  66.359  0.00  0.00    +0.000 C 
ATOM      4  C   UNL     1      56.547  34.598  65.287  0.00  0.00    +0.000 C 
ATOM      5  C   UNL     1      56.344  34.391  68.056  0.00  0.00    +0.000 C 
ATOM      6  C   UNL     1      57.803  33.669  65.548  0.00  0.00    +0.000 C 
ATOM      7  C   UNL     1      53.809  34.252  65.963  0.00  0.00    +0.000 C 
ATOM      8  C   UNL     1      52.073  33.940  66.653  0.00  0.00    +0.000 C 
ATOM      9  C   UNL     1      57.784  33.725  68.031  0.00  0.00    +0.000 C 
ATOM     10  C   UNL     1      58.638  34.014  66.759  0.00  0.00    +0.000 C 
ATOM     11  C   UNL     1      51.609  33.385  68.273  0.00  0.00    +0.000 C 
ATOM     12  C   UNL     1      56.892  34.118  63.822  0.00  0.00    +0.000 C 
ATOM     13  C   UNL     1      55.621  33.990  69.746  0.00  0.00    +0.000 C 
ATOM     14  C   UNL     1      51.334  35.357  66.630  0.00  0.00    +0.000 C 
ATOM     15  C   UNL     1      52.247  34.304  69.424  0.00  0.00    +0.000 C 
ATOM     16  C   UNL     1      56.672  35.934  68.210  0.00  0.00    +0.000 C 
ATOM     17  C   UNL     1      53.783  33.987  70.303  0.00  0.00    +0.000 C 
ATOM     18  C   UNL     1      51.321  36.227  67.967  0.00  0.00    +0.000 C 
ATOM     19  C   UNL     1      51.821  35.608  69.324  0.00  0.00    +0.000 C 
ATOM     20  C   UNL     1      50.009  33.547  68.366  0.00  0.00    +0.000 C 
ATOM     21  C   UNL     1      51.608  31.853  68.583  0.00  0.00    +0.000 C 
ATOM     22  C   UNL     1      52.052  36.622  70.417  0.00  0.00    +0.000 C 
ENDROOT
BRANCH   9  23
ATOM     23  O   UNL     1      57.643  32.308  68.124  0.00  0.00    +0.000 OA
ATOM     24  H   UNL     1      57.323  32.005  67.250  0.00  0.00    +0.000 HD
ENDBRANCH   9  23
BRANCH   8  25
ATOM     25  O   UNL     1      51.410  33.115  65.676  0.00  0.00    +0.000 OA
ATOM     26  H   UNL     1      50.965  32.382  66.135  0.00  0.00    +0.000 HD
ENDBRANCH   8  25
BRANCH  18  27
ATOM     27  O   UNL     1      52.128  37.419  67.735  0.00  0.00    +0.000 OA
BRANCH  27  29
ATOM     28  O   UNL     1      50.335  38.548  66.943  0.00  0.00    +0.000 OA
ATOM     29  C   UNL     1      51.463  38.561  67.425  0.00  0.00    +0.000 C 
BRANCH  29  30
ATOM     30  C   UNL     1      52.292  39.840  67.573  0.00  0.00    +0.000 C 
BRANCH  30  31
ATOM     31  O   UNL     1      53.311  40.027  66.583  0.00  0.00    +0.000 OA
ATOM     32  H   UNL     1      52.882  39.872  65.721  0.00  0.00    +0.000 HD
ENDBRANCH  30  31
BRANCH  30  33
ATOM     33  C   UNL     1      52.909  39.852  68.999  0.00  0.00    +0.000 C 
BRANCH  33  34
ATOM     34  C   UNL     1      51.966  40.527  69.985  0.00  0.00    +0.000 A 
ATOM     35  C   UNL     1      50.683  39.990  70.192  0.00  0.00    +0.000 A 
ATOM     36  C   UNL     1      52.324  41.695  70.678  0.00  0.00    +0.000 A 
ATOM     37  C   UNL     1      49.792  40.594  71.080  0.00  0.00    +0.000 A 
ATOM     38  C   UNL     1      51.432  42.296  71.567  0.00  0.00    +0.000 A 
ATOM     39  C   UNL     1      50.168  41.745  71.770  0.00  0.00    +0.000 A 
ENDBRANCH  33  34
BRANCH  33  41
ATOM     40  O   UNL     1      56.456  40.528  69.197  0.00  0.00    +0.000 OA
ATOM     41  N   UNL     1      54.219  40.516  68.985  0.00  0.00    +0.000 N 
ATOM     42  C   UNL     1      55.370  40.164  69.637  0.00  0.00    +0.000 C 
ATOM     43  H   UNL     1      54.371  41.139  68.198  0.00  0.00    +0.000 HD
BRANCH  42  44
ATOM     44  C   UNL     1      55.317  39.306  70.842  0.00  0.00    +0.000 A 
ATOM     45  C   UNL     1      55.475  37.920  70.759  0.00  0.00    +0.000 A 
ATOM     46  C   UNL     1      55.033  39.904  72.076  0.00  0.00    +0.000 A 
ATOM     47  C   UNL     1      55.410  37.142  71.916  0.00  0.00    +0.000 A 
ATOM     48  C   UNL     1      54.965  39.125  73.230  0.00  0.00    +0.000 A 
ATOM     49  C   UNL     1      55.163  37.746  73.150  0.00  0.00    +0.000 A 
ENDBRANCH  42  44
ENDBRANCH  33  41
ENDBRANCH  30  33
ENDBRANCH  29  30
ENDBRANCH  27  29
ENDBRANCH  18  27
BRANCH  17  50
ATOM     50  O   UNL     1      53.462  32.861  71.147  0.00  0.00    +0.000 OA
BRANCH  50  52
ATOM     51  O   UNL     1      52.762  32.024  73.101  0.00  0.00    +0.000 OA
ATOM     52  C   UNL     1      53.204  32.979  72.469  0.00  0.00    +0.000 C 
ATOM     53  C   UNL     1      53.392  34.324  73.103  0.00  0.00    +0.000 C 
ENDBRANCH  50  52
ENDBRANCH  17  50
BRANCH   7  54
ATOM     54  O   UNL     1      53.898  35.304  66.750  0.00  0.00    +0.000 OA
BRANCH  54  56
ATOM     55  O   UNL     1      54.340  37.178  66.178  0.00  0.00    +0.000 OA
ATOM     56  C   UNL     1      53.940  36.141  65.660  0.00  0.00    +0.000 C 
BRANCH  56  57
ATOM     57  C   UNL     1      53.201  35.714  63.947  0.00  0.00    +0.000 A 
ATOM     58  C   UNL     1      51.849  36.049  63.504  0.00  0.00    +0.000 A 
ATOM     59  C   UNL     1      53.877  35.142  62.827  0.00  0.00    +0.000 A 
ATOM     60  C   UNL     1      51.297  35.855  62.213  0.00  0.00    +0.000 A 
ATOM     61  C   UNL     1      53.340  34.937  61.524  0.00  0.00    +0.000 A 
ATOM     62  C   UNL     1      52.050  35.296  61.213  0.00  0.00    +0.000 A 
ENDBRANCH  56  57
ENDBRANCH  54  56
ENDBRANCH   7  54
BRANCH   4  63
ATOM     63  O   UNL     1      56.785  36.005  65.525  0.00  0.00    +0.000 OA
BRANCH  63  65
ATOM     64  O   UNL     1      58.618  37.089  64.843  0.00  0.00    +0.000 OA
ATOM     65  C   UNL     1      57.429  36.829  64.668  0.00  0.00    +0.000 C 
ATOM     66  C   UNL     1      56.656  37.510  63.584  0.00  0.00    +0.000 C 
ENDBRANCH  63  65
ENDBRANCH   4  63
TORSDOF 17
ENDMDL
MODEL 9
REMARK VINA RESULT:      -5.3     19.294     22.777
REMARK  Name = 
REMARK  23 active torsions:
REMARK  status: ('A' for Active; 'I' for Inactive)
REMARK    1  A    between atoms: O_2  and  C_17
REMARK    2  A    between atoms: O_2  and  C_36
REMARK    3  A    between atoms: O_3  and  C_20
REMARK    4  A    between atoms: O_3  and  C_37
REMARK    5  A    between atoms: O_4  and  C_21
REMARK    6  A    between atoms: O_5  and  C_22
REMARK    7  A    between atoms: O_6  and  C_30
REMARK    8  A    between atoms: O_6  and  C_39
REMARK    9  A    between atoms: O_8  and  C_31
REMARK   10  A    between atoms: O_8  and  C_40
REMARK   11  A    between atoms: O_13  and  C_42
REMARK   12  A    between atoms: N_15  and  C_46
REMARK   13  A    between atoms: C_18  and  C_29
REMARK   14  A    between atoms: C_24  and  C_33
REMARK   15  A    between atoms: C_24  and  C_34
REMARK   16  A    between atoms: C_32  and  C_35
REMARK   17  A    between atoms: C_36  and  C_38
REMARK   18  A    between atoms: C_37  and  C_41
REMARK   19  A    between atoms: C_39  and  C_43
REMARK   20  A    between atoms: C_40  and  C_42
REMARK   21  A    between atoms: C_42  and  C_46
REMARK   22  A    between atoms: C_46  and  C_50
REMARK   23  A    between atoms: C_53  and  C_56
REMARK                            x       y       z     vdW  Elec       q    Type
REMARK                         _______ _______ _______ _____ _____    ______ ____
ROOT
ATOM      1  O   UNL     1      58.889  54.135  58.750  0.00  0.00    +0.000 OA
ATOM      2  O   UNL     1      63.713  57.384  62.011  0.00  0.00    +0.000 OA
ATOM      3  C   UNL     1      61.946  55.680  58.412  0.00  0.00    +0.000 C 
ATOM      4  C   UNL     1      60.968  54.469  58.363  0.00  0.00    +0.000 C 
ATOM      5  C   UNL     1      62.620  55.776  60.183  0.00  0.00    +0.000 C 
ATOM      6  C   UNL     1      59.850  55.075  59.306  0.00  0.00    +0.000 C 
ATOM      7  C   UNL     1      63.067  55.731  56.923  0.00  0.00    +0.000 C 
ATOM      8  C   UNL     1      64.509  56.714  56.187  0.00  0.00    +0.000 C 
ATOM      9  C   UNL     1      61.329  55.992  61.078  0.00  0.00    +0.000 C 
ATOM     10  C   UNL     1      60.139  55.027  60.789  0.00  0.00    +0.000 C 
ATOM     11  C   UNL     1      65.516  57.951  56.963  0.00  0.00    +0.000 C 
ATOM     12  C   UNL     1      59.668  54.240  57.496  0.00  0.00    +0.000 C 
ATOM     13  C   UNL     1      63.914  56.968  60.849  0.00  0.00    +0.000 C 
ATOM     14  C   UNL     1      65.632  55.636  55.827  0.00  0.00    +0.000 C 
ATOM     15  C   UNL     1      66.162  57.420  58.333  0.00  0.00    +0.000 C 
ATOM     16  C   UNL     1      63.178  54.384  60.698  0.00  0.00    +0.000 C 
ATOM     17  C   UNL     1      65.487  57.652  59.983  0.00  0.00    +0.000 C 
ATOM     18  C   UNL     1      66.807  55.385  56.876  0.00  0.00    +0.000 C 
ATOM     19  C   UNL     1      66.977  56.332  58.120  0.00  0.00    +0.000 C 
ATOM     20  C   UNL     1      66.731  58.248  55.948  0.00  0.00    +0.000 C 
ATOM     21  C   UNL     1      65.011  59.429  57.007  0.00  0.00    +0.000 C 
ATOM     22  C   UNL     1      67.909  55.798  59.180  0.00  0.00    +0.000 C 
ENDROOT
BRANCH   9  23
ATOM     23  O   UNL     1      60.844  57.320  60.884  0.00  0.00    +0.000 OA
ATOM     24  H   UNL     1      60.108  57.252  60.243  0.00  0.00    +0.000 HD
ENDBRANCH   9  23
BRANCH   8  25
ATOM     25  O   UNL     1      64.023  57.235  54.935  0.00  0.00    +0.000 OA
ATOM     26  H   UNL     1      64.716  57.790  54.537  0.00  0.00    +0.000 HD
ENDBRANCH   8  25
BRANCH  18  27
ATOM     27  O   UNL     1      66.657  54.035  57.404  0.00  0.00    +0.000 OA
BRANCH  27  29
ATOM     28  O   UNL     1      67.156  52.371  55.953  0.00  0.00    +0.000 OA
ATOM     29  C   UNL     1      67.482  53.082  56.898  0.00  0.00    +0.000 C 
BRANCH  29  30
ATOM     30  C   UNL     1      68.769  52.866  57.700  0.00  0.00    +0.000 C 
BRANCH  30  31
ATOM     31  O   UNL     1      69.973  53.298  57.055  0.00  0.00    +0.000 OA
ATOM     32  H   UNL     1      70.370  52.499  56.661  0.00  0.00    +0.000 HD
ENDBRANCH  30  31
BRANCH  30  33
ATOM     33  C   UNL     1      68.860  51.359  58.069  0.00  0.00    +0.000 C 
BRANCH  33  34
ATOM     34  C   UNL     1      68.889  51.178  59.580  0.00  0.00    +0.000 A 
ATOM     35  C   UNL     1      68.571  52.265  60.413  0.00  0.00    +0.000 A 
ATOM     36  C   UNL     1      69.256  49.962  60.177  0.00  0.00    +0.000 A 
ATOM     37  C   UNL     1      68.602  52.134  61.802  0.00  0.00    +0.000 A 
ATOM     38  C   UNL     1      69.285  49.831  61.566  0.00  0.00    +0.000 A 
ATOM     39  C   UNL     1      68.956  50.916  62.378  0.00  0.00    +0.000 A 
ENDBRANCH  33  34
BRANCH  33  41
ATOM     40  O   UNL     1      71.080  49.666  55.770  0.00  0.00    +0.000 OA
ATOM     41  N   UNL     1      70.039  50.748  57.443  0.00  0.00    +0.000 N 
ATOM     42  C   UNL     1      70.098  49.757  56.501  0.00  0.00    +0.000 C 
ATOM     43  H   UNL     1      70.888  51.302  57.505  0.00  0.00    +0.000 HD
BRANCH  42  44
ATOM     44  C   UNL     1      68.964  48.822  56.324  0.00  0.00    +0.000 A 
ATOM     45  C   UNL     1      68.771  47.738  57.186  0.00  0.00    +0.000 A 
ATOM     46  C   UNL     1      68.118  48.998  55.222  0.00  0.00    +0.000 A 
ATOM     47  C   UNL     1      67.697  46.871  56.982  0.00  0.00    +0.000 A 
ATOM     48  C   UNL     1      67.047  48.128  55.019  0.00  0.00    +0.000 A 
ATOM     49  C   UNL     1      66.832  47.071  55.905  0.00  0.00    +0.000 A 
ENDBRANCH  42  44
ENDBRANCH  33  41
ENDBRANCH  30  33
ENDBRANCH  29  30
ENDBRANCH  27  29
ENDBRANCH  18  27
BRANCH  17  50
ATOM     50  O   UNL     1      65.690  59.059  60.236  0.00  0.00    +0.000 OA
BRANCH  50  52
ATOM     51  O   UNL     1      66.772  60.735  61.251  0.00  0.00    +0.000 OA
ATOM     52  C   UNL     1      66.616  59.526  61.104  0.00  0.00    +0.000 C 
ATOM     53  C   UNL     1      67.492  58.528  61.799  0.00  0.00    +0.000 C 
ENDBRANCH  50  52
ENDBRANCH  17  50
BRANCH   7  54
ATOM     54  O   UNL     1      63.935  55.080  57.670  0.00  0.00    +0.000 OA
BRANCH  54  56
ATOM     55  O   UNL     1      62.961  54.332  56.080  0.00  0.00    +0.000 OA
ATOM     56  C   UNL     1      63.704  53.922  56.966  0.00  0.00    +0.000 C 
BRANCH  56  57
ATOM     57  C   UNL     1      64.211  52.178  57.568  0.00  0.00    +0.000 A 
ATOM     58  C   UNL     1      64.233  50.973  56.742  0.00  0.00    +0.000 A 
ATOM     59  C   UNL     1      64.758  51.823  58.838  0.00  0.00    +0.000 A 
ATOM     60  C   UNL     1      64.706  49.689  57.111  0.00  0.00    +0.000 A 
ATOM     61  C   UNL     1      65.236  50.539  59.228  0.00  0.00    +0.000 A 
ATOM     62  C   UNL     1      65.214  49.471  58.365  0.00  0.00    +0.000 A 
ENDBRANCH  56  57
ENDBRANCH  54  56
ENDBRANCH   7  54
BRANCH   4  63
ATOM     63  O   UNL     1      61.574  53.253  58.862  0.00  0.00    +0.000 OA
BRANCH  63  65
ATOM     64  O   UNL     1      60.628  51.496  59.869  0.00  0.00    +0.000 OA
ATOM     65  C   UNL     1      60.990  52.034  58.825  0.00  0.00    +0.000 C 
ATOM     66  C   UNL     1      60.898  51.303  57.523  0.00  0.00    +0.000 C 
ENDBRANCH  63  65
ENDBRANCH   4  63
TORSDOF 17
ENDMDL
