MODEL 1
REMARK VINA RESULT:      -7.6      0.000      0.000
REMARK  Name = 
REMARK  5 active torsions:
REMARK  status: ('A' for Active; 'I' for Inactive)
REMARK    1  A    between atoms: O_1  and  C_16
REMARK    2  A    between atoms: O_3  and  C_25
REMARK    3  A    between atoms: C_11  and  C_22
REMARK    4  A    between atoms: C_16  and  C_28
REMARK    5  A    between atoms: C_29  and  C_31
REMARK                            x       y       z     vdW  Elec       q    Type
REMARK                         _______ _______ _______ _____ _____    ______ ____
ROOT
ATOM      1  O   UNL     1      64.542  56.701  60.946  0.00  0.00    +0.000 OA
ATOM      2  N   UNL     1      63.750  48.709  55.880  0.00  0.00    +0.000 NA
ATOM      3  C   UNL     1      63.972  51.174  58.830  0.00  0.00    +0.000 C 
ATOM      4  C   UNL     1      65.082  52.068  59.445  0.00  0.00    +0.000 C 
ATOM      5  C   UNL     1      62.951  53.146  59.732  0.00  0.00    +0.000 C 
ATOM      6  C   UNL     1      64.442  53.462  59.559  0.00  0.00    +0.000 C 
ATOM      7  C   UNL     1      64.413  50.438  57.550  0.00  0.00    +0.000 C 
ATOM      8  C   UNL     1      62.744  52.091  58.649  0.00  0.00    +0.000 C 
ATOM      9  C   UNL     1      62.070  54.424  59.733  0.00  0.00    +0.000 C 
ATOM     10  C   UNL     1      65.740  49.696  57.821  0.00  0.00    +0.000 C 
ATOM     11  C   UNL     1      66.366  52.082  58.622  0.00  0.00    +0.000 C 
ATOM     12  C   UNL     1      62.570  55.292  60.927  0.00  0.00    +0.000 C 
ATOM     13  C   UNL     1      66.852  50.679  58.268  0.00  0.00    +0.000 C 
ATOM     14  C   UNL     1      66.147  48.811  56.607  0.00  0.00    +0.000 C 
ATOM     15  C   UNL     1      64.967  54.351  60.677  0.00  0.00    +0.000 C 
ATOM     16  C   UNL     1      63.328  49.463  57.073  0.00  0.00    +0.000 C 
ATOM     17  C   UNL     1      64.953  47.880  56.175  0.00  0.00    +0.000 C 
ATOM     18  C   UNL     1      60.590  54.050  59.998  0.00  0.00    +0.000 C 
ATOM     19  C   UNL     1      64.070  55.573  60.818  0.00  0.00    +0.000 C 
ATOM     20  C   UNL     1      62.161  55.189  58.390  0.00  0.00    +0.000 C 
ATOM     21  C   UNL     1      61.725  56.549  61.132  0.00  0.00    +0.000 C 
ATOM     22  C   UNL     1      59.701  55.268  60.266  0.00  0.00    +0.000 C 
ATOM     23  C   UNL     1      60.258  56.178  61.362  0.00  0.00    +0.000 C 
ATOM     24  C   UNL     1      65.330  47.023  54.940  0.00  0.00    +0.000 C 
ATOM     25  C   UNL     1      62.616  47.880  55.427  0.00  0.00    +0.000 C 
ATOM     26  C   UNL     1      67.407  47.993  56.927  0.00  0.00    +0.000 C 
ATOM     27  C   UNL     1      62.930  47.084  54.157  0.00  0.00    +0.000 C 
ATOM     28  C   UNL     1      64.159  46.211  54.399  0.00  0.00    +0.000 C 
ATOM     29  C   UNL     1      63.104  47.997  52.940  0.00  0.00    +0.000 C 
ENDROOT
BRANCH  14  30
ATOM     30  O   UNL     1      66.466  49.682  55.509  0.00  0.00    +0.000 OA
ATOM     31  H   UNL     1      66.382  50.588  55.870  0.00  0.00    +0.000 HD
ENDBRANCH  14  30
BRANCH  23  32
ATOM     32  O   UNL     1      59.464  57.358  61.412  0.00  0.00    +0.000 OA
ATOM     33  H   UNL     1      59.302  57.568  62.348  0.00  0.00    +0.000 HD
ENDBRANCH  23  32
TORSDOF 2
ENDMDL
MODEL 2
REMARK VINA RESULT:      -7.2      9.078     11.078
REMARK  Name = 
REMARK  5 active torsions:
REMARK  status: ('A' for Active; 'I' for Inactive)
REMARK    1  A    between atoms: O_1  and  C_16
REMARK    2  A    between atoms: O_3  and  C_25
REMARK    3  A    between atoms: C_11  and  C_22
REMARK    4  A    between atoms: C_16  and  C_28
REMARK    5  A    between atoms: C_29  and  C_31
REMARK                            x       y       z     vdW  Elec       q    Type
REMARK                         _______ _______ _______ _____ _____    ______ ____
ROOT
ATOM      1  O   UNL     1      70.341  62.221  67.201  0.00  0.00    +0.000 OA
ATOM      2  N   UNL     1      71.225  53.510  63.527  0.00  0.00    +0.000 NA
ATOM      3  C   UNL     1      69.968  56.511  65.586  0.00  0.00    +0.000 C 
ATOM      4  C   UNL     1      70.514  57.343  66.778  0.00  0.00    +0.000 C 
ATOM      5  C   UNL     1      69.185  58.765  65.366  0.00  0.00    +0.000 C 
ATOM      6  C   UNL     1      70.380  58.807  66.327  0.00  0.00    +0.000 C 
ATOM      7  C   UNL     1      70.959  55.449  65.072  0.00  0.00    +0.000 C 
ATOM      8  C   UNL     1      69.523  57.539  64.524  0.00  0.00    +0.000 C 
ATOM      9  C   UNL     1      68.939  60.129  64.666  0.00  0.00    +0.000 C 
ATOM     10  C   UNL     1      71.453  54.596  66.260  0.00  0.00    +0.000 C 
ATOM     11  C   UNL     1      71.945  56.979  67.158  0.00  0.00    +0.000 C 
ATOM     12  C   UNL     1      68.668  61.157  65.806  0.00  0.00    +0.000 C 
ATOM     13  C   UNL     1      72.142  55.475  67.335  0.00  0.00    +0.000 C 
ATOM     14  C   UNL     1      72.337  53.411  65.771  0.00  0.00    +0.000 C 
ATOM     15  C   UNL     1      70.185  59.834  67.432  0.00  0.00    +0.000 C 
ATOM     16  C   UNL     1      70.312  54.567  63.996  0.00  0.00    +0.000 C 
ATOM     17  C   UNL     1      71.598  52.597  64.644  0.00  0.00    +0.000 C 
ATOM     18  C   UNL     1      67.672  60.051  63.778  0.00  0.00    +0.000 C 
ATOM     19  C   UNL     1      69.816  61.177  66.818  0.00  0.00    +0.000 C 
ATOM     20  C   UNL     1      70.142  60.552  63.786  0.00  0.00    +0.000 C 
ATOM     21  C   UNL     1      68.298  62.541  65.271  0.00  0.00    +0.000 C 
ATOM     22  C   UNL     1      67.218  61.418  63.257  0.00  0.00    +0.000 C 
ATOM     23  C   UNL     1      67.065  62.456  64.370  0.00  0.00    +0.000 C 
ATOM     24  C   UNL     1      72.482  51.438  64.118  0.00  0.00    +0.000 C 
ATOM     25  C   UNL     1      70.567  52.781  62.424  0.00  0.00    +0.000 C 
ATOM     26  C   UNL     1      72.732  52.505  66.947  0.00  0.00    +0.000 C 
ATOM     27  C   UNL     1      71.451  51.683  61.825  0.00  0.00    +0.000 C 
ATOM     28  C   UNL     1      71.866  50.711  62.928  0.00  0.00    +0.000 C 
ATOM     29  C   UNL     1      72.660  52.264  61.086  0.00  0.00    +0.000 C 
ENDROOT
BRANCH  14  30
ATOM     30  O   UNL     1      73.548  53.956  65.220  0.00  0.00    +0.000 OA
ATOM     31  H   UNL     1      74.082  53.177  64.963  0.00  0.00    +0.000 HD
ENDBRANCH  14  30
BRANCH  23  32
ATOM     32  O   UNL     1      66.817  63.722  63.771  0.00  0.00    +0.000 OA
ATOM     33  H   UNL     1      66.785  64.386  64.482  0.00  0.00    +0.000 HD
ENDBRANCH  23  32
TORSDOF 2
ENDMDL
MODEL 3
REMARK VINA RESULT:      -7.1      2.243      9.020
REMARK  Name = 
REMARK  5 active torsions:
REMARK  status: ('A' for Active; 'I' for Inactive)
REMARK    1  A    between atoms: O_1  and  C_16
REMARK    2  A    between atoms: O_3  and  C_25
REMARK    3  A    between atoms: C_11  and  C_22
REMARK    4  A    between atoms: C_16  and  C_28
REMARK    5  A    between atoms: C_29  and  C_31
REMARK                            x       y       z     vdW  Elec       q    Type
REMARK                         _______ _______ _______ _____ _____    ______ ____
ROOT
ATOM      1  O   UNL     1      63.803  47.308  53.775  0.00  0.00    +0.000 OA
ATOM      2  N   UNL     1      63.131  54.465  59.977  0.00  0.00    +0.000 NA
ATOM      3  C   UNL     1      63.015  50.952  58.405  0.00  0.00    +0.000 C 
ATOM      4  C   UNL     1      62.149  50.251  57.325  0.00  0.00    +0.000 C 
ATOM      5  C   UNL     1      64.374  49.341  57.265  0.00  0.00    +0.000 C 
ATOM      6  C   UNL     1      63.164  49.614  56.362  0.00  0.00    +0.000 C 
ATOM      7  C   UNL     1      62.687  52.447  58.582  0.00  0.00    +0.000 C 
ATOM      8  C   UNL     1      64.481  50.660  58.024  0.00  0.00    +0.000 C 
ATOM      9  C   UNL     1      65.599  48.814  56.471  0.00  0.00    +0.000 C 
ATOM     10  C   UNL     1      61.166  52.614  58.790  0.00  0.00    +0.000 C 
ATOM     11  C   UNL     1      61.188  51.199  56.616  0.00  0.00    +0.000 C 
ATOM     12  C   UNL     1      65.136  47.490  55.791  0.00  0.00    +0.000 C 
ATOM     13  C   UNL     1      60.368  52.042  57.590  0.00  0.00    +0.000 C 
ATOM     14  C   UNL     1      60.803  54.089  59.127  0.00  0.00    +0.000 C 
ATOM     15  C   UNL     1      62.704  48.359  55.635  0.00  0.00    +0.000 C 
ATOM     16  C   UNL     1      63.469  53.049  59.756  0.00  0.00    +0.000 C 
ATOM     17  C   UNL     1      61.688  54.619  60.316  0.00  0.00    +0.000 C 
ATOM     18  C   UNL     1      66.757  48.474  57.443  0.00  0.00    +0.000 C 
ATOM     19  C   UNL     1      63.891  47.716  54.931  0.00  0.00    +0.000 C 
ATOM     20  C   UNL     1      66.103  49.847  55.433  0.00  0.00    +0.000 C 
ATOM     21  C   UNL     1      66.271  46.783  55.051  0.00  0.00    +0.000 C 
ATOM     22  C   UNL     1      67.903  47.713  56.770  0.00  0.00    +0.000 C 
ATOM     23  C   UNL     1      67.426  46.477  56.006  0.00  0.00    +0.000 C 
ATOM     24  C   UNL     1      61.367  56.101  60.637  0.00  0.00    +0.000 C 
ATOM     25  C   UNL     1      64.001  54.992  61.047  0.00  0.00    +0.000 C 
ATOM     26  C   UNL     1      59.305  54.224  59.442  0.00  0.00    +0.000 C 
ATOM     27  C   UNL     1      63.766  56.479  61.329  0.00  0.00    +0.000 C 
ATOM     28  C   UNL     1      62.298  56.700  61.685  0.00  0.00    +0.000 C 
ATOM     29  C   UNL     1      64.213  57.358  60.158  0.00  0.00    +0.000 C 
ENDROOT
BRANCH  14  30
ATOM     30  O   UNL     1      61.073  54.891  57.965  0.00  0.00    +0.000 OA
ATOM     31  H   UNL     1      60.193  55.133  57.613  0.00  0.00    +0.000 HD
ENDBRANCH  14  30
BRANCH  23  32
ATOM     32  O   UNL     1      68.528  45.947  55.278  0.00  0.00    +0.000 OA
ATOM     33  H   UNL     1      68.175  45.490  54.495  0.00  0.00    +0.000 HD
ENDBRANCH  23  32
TORSDOF 2
ENDMDL
MODEL 4
REMARK VINA RESULT:      -6.9     10.181     14.043
REMARK  Name = 
REMARK  5 active torsions:
REMARK  status: ('A' for Active; 'I' for Inactive)
REMARK    1  A    between atoms: O_1  and  C_16
REMARK    2  A    between atoms: O_3  and  C_25
REMARK    3  A    between atoms: C_11  and  C_22
REMARK    4  A    between atoms: C_16  and  C_28
REMARK    5  A    between atoms: C_29  and  C_31
REMARK                            x       y       z     vdW  Elec       q    Type
REMARK                         _______ _______ _______ _____ _____    ______ ____
ROOT
ATOM      1  O   UNL     1      73.335  53.086  65.295  0.00  0.00    +0.000 OA
ATOM      2  N   UNL     1      68.697  61.358  64.818  0.00  0.00    +0.000 NA
ATOM      3  C   UNL     1      69.509  57.635  65.379  0.00  0.00    +0.000 C 
ATOM      4  C   UNL     1      69.849  56.427  64.466  0.00  0.00    +0.000 C 
ATOM      5  C   UNL     1      70.997  56.179  66.564  0.00  0.00    +0.000 C 
ATOM      6  C   UNL     1      71.123  55.821  65.078  0.00  0.00    +0.000 C 
ATOM      7  C   UNL     1      69.367  58.965  64.612  0.00  0.00    +0.000 C 
ATOM      8  C   UNL     1      70.587  57.646  66.483  0.00  0.00    +0.000 C 
ATOM      9  C   UNL     1      72.258  55.781  67.378  0.00  0.00    +0.000 C 
ATOM     10  C   UNL     1      68.388  58.772  63.434  0.00  0.00    +0.000 C 
ATOM     11  C   UNL     1      70.032  56.812  63.002  0.00  0.00    +0.000 C 
ATOM     12  C   UNL     1      72.409  54.238  67.215  0.00  0.00    +0.000 C 
ATOM     13  C   UNL     1      68.880  57.663  62.470  0.00  0.00    +0.000 C 
ATOM     14  C   UNL     1      68.091  60.123  62.722  0.00  0.00    +0.000 C 
ATOM     15  C   UNL     1      71.323  54.327  64.868  0.00  0.00    +0.000 C 
ATOM     16  C   UNL     1      68.891  60.089  65.541  0.00  0.00    +0.000 C 
ATOM     17  C   UNL     1      67.650  61.215  63.768  0.00  0.00    +0.000 C 
ATOM     18  C   UNL     1      72.039  56.086  68.882  0.00  0.00    +0.000 C 
ATOM     19  C   UNL     1      72.473  53.842  65.739  0.00  0.00    +0.000 C 
ATOM     20  C   UNL     1      73.521  56.536  66.893  0.00  0.00    +0.000 C 
ATOM     21  C   UNL     1      73.553  53.670  68.053  0.00  0.00    +0.000 C 
ATOM     22  C   UNL     1      73.127  55.492  69.780  0.00  0.00    +0.000 C 
ATOM     23  C   UNL     1      73.351  53.999  69.533  0.00  0.00    +0.000 C 
ATOM     24  C   UNL     1      67.392  62.579  63.078  0.00  0.00    +0.000 C 
ATOM     25  C   UNL     1      68.347  62.405  65.798  0.00  0.00    +0.000 C 
ATOM     26  C   UNL     1      67.033  59.941  61.624  0.00  0.00    +0.000 C 
ATOM     27  C   UNL     1      68.167  63.785  65.158  0.00  0.00    +0.000 C 
ATOM     28  C   UNL     1      67.100  63.701  64.068  0.00  0.00    +0.000 C 
ATOM     29  C   UNL     1      69.491  64.342  64.625  0.00  0.00    +0.000 C 
ENDROOT
BRANCH  14  30
ATOM     30  O   UNL     1      69.302  60.566  62.085  0.00  0.00    +0.000 OA
ATOM     31  H   UNL     1      69.500  61.433  62.491  0.00  0.00    +0.000 HD
ENDBRANCH  14  30
BRANCH  23  32
ATOM     32  O   UNL     1      74.489  53.586  70.280  0.00  0.00    +0.000 OA
ATOM     33  H   UNL     1      74.544  54.147  71.073  0.00  0.00    +0.000 HD
ENDBRANCH  23  32
TORSDOF 2
ENDMDL
MODEL 5
REMARK VINA RESULT:      -6.6     17.456     21.807
REMARK  Name = 
REMARK  5 active torsions:
REMARK  status: ('A' for Active; 'I' for Inactive)
REMARK    1  A    between atoms: O_1  and  C_16
REMARK    2  A    between atoms: O_3  and  C_25
REMARK    3  A    between atoms: C_11  and  C_22
REMARK    4  A    between atoms: C_16  and  C_28
REMARK    5  A    between atoms: C_29  and  C_31
REMARK                            x       y       z     vdW  Elec       q    Type
REMARK                         _______ _______ _______ _____ _____    ______ ____
ROOT
ATOM      1  O   UNL     1      64.832  73.533  65.779  0.00  0.00    +0.000 OA
ATOM      2  N   UNL     1      58.564  67.647  69.806  0.00  0.00    +0.000 NA
ATOM      3  C   UNL     1      61.865  69.332  68.760  0.00  0.00    +0.000 C 
ATOM      4  C   UNL     1      62.672  69.462  67.441  0.00  0.00    +0.000 C 
ATOM      5  C   UNL     1      62.998  71.443  68.764  0.00  0.00    +0.000 C 
ATOM      6  C   UNL     1      62.962  70.966  67.307  0.00  0.00    +0.000 C 
ATOM      7  C   UNL     1      60.515  68.609  68.587  0.00  0.00    +0.000 C 
ATOM      8  C   UNL     1      61.756  70.762  69.331  0.00  0.00    +0.000 C 
ATOM      9  C   UNL     1      63.144  72.984  68.880  0.00  0.00    +0.000 C 
ATOM     10  C   UNL     1      60.744  67.269  67.856  0.00  0.00    +0.000 C 
ATOM     11  C   UNL     1      61.937  68.900  66.229  0.00  0.00    +0.000 C 
ATOM     12  C   UNL     1      64.484  73.345  68.171  0.00  0.00    +0.000 C 
ATOM     13  C   UNL     1      61.400  67.491  66.469  0.00  0.00    +0.000 C 
ATOM     14  C   UNL     1      59.434  66.431  67.794  0.00  0.00    +0.000 C 
ATOM     15  C   UNL     1      64.231  71.340  66.555  0.00  0.00    +0.000 C 
ATOM     16  C   UNL     1      59.832  68.383  69.943  0.00  0.00    +0.000 C 
ATOM     17  C   UNL     1      58.796  66.293  69.227  0.00  0.00    +0.000 C 
ATOM     18  C   UNL     1      63.263  73.397  70.369  0.00  0.00    +0.000 C 
ATOM     19  C   UNL     1      64.506  72.827  66.731  0.00  0.00    +0.000 C 
ATOM     20  C   UNL     1      61.942  73.728  68.248  0.00  0.00    +0.000 C 
ATOM     21  C   UNL     1      64.831  74.829  68.293  0.00  0.00    +0.000 C 
ATOM     22  C   UNL     1      63.664  74.864  70.556  0.00  0.00    +0.000 C 
ATOM     23  C   UNL     1      64.916  75.241  69.764  0.00  0.00    +0.000 C 
ATOM     24  C   UNL     1      57.468  65.496  69.175  0.00  0.00    +0.000 C 
ATOM     25  C   UNL     1      57.924  67.568  71.134  0.00  0.00    +0.000 C 
ATOM     26  C   UNL     1      59.697  65.054  67.165  0.00  0.00    +0.000 C 
ATOM     27  C   UNL     1      56.567  66.859  71.101  0.00  0.00    +0.000 C 
ATOM     28  C   UNL     1      56.743  65.459  70.515  0.00  0.00    +0.000 C 
ATOM     29  C   UNL     1      55.516  67.673  70.340  0.00  0.00    +0.000 C 
ENDROOT
BRANCH  14  30
ATOM     30  O   UNL     1      58.503  67.122  66.945  0.00  0.00    +0.000 OA
ATOM     31  H   UNL     1      58.528  66.640  66.094  0.00  0.00    +0.000 HD
ENDBRANCH  14  30
BRANCH  23  32
ATOM     32  O   UNL     1      65.101  76.649  69.861  0.00  0.00    +0.000 OA
ATOM     33  H   UNL     1      64.807  77.046  69.023  0.00  0.00    +0.000 HD
ENDBRANCH  23  32
TORSDOF 2
ENDMDL
MODEL 6
REMARK VINA RESULT:      -6.6     26.445     30.901
REMARK  Name = 
REMARK  5 active torsions:
REMARK  status: ('A' for Active; 'I' for Inactive)
REMARK    1  A    between atoms: O_1  and  C_16
REMARK    2  A    between atoms: O_3  and  C_25
REMARK    3  A    between atoms: C_11  and  C_22
REMARK    4  A    between atoms: C_16  and  C_28
REMARK    5  A    between atoms: C_29  and  C_31
REMARK                            x       y       z     vdW  Elec       q    Type
REMARK                         _______ _______ _______ _____ _____    ______ ____
ROOT
ATOM      1  O   UNL     1      55.368  68.620  86.430  0.00  0.00    +0.000 OA
ATOM      2  N   UNL     1      55.310  59.275  84.747  0.00  0.00    +0.000 NA
ATOM      3  C   UNL     1      56.465  62.933  85.089  0.00  0.00    +0.000 C 
ATOM      4  C   UNL     1      56.170  64.261  84.342  0.00  0.00    +0.000 C 
ATOM      5  C   UNL     1      56.601  64.738  86.659  0.00  0.00    +0.000 C 
ATOM      6  C   UNL     1      55.813  65.263  85.452  0.00  0.00    +0.000 C 
ATOM      7  C   UNL     1      55.626  61.743  84.583  0.00  0.00    +0.000 C 
ATOM      8  C   UNL     1      56.290  63.246  86.590  0.00  0.00    +0.000 C 
ATOM      9  C   UNL     1      56.287  65.524  87.960  0.00  0.00    +0.000 C 
ATOM     10  C   UNL     1      55.758  61.643  83.048  0.00  0.00    +0.000 C 
ATOM     11  C   UNL     1      55.066  64.131  83.298  0.00  0.00    +0.000 C 
ATOM     12  C   UNL     1      56.680  67.005  87.674  0.00  0.00    +0.000 C 
ATOM     13  C   UNL     1      55.283  62.948  82.357  0.00  0.00    +0.000 C 
ATOM     14  C   UNL     1      55.054  60.365  82.505  0.00  0.00    +0.000 C 
ATOM     15  C   UNL     1      56.125  66.724  85.163  0.00  0.00    +0.000 C 
ATOM     16  C   UNL     1      56.063  60.435  85.256  0.00  0.00    +0.000 C 
ATOM     17  C   UNL     1      55.543  59.090  83.288  0.00  0.00    +0.000 C 
ATOM     18  C   UNL     1      57.174  65.008  89.121  0.00  0.00    +0.000 C 
ATOM     19  C   UNL     1      55.957  67.541  86.436  0.00  0.00    +0.000 C 
ATOM     20  C   UNL     1      54.799  65.394  88.369  0.00  0.00    +0.000 C 
ATOM     21  C   UNL     1      56.531  67.899  88.905  0.00  0.00    +0.000 C 
ATOM     22  C   UNL     1      57.109  65.896  90.367  0.00  0.00    +0.000 C 
ATOM     23  C   UNL     1      57.382  67.369  90.060  0.00  0.00    +0.000 C 
ATOM     24  C   UNL     1      54.820  57.814  82.786  0.00  0.00    +0.000 C 
ATOM     25  C   UNL     1      55.713  58.083  85.519  0.00  0.00    +0.000 C 
ATOM     26  C   UNL     1      55.284  60.216  80.994  0.00  0.00    +0.000 C 
ATOM     27  C   UNL     1      54.953  56.819  85.104  0.00  0.00    +0.000 C 
ATOM     28  C   UNL     1      55.156  56.576  83.610  0.00  0.00    +0.000 C 
ATOM     29  C   UNL     1      53.470  56.897  85.478  0.00  0.00    +0.000 C 
ENDROOT
BRANCH  14  30
ATOM     30  O   UNL     1      53.639  60.513  82.713  0.00  0.00    +0.000 OA
ATOM     31  H   UNL     1      53.515  60.438  83.681  0.00  0.00    +0.000 HD
ENDBRANCH  14  30
BRANCH  23  32
ATOM     32  O   UNL     1      57.127  68.127  91.237  0.00  0.00    +0.000 OA
ATOM     33  H   UNL     1      56.436  67.666  91.744  0.00  0.00    +0.000 HD
ENDBRANCH  23  32
TORSDOF 2
ENDMDL
MODEL 7
REMARK VINA RESULT:      -6.5     17.277     20.476
REMARK  Name = 
REMARK  5 active torsions:
REMARK  status: ('A' for Active; 'I' for Inactive)
REMARK    1  A    between atoms: O_1  and  C_16
REMARK    2  A    between atoms: O_3  and  C_25
REMARK    3  A    between atoms: C_11  and  C_22
REMARK    4  A    between atoms: C_16  and  C_28
REMARK    5  A    between atoms: C_29  and  C_31
REMARK                            x       y       z     vdW  Elec       q    Type
REMARK                         _______ _______ _______ _____ _____    ______ ____
ROOT
ATOM      1  O   UNL     1      66.273  70.218  63.862  0.00  0.00    +0.000 OA
ATOM      2  N   UNL     1      59.204  67.563  69.619  0.00  0.00    +0.000 NA
ATOM      3  C   UNL     1      62.621  67.753  67.853  0.00  0.00    +0.000 C 
ATOM      4  C   UNL     1      63.147  67.449  66.425  0.00  0.00    +0.000 C 
ATOM      5  C   UNL     1      64.421  69.257  67.368  0.00  0.00    +0.000 C 
ATOM      6  C   UNL     1      63.932  68.708  66.022  0.00  0.00    +0.000 C 
ATOM      7  C   UNL     1      61.095  67.593  67.993  0.00  0.00    +0.000 C 
ATOM      8  C   UNL     1      63.152  69.157  68.209  0.00  0.00    +0.000 C 
ATOM      9  C   UNL     1      65.137  70.627  67.225  0.00  0.00    +0.000 C 
ATOM     10  C   UNL     1      60.675  66.210  67.450  0.00  0.00    +0.000 C 
ATOM     11  C   UNL     1      62.038  67.112  65.435  0.00  0.00    +0.000 C 
ATOM     12  C   UNL     1      66.352  70.383  66.279  0.00  0.00    +0.000 C 
ATOM     13  C   UNL     1      61.083  66.044  65.963  0.00  0.00    +0.000 C 
ATOM     14  C   UNL     1      59.164  65.939  67.710  0.00  0.00    +0.000 C 
ATOM     15  C   UNL     1      65.078  68.500  65.043  0.00  0.00    +0.000 C 
ATOM     16  C   UNL     1      60.654  67.764  69.453  0.00  0.00    +0.000 C 
ATOM     17  C   UNL     1      58.812  66.180  69.225  0.00  0.00    +0.000 C 
ATOM     18  C   UNL     1      65.685  71.088  68.600  0.00  0.00    +0.000 C 
ATOM     19  C   UNL     1      65.903  69.776  64.948  0.00  0.00    +0.000 C 
ATOM     20  C   UNL     1      64.189  71.720  66.671  0.00  0.00    +0.000 C 
ATOM     21  C   UNL     1      67.230  71.624  66.121  0.00  0.00    +0.000 C 
ATOM     22  C   UNL     1      66.619  72.298  68.499  0.00  0.00    +0.000 C 
ATOM     23  C   UNL     1      67.743  72.095  67.483  0.00  0.00    +0.000 C 
ATOM     24  C   UNL     1      57.302  65.954  69.492  0.00  0.00    +0.000 C 
ATOM     25  C   UNL     1      58.851  67.850  71.023  0.00  0.00    +0.000 C 
ATOM     26  C   UNL     1      58.782  64.519  67.266  0.00  0.00    +0.000 C 
ATOM     27  C   UNL     1      57.350  67.717  71.299  0.00  0.00    +0.000 C 
ATOM     28  C   UNL     1      56.887  66.314  70.914  0.00  0.00    +0.000 C 
ATOM     29  C   UNL     1      56.541  68.805  70.587  0.00  0.00    +0.000 C 
ENDROOT
BRANCH  14  30
ATOM     30  O   UNL     1      58.402  66.860  66.912  0.00  0.00    +0.000 OA
ATOM     31  H   UNL     1      58.320  66.431  66.037  0.00  0.00    +0.000 HD
ENDBRANCH  14  30
BRANCH  23  32
ATOM     32  O   UNL     1      68.442  73.326  67.336  0.00  0.00    +0.000 OA
ATOM     33  H   UNL     1      68.984  73.458  68.133  0.00  0.00    +0.000 HD
ENDBRANCH  23  32
TORSDOF 2
ENDMDL
MODEL 8
REMARK VINA RESULT:      -6.5     14.814     18.956
REMARK  Name = 
REMARK  5 active torsions:
REMARK  status: ('A' for Active; 'I' for Inactive)
REMARK    1  A    between atoms: O_1  and  C_16
REMARK    2  A    between atoms: O_3  and  C_25
REMARK    3  A    between atoms: C_11  and  C_22
REMARK    4  A    between atoms: C_16  and  C_28
REMARK    5  A    between atoms: C_29  and  C_31
REMARK                            x       y       z     vdW  Elec       q    Type
REMARK                         _______ _______ _______ _____ _____    ______ ____
ROOT
ATOM      1  O   UNL     1      51.277  62.566  66.883  0.00  0.00    +0.000 OA
ATOM      2  N   UNL     1      59.734  66.821  67.612  0.00  0.00    +0.000 NA
ATOM      3  C   UNL     1      56.844  64.309  68.025  0.00  0.00    +0.000 C 
ATOM      4  C   UNL     1      55.462  64.319  68.731  0.00  0.00    +0.000 C 
ATOM      5  C   UNL     1      55.339  62.931  66.771  0.00  0.00    +0.000 C 
ATOM      6  C   UNL     1      54.473  63.834  67.658  0.00  0.00    +0.000 C 
ATOM      7  C   UNL     1      57.579  65.662  68.093  0.00  0.00    +0.000 C 
ATOM      8  C   UNL     1      56.584  63.795  66.594  0.00  0.00    +0.000 C 
ATOM      9  C   UNL     1      54.576  62.424  65.517  0.00  0.00    +0.000 C 
ATOM     10  C   UNL     1      57.625  66.144  69.560  0.00  0.00    +0.000 C 
ATOM     11  C   UNL     1      55.085  65.684  69.297  0.00  0.00    +0.000 C 
ATOM     12  C   UNL     1      53.350  61.624  66.052  0.00  0.00    +0.000 C 
ATOM     13  C   UNL     1      56.198  66.294  70.146  0.00  0.00    +0.000 C 
ATOM     14  C   UNL     1      58.491  67.430  69.702  0.00  0.00    +0.000 C 
ATOM     15  C   UNL     1      53.234  63.111  68.166  0.00  0.00    +0.000 C 
ATOM     16  C   UNL     1      58.994  65.552  67.509  0.00  0.00    +0.000 C 
ATOM     17  C   UNL     1      59.903  67.223  69.037  0.00  0.00    +0.000 C 
ATOM     18  C   UNL     1      55.469  61.450  64.708  0.00  0.00    +0.000 C 
ATOM     19  C   UNL     1      52.498  62.479  66.993  0.00  0.00    +0.000 C 
ATOM     20  C   UNL     1      54.141  63.590  64.594  0.00  0.00    +0.000 C 
ATOM     21  C   UNL     1      52.548  60.962  64.932  0.00  0.00    +0.000 C 
ATOM     22  C   UNL     1      54.706  60.713  63.603  0.00  0.00    +0.000 C 
ATOM     23  C   UNL     1      53.440  60.025  64.115  0.00  0.00    +0.000 C 
ATOM     24  C   UNL     1      60.762  68.509  69.134  0.00  0.00    +0.000 C 
ATOM     25  C   UNL     1      61.035  66.659  66.934  0.00  0.00    +0.000 C 
ATOM     26  C   UNL     1      58.622  67.838  71.177  0.00  0.00    +0.000 C 
ATOM     27  C   UNL     1      61.874  67.941  66.939  0.00  0.00    +0.000 C 
ATOM     28  C   UNL     1      62.082  68.402  68.380  0.00  0.00    +0.000 C 
ATOM     29  C   UNL     1      61.248  69.035  66.069  0.00  0.00    +0.000 C 
ENDROOT
BRANCH  14  30
ATOM     30  O   UNL     1      57.817  68.499  69.017  0.00  0.00    +0.000 OA
ATOM     31  H   UNL     1      57.649  68.157  68.116  0.00  0.00    +0.000 HD
ENDBRANCH  14  30
BRANCH  23  32
ATOM     32  O   UNL     1      52.718  59.525  62.995  0.00  0.00    +0.000 OA
ATOM     33  H   UNL     1      52.294  60.281  62.553  0.00  0.00    +0.000 HD
ENDBRANCH  23  32
TORSDOF 2
ENDMDL
MODEL 9
REMARK VINA RESULT:      -6.4     15.064     18.822
REMARK  Name = 
REMARK  5 active torsions:
REMARK  status: ('A' for Active; 'I' for Inactive)
REMARK    1  A    between atoms: O_1  and  C_16
REMARK    2  A    between atoms: O_3  and  C_25
REMARK    3  A    between atoms: C_11  and  C_22
REMARK    4  A    between atoms: C_16  and  C_28
REMARK    5  A    between atoms: C_29  and  C_31
REMARK                            x       y       z     vdW  Elec       q    Type
REMARK                         _______ _______ _______ _____ _____    ______ ____
ROOT
ATOM      1  O   UNL     1      59.716  71.219  68.524  0.00  0.00    +0.000 OA
ATOM      2  N   UNL     1      67.053  66.023  65.468  0.00  0.00    +0.000 NA
ATOM      3  C   UNL     1      64.715  68.105  67.711  0.00  0.00    +0.000 C 
ATOM      4  C   UNL     1      64.277  69.592  67.774  0.00  0.00    +0.000 C 
ATOM      5  C   UNL     1      62.464  68.203  68.525  0.00  0.00    +0.000 C 
ATOM      6  C   UNL     1      62.741  69.545  67.836  0.00  0.00    +0.000 C 
ATOM      7  C   UNL     1      65.623  67.781  66.509  0.00  0.00    +0.000 C 
ATOM      8  C   UNL     1      63.413  67.279  67.769  0.00  0.00    +0.000 C 
ATOM      9  C   UNL     1      60.950  67.866  68.579  0.00  0.00    +0.000 C 
ATOM     10  C   UNL     1      66.797  68.784  66.472  0.00  0.00    +0.000 C 
ATOM     11  C   UNL     1      64.786  70.419  66.598  0.00  0.00    +0.000 C 
ATOM     12  C   UNL     1      60.278  69.022  69.380  0.00  0.00    +0.000 C 
ATOM     13  C   UNL     1      66.285  70.243  66.362  0.00  0.00    +0.000 C 
ATOM     14  C   UNL     1      67.826  68.405  65.368  0.00  0.00    +0.000 C 
ATOM     15  C   UNL     1      62.063  70.703  68.554  0.00  0.00    +0.000 C 
ATOM     16  C   UNL     1      66.139  66.338  66.580  0.00  0.00    +0.000 C 
ATOM     17  C   UNL     1      68.258  66.898  65.508  0.00  0.00    +0.000 C 
ATOM     18  C   UNL     1      60.725  66.547  69.361  0.00  0.00    +0.000 C 
ATOM     19  C   UNL     1      60.588  70.383  68.753  0.00  0.00    +0.000 C 
ATOM     20  C   UNL     1      60.339  67.719  67.163  0.00  0.00    +0.000 C 
ATOM     21  C   UNL     1      58.787  68.782  69.616  0.00  0.00    +0.000 C 
ATOM     22  C   UNL     1      59.250  66.279  69.677  0.00  0.00    +0.000 C 
ATOM     23  C   UNL     1      58.566  67.464  70.360  0.00  0.00    +0.000 C 
ATOM     24  C   UNL     1      69.253  66.494  64.390  0.00  0.00    +0.000 C 
ATOM     25  C   UNL     1      67.414  64.594  65.552  0.00  0.00    +0.000 C 
ATOM     26  C   UNL     1      69.043  69.342  65.413  0.00  0.00    +0.000 C 
ATOM     27  C   UNL     1      68.329  64.143  64.410  0.00  0.00    +0.000 C 
ATOM     28  C   UNL     1      69.589  65.007  64.401  0.00  0.00    +0.000 C 
ATOM     29  C   UNL     1      67.608  64.163  63.059  0.00  0.00    +0.000 C 
ENDROOT
BRANCH  14  30
ATOM     30  O   UNL     1      67.193  68.581  64.089  0.00  0.00    +0.000 OA
ATOM     31  H   UNL     1      67.760  68.095  63.457  0.00  0.00    +0.000 HD
ENDBRANCH  14  30
BRANCH  23  32
ATOM     32  O   UNL     1      57.173  67.187  70.450  0.00  0.00    +0.000 OA
ATOM     33  H   UNL     1      56.974  66.460  69.834  0.00  0.00    +0.000 HD
ENDBRANCH  23  32
TORSDOF 2
ENDMDL
