MODEL 1
REMARK VINA RESULT:      -5.2      0.000      0.000
REMARK  Name = PhIP.pdbqt.pdb
REMARK  2 active torsions:
REMARK  status: ('A' for Active; 'I' for Inactive)
REMARK    1  A    between atoms: N_4  and  C_9
REMARK    2  A    between atoms: C_7  and  C_10
REMARK                            x       y       z     vdW  Elec       q    Type
REMARK                         _______ _______ _______ _____ _____    ______ ____
ROOT
ATOM      1  N   UNL     1      72.939  45.528  67.599  0.00  0.00    +0.000 N 
ATOM      2  N   UNL     1      71.280  44.808  69.150  0.00  0.00    +0.000 NA
ATOM      3  N   UNL     1      70.226  43.166  67.707  0.00  0.00    +0.000 NA
ATOM      4  C   UNL     1      72.235  44.536  66.987  0.00  0.00    +0.000 C 
ATOM      5  C   UNL     1      71.189  44.128  68.035  0.00  0.00    +0.000 C 
ATOM      6  C   UNL     1      71.041  43.168  65.364  0.00  0.00    +0.000 C 
ATOM      7  C   UNL     1      72.050  44.092  65.781  0.00  0.00    +0.000 C 
ATOM      8  C   UNL     1      72.325  45.666  68.846  0.00  0.00    +0.000 C 
ATOM      9  C   UNL     1      73.490  46.658  66.871  0.00  0.00    +0.000 C 
ATOM     10  C   UNL     1      70.294  42.896  66.561  0.00  0.00    +0.000 C 
ENDROOT
BRANCH   6  11
ATOM     11  C   UNL     1      70.861  42.578  64.052  0.00  0.00    +0.000 A 
ATOM     12  C   UNL     1      70.982  41.199  63.870  0.00  0.00    +0.000 A 
ATOM     13  C   UNL     1      70.560  43.377  62.947  0.00  0.00    +0.000 A 
ATOM     14  C   UNL     1      70.809  40.629  62.609  0.00  0.00    +0.000 A 
ATOM     15  C   UNL     1      70.387  42.813  61.685  0.00  0.00    +0.000 A 
ATOM     16  C   UNL     1      70.512  41.436  61.517  0.00  0.00    +0.000 A 
ENDBRANCH   6  11
BRANCH   8  17
ATOM     17  N   UNL     1      72.616  46.670  69.785  0.00  0.00    +0.000 NA
ATOM     18  H   UNL     1      71.897  47.381  69.854  0.00  0.00    +0.000 HD
ATOM     19  H   UNL     1      72.915  46.297  70.678  0.00  0.00    +0.000 HD
ENDBRANCH   8  17
TORSDOF 2
ENDMDL
MODEL 2
REMARK VINA RESULT:      -5.1     15.317     16.231
REMARK  Name = PhIP.pdbqt.pdb
REMARK  2 active torsions:
REMARK  status: ('A' for Active; 'I' for Inactive)
REMARK    1  A    between atoms: N_4  and  C_9
REMARK    2  A    between atoms: C_7  and  C_10
REMARK                            x       y       z     vdW  Elec       q    Type
REMARK                         _______ _______ _______ _____ _____    ______ ____
ROOT
ATOM      1  N   UNL     1      61.598  57.222  59.004  0.00  0.00    +0.000 N 
ATOM      2  N   UNL     1      59.275  56.789  59.306  0.00  0.00    +0.000 NA
ATOM      3  N   UNL     1      59.469  54.399  59.681  0.00  0.00    +0.000 NA
ATOM      4  C   UNL     1      61.479  55.894  59.283  0.00  0.00    +0.000 C 
ATOM      5  C   UNL     1      59.967  55.690  59.458  0.00  0.00    +0.000 C 
ATOM      6  C   UNL     1      61.739  53.473  59.309  0.00  0.00    +0.000 C 
ATOM      7  C   UNL     1      62.200  54.820  59.169  0.00  0.00    +0.000 C 
ATOM      8  C   UNL     1      60.282  57.691  59.003  0.00  0.00    +0.000 C 
ATOM      9  C   UNL     1      62.614  57.743  58.106  0.00  0.00    +0.000 C 
ATOM     10  C   UNL     1      60.332  53.604  59.564  0.00  0.00    +0.000 C 
ENDROOT
BRANCH   6  11
ATOM     11  C   UNL     1      62.527  52.255  59.282  0.00  0.00    +0.000 A 
ATOM     12  C   UNL     1      63.922  52.311  59.254  0.00  0.00    +0.000 A 
ATOM     13  C   UNL     1      61.904  51.005  59.285  0.00  0.00    +0.000 A 
ATOM     14  C   UNL     1      64.681  51.142  59.228  0.00  0.00    +0.000 A 
ATOM     15  C   UNL     1      62.658  49.833  59.258  0.00  0.00    +0.000 A 
ATOM     16  C   UNL     1      64.048  49.903  59.230  0.00  0.00    +0.000 A 
ENDBRANCH   6  11
BRANCH   8  17
ATOM     17  N   UNL     1      59.884  58.984  58.625  0.00  0.00    +0.000 NA
ATOM     18  H   UNL     1      60.493  59.409  57.933  0.00  0.00    +0.000 HD
ATOM     19  H   UNL     1      58.899  59.042  58.399  0.00  0.00    +0.000 HD
ENDBRANCH   8  17
TORSDOF 2
ENDMDL
MODEL 3
REMARK VINA RESULT:      -5.1     23.492     25.338
REMARK  Name = PhIP.pdbqt.pdb
REMARK  2 active torsions:
REMARK  status: ('A' for Active; 'I' for Inactive)
REMARK    1  A    between atoms: N_4  and  C_9
REMARK    2  A    between atoms: C_7  and  C_10
REMARK                            x       y       z     vdW  Elec       q    Type
REMARK                         _______ _______ _______ _____ _____    ______ ____
ROOT
ATOM      1  N   UNL     1      58.106  47.435  86.222  0.00  0.00    +0.000 N 
ATOM      2  N   UNL     1      57.553  47.692  83.919  0.00  0.00    +0.000 NA
ATOM      3  N   UNL     1      58.323  49.982  83.687  0.00  0.00    +0.000 NA
ATOM      4  C   UNL     1      58.510  48.684  85.857  0.00  0.00    +0.000 C 
ATOM      5  C   UNL     1      58.120  48.779  84.375  0.00  0.00    +0.000 C 
ATOM      6  C   UNL     1      58.992  51.070  85.813  0.00  0.00    +0.000 C 
ATOM      7  C   UNL     1      58.842  49.795  86.442  0.00  0.00    +0.000 C 
ATOM      8  C   UNL     1      57.530  46.910  85.062  0.00  0.00    +0.000 C 
ATOM      9  C   UNL     1      57.600  47.135  87.550  0.00  0.00    +0.000 C 
ATOM     10  C   UNL     1      58.665  50.827  84.435  0.00  0.00    +0.000 C 
ENDROOT
BRANCH   6  11
ATOM     11  C   UNL     1      59.450  52.310  86.410  0.00  0.00    +0.000 A 
ATOM     12  C   UNL     1      58.652  52.993  87.331  0.00  0.00    +0.000 A 
ATOM     13  C   UNL     1      60.697  52.843  86.077  0.00  0.00    +0.000 A 
ATOM     14  C   UNL     1      59.089  54.185  87.907  0.00  0.00    +0.000 A 
ATOM     15  C   UNL     1      61.139  54.034  86.650  0.00  0.00    +0.000 A 
ATOM     16  C   UNL     1      60.333  54.705  87.565  0.00  0.00    +0.000 A 
ENDBRANCH   6  11
BRANCH   8  17
ATOM     17  N   UNL     1      56.841  45.688  84.983  0.00  0.00    +0.000 NA
ATOM     18  H   UNL     1      56.507  45.472  84.049  0.00  0.00    +0.000 HD
ATOM     19  H   UNL     1      57.336  44.928  85.430  0.00  0.00    +0.000 HD
ENDBRANCH   8  17
TORSDOF 2
ENDMDL
MODEL 4
REMARK VINA RESULT:      -5.0     21.692     23.595
REMARK  Name = PhIP.pdbqt.pdb
REMARK  2 active torsions:
REMARK  status: ('A' for Active; 'I' for Inactive)
REMARK    1  A    between atoms: N_4  and  C_9
REMARK    2  A    between atoms: C_7  and  C_10
REMARK                            x       y       z     vdW  Elec       q    Type
REMARK                         _______ _______ _______ _____ _____    ______ ____
ROOT
ATOM      1  N   UNL     1      47.267  36.035  62.611  0.00  0.00    +0.000 N 
ATOM      2  N   UNL     1      48.611  35.750  64.558  0.00  0.00    +0.000 NA
ATOM      3  N   UNL     1      50.765  35.844  63.443  0.00  0.00    +0.000 NA
ATOM      4  C   UNL     1      48.566  36.104  62.206  0.00  0.00    +0.000 C 
ATOM      5  C   UNL     1      49.366  35.908  63.501  0.00  0.00    +0.000 C 
ATOM      6  C   UNL     1      50.649  35.872  60.965  0.00  0.00    +0.000 C 
ATOM      7  C   UNL     1      49.231  36.015  61.094  0.00  0.00    +0.000 C 
ATOM      8  C   UNL     1      47.350  35.800  63.986  0.00  0.00    +0.000 C 
ATOM      9  C   UNL     1      46.220  35.463  61.783  0.00  0.00    +0.000 C 
ATOM     10  C   UNL     1      51.124  35.820  62.320  0.00  0.00    +0.000 C 
ENDROOT
BRANCH   6  11
ATOM     11  C   UNL     1      51.436  35.863  59.747  0.00  0.00    +0.000 A 
ATOM     12  C   UNL     1      52.580  35.068  59.646  0.00  0.00    +0.000 A 
ATOM     13  C   UNL     1      51.063  36.646  58.653  0.00  0.00    +0.000 A 
ATOM     14  C   UNL     1      53.338  35.057  58.476  0.00  0.00    +0.000 A 
ATOM     15  C   UNL     1      51.818  36.639  57.481  0.00  0.00    +0.000 A 
ATOM     16  C   UNL     1      52.957  35.844  57.394  0.00  0.00    +0.000 A 
ENDBRANCH   6  11
BRANCH   8  17
ATOM     17  N   UNL     1      46.260  35.515  64.825  0.00  0.00    +0.000 NA
ATOM     18  H   UNL     1      45.917  36.324  65.332  0.00  0.00    +0.000 HD
ATOM     19  H   UNL     1      45.536  34.980  64.362  0.00  0.00    +0.000 HD
ENDBRANCH   8  17
TORSDOF 2
ENDMDL
MODEL 5
REMARK VINA RESULT:      -4.9      9.195     11.144
REMARK  Name = PhIP.pdbqt.pdb
REMARK  2 active torsions:
REMARK  status: ('A' for Active; 'I' for Inactive)
REMARK    1  A    between atoms: N_4  and  C_9
REMARK    2  A    between atoms: C_7  and  C_10
REMARK                            x       y       z     vdW  Elec       q    Type
REMARK                         _______ _______ _______ _____ _____    ______ ____
ROOT
ATOM      1  N   UNL     1      60.798  38.054  71.202  0.00  0.00    +0.000 N 
ATOM      2  N   UNL     1      59.882  40.156  70.555  0.00  0.00    +0.000 NA
ATOM      3  N   UNL     1      61.730  40.857  69.146  0.00  0.00    +0.000 NA
ATOM      4  C   UNL     1      61.686  38.620  70.339  0.00  0.00    +0.000 C 
ATOM      5  C   UNL     1      61.038  39.963  69.972  0.00  0.00    +0.000 C 
ATOM      6  C   UNL     1      63.718  39.377  69.230  0.00  0.00    +0.000 C 
ATOM      7  C   UNL     1      62.932  38.468  70.006  0.00  0.00    +0.000 C 
ATOM      8  C   UNL     1      59.778  39.002  71.315  0.00  0.00    +0.000 C 
ATOM      9  C   UNL     1      61.214  37.219  72.316  0.00  0.00    +0.000 C 
ATOM     10  C   UNL     1      62.827  40.469  68.954  0.00  0.00    +0.000 C 
ENDROOT
BRANCH   6  11
ATOM     11  C   UNL     1      65.078  39.200  68.759  0.00  0.00    +0.000 A 
ATOM     12  C   UNL     1      65.444  38.052  68.053  0.00  0.00    +0.000 A 
ATOM     13  C   UNL     1      66.047  40.176  69.002  0.00  0.00    +0.000 A 
ATOM     14  C   UNL     1      66.751  37.881  67.600  0.00  0.00    +0.000 A 
ATOM     15  C   UNL     1      67.356  40.010  68.552  0.00  0.00    +0.000 A 
ATOM     16  C   UNL     1      67.706  38.860  67.850  0.00  0.00    +0.000 A 
ENDBRANCH   6  11
BRANCH   8  17
ATOM     17  N   UNL     1      58.697  38.927  72.210  0.00  0.00    +0.000 NA
ATOM     18  H   UNL     1      58.273  39.826  72.409  0.00  0.00    +0.000 HD
ATOM     19  H   UNL     1      58.034  38.203  71.965  0.00  0.00    +0.000 HD
ENDBRANCH   8  17
TORSDOF 2
ENDMDL
MODEL 6
REMARK VINA RESULT:      -4.9     11.919     14.696
REMARK  Name = PhIP.pdbqt.pdb
REMARK  2 active torsions:
REMARK  status: ('A' for Active; 'I' for Inactive)
REMARK    1  A    between atoms: N_4  and  C_9
REMARK    2  A    between atoms: C_7  and  C_10
REMARK                            x       y       z     vdW  Elec       q    Type
REMARK                         _______ _______ _______ _____ _____    ______ ____
ROOT
ATOM      1  N   UNL     1      70.301  54.735  63.630  0.00  0.00    +0.000 N 
ATOM      2  N   UNL     1      70.992  54.030  65.798  0.00  0.00    +0.000 NA
ATOM      3  N   UNL     1      70.368  56.057  66.977  0.00  0.00    +0.000 NA
ATOM      4  C   UNL     1      69.989  55.745  64.489  0.00  0.00    +0.000 C 
ATOM      5  C   UNL     1      70.464  55.226  65.854  0.00  0.00    +0.000 C 
ATOM      6  C   UNL     1      69.647  57.927  65.515  0.00  0.00    +0.000 C 
ATOM      7  C   UNL     1      69.690  57.007  64.421  0.00  0.00    +0.000 C 
ATOM      8  C   UNL     1      70.908  53.772  64.439  0.00  0.00    +0.000 C 
ATOM      9  C   UNL     1      70.716  54.977  62.259  0.00  0.00    +0.000 C 
ATOM     10  C   UNL     1      70.035  57.142  66.654  0.00  0.00    +0.000 C 
ENDROOT
BRANCH   6  11
ATOM     11  C   UNL     1      69.230  59.316  65.495  0.00  0.00    +0.000 A 
ATOM     12  C   UNL     1      68.407  59.797  64.475  0.00  0.00    +0.000 A 
ATOM     13  C   UNL     1      69.642  60.197  66.497  0.00  0.00    +0.000 A 
ATOM     14  C   UNL     1      68.004  61.131  64.453  0.00  0.00    +0.000 A 
ATOM     15  C   UNL     1      69.242  61.532  66.480  0.00  0.00    +0.000 A 
ATOM     16  C   UNL     1      68.422  61.999  65.457  0.00  0.00    +0.000 A 
ENDBRANCH   6  11
BRANCH   8  17
ATOM     17  N   UNL     1      71.529  52.600  63.976  0.00  0.00    +0.000 NA
ATOM     18  H   UNL     1      72.411  52.401  64.435  0.00  0.00    +0.000 HD
ATOM     19  H   UNL     1      70.897  51.810  63.935  0.00  0.00    +0.000 HD
ENDBRANCH   8  17
TORSDOF 2
ENDMDL
MODEL 7
REMARK VINA RESULT:      -4.9     10.150     11.502
REMARK  Name = PhIP.pdbqt.pdb
REMARK  2 active torsions:
REMARK  status: ('A' for Active; 'I' for Inactive)
REMARK    1  A    between atoms: N_4  and  C_9
REMARK    2  A    between atoms: C_7  and  C_10
REMARK                            x       y       z     vdW  Elec       q    Type
REMARK                         _______ _______ _______ _____ _____    ______ ____
ROOT
ATOM      1  N   UNL     1      64.005  38.945  68.712  0.00  0.00    +0.000 N 
ATOM      2  N   UNL     1      62.544  40.825  68.619  0.00  0.00    +0.000 NA
ATOM      3  N   UNL     1      60.706  39.712  67.490  0.00  0.00    +0.000 NA
ATOM      4  C   UNL     1      62.848  38.516  68.133  0.00  0.00    +0.000 C 
ATOM      5  C   UNL     1      61.965  39.771  68.102  0.00  0.00    +0.000 C 
ATOM      6  C   UNL     1      61.210  37.412  66.709  0.00  0.00    +0.000 C 
ATOM      7  C   UNL     1      62.448  37.507  67.420  0.00  0.00    +0.000 C 
ATOM      8  C   UNL     1      63.784  40.303  68.950  0.00  0.00    +0.000 C 
ATOM      9  C   UNL     1      65.306  38.419  68.339  0.00  0.00    +0.000 C 
ATOM     10  C   UNL     1      60.567  38.674  66.946  0.00  0.00    +0.000 C 
ENDROOT
BRANCH   6  11
ATOM     11  C   UNL     1      60.687  36.272  65.981  0.00  0.00    +0.000 A 
ATOM     12  C   UNL     1      61.486  35.151  65.744  0.00  0.00    +0.000 A 
ATOM     13  C   UNL     1      59.374  36.274  65.505  0.00  0.00    +0.000 A 
ATOM     14  C   UNL     1      60.985  34.054  65.045  0.00  0.00    +0.000 A 
ATOM     15  C   UNL     1      58.868  35.180  64.805  0.00  0.00    +0.000 A 
ATOM     16  C   UNL     1      59.676  34.069  64.575  0.00  0.00    +0.000 A 
ENDBRANCH   6  11
BRANCH   8  17
ATOM     17  N   UNL     1      64.752  41.212  69.412  0.00  0.00    +0.000 NA
ATOM     18  H   UNL     1      65.700  40.955  69.160  0.00  0.00    +0.000 HD
ATOM     19  H   UNL     1      64.517  42.175  69.207  0.00  0.00    +0.000 HD
ENDBRANCH   8  17
TORSDOF 2
ENDMDL
MODEL 8
REMARK VINA RESULT:      -4.9     14.881     17.181
REMARK  Name = PhIP.pdbqt.pdb
REMARK  2 active torsions:
REMARK  status: ('A' for Active; 'I' for Inactive)
REMARK    1  A    between atoms: N_4  and  C_9
REMARK    2  A    between atoms: C_7  and  C_10
REMARK                            x       y       z     vdW  Elec       q    Type
REMARK                         _______ _______ _______ _____ _____    ______ ____
ROOT
ATOM      1  N   UNL     1      69.970  63.269  65.512  0.00  0.00    +0.000 N 
ATOM      2  N   UNL     1      68.031  63.379  64.132  0.00  0.00    +0.000 NA
ATOM      3  N   UNL     1      67.538  61.003  64.130  0.00  0.00    +0.000 NA
ATOM      4  C   UNL     1      69.485  61.999  65.413  0.00  0.00    +0.000 C 
ATOM      5  C   UNL     1      68.250  62.147  64.512  0.00  0.00    +0.000 C 
ATOM      6  C   UNL     1      69.271  59.584  65.194  0.00  0.00    +0.000 C 
ATOM      7  C   UNL     1      69.910  60.790  65.621  0.00  0.00    +0.000 C 
ATOM      8  C   UNL     1      69.102  64.029  64.724  0.00  0.00    +0.000 C 
ATOM      9  C   UNL     1      71.390  63.557  65.609  0.00  0.00    +0.000 C 
ATOM     10  C   UNL     1      68.110  60.032  64.477  0.00  0.00    +0.000 C 
ENDROOT
BRANCH   6  11
ATOM     11  C   UNL     1      69.662  58.218  65.485  0.00  0.00    +0.000 A 
ATOM     12  C   UNL     1      70.049  57.849  66.775  0.00  0.00    +0.000 A 
ATOM     13  C   UNL     1      69.656  57.247  64.482  0.00  0.00    +0.000 A 
ATOM     14  C   UNL     1      70.425  56.536  67.058  0.00  0.00    +0.000 A 
ATOM     15  C   UNL     1      70.032  55.933  64.759  0.00  0.00    +0.000 A 
ATOM     16  C   UNL     1      70.416  55.579  66.049  0.00  0.00    +0.000 A 
ENDBRANCH   6  11
BRANCH   8  17
ATOM     17  N   UNL     1      69.278  65.386  64.404  0.00  0.00    +0.000 NA
ATOM     18  H   UNL     1      68.731  66.013  64.984  0.00  0.00    +0.000 HD
ATOM     19  H   UNL     1      70.252  65.646  64.319  0.00  0.00    +0.000 HD
ENDBRANCH   8  17
TORSDOF 2
ENDMDL
MODEL 9
REMARK VINA RESULT:      -4.8     26.005     28.782
REMARK  Name = PhIP.pdbqt.pdb
REMARK  2 active torsions:
REMARK  status: ('A' for Active; 'I' for Inactive)
REMARK    1  A    between atoms: N_4  and  C_9
REMARK    2  A    between atoms: C_7  and  C_10
REMARK                            x       y       z     vdW  Elec       q    Type
REMARK                         _______ _______ _______ _____ _____    ______ ____
ROOT
ATOM      1  N   UNL     1      68.197  69.619  67.615  0.00  0.00    +0.000 N 
ATOM      2  N   UNL     1      66.388  68.324  66.763  0.00  0.00    +0.000 NA
ATOM      3  N   UNL     1      64.619  69.887  67.328  0.00  0.00    +0.000 NA
ATOM      4  C   UNL     1      67.067  70.357  67.795  0.00  0.00    +0.000 C 
ATOM      5  C   UNL     1      65.951  69.465  67.232  0.00  0.00    +0.000 C 
ATOM      6  C   UNL     1      65.344  71.822  68.699  0.00  0.00    +0.000 C 
ATOM      7  C   UNL     1      66.690  71.382  68.499  0.00  0.00    +0.000 C 
ATOM      8  C   UNL     1      67.742  68.432  67.036  0.00  0.00    +0.000 C 
ATOM      9  C   UNL     1      69.310  69.655  68.548  0.00  0.00    +0.000 C 
ATOM     10  C   UNL     1      64.548  70.865  67.982  0.00  0.00    +0.000 C 
ENDROOT
BRANCH   6  11
ATOM     11  C   UNL     1      64.890  73.009  69.398  0.00  0.00    +0.000 A 
ATOM     12  C   UNL     1      63.773  72.959  70.233  0.00  0.00    +0.000 A 
ATOM     13  C   UNL     1      65.564  74.223  69.249  0.00  0.00    +0.000 A 
ATOM     14  C   UNL     1      63.334  74.098  70.906  0.00  0.00    +0.000 A 
ATOM     15  C   UNL     1      65.129  75.366  69.919  0.00  0.00    +0.000 A 
ATOM     16  C   UNL     1      64.013  75.302  70.748  0.00  0.00    +0.000 A 
ENDBRANCH   6  11
BRANCH   8  17
ATOM     17  N   UNL     1      68.531  67.295  66.792  0.00  0.00    +0.000 NA
ATOM     18  H   UNL     1      68.007  66.510  66.421  0.00  0.00    +0.000 HD
ATOM     19  H   UNL     1      69.377  67.507  66.277  0.00  0.00    +0.000 HD
ENDBRANCH   8  17
TORSDOF 2
ENDMDL
