MODEL 1
REMARK VINA RESULT:      -6.1      0.000      0.000
REMARK  Name = Piroxicam.pdbqt.pdb
REMARK  3 active torsions:
REMARK  status: ('A' for Active; 'I' for Inactive)
REMARK    1  A    between atoms: C_7  and  C_14
REMARK    2  A    between atoms: C_8  and  O_24
REMARK    3  A    between atoms: N_16  and  C_18
REMARK                            x       y       z     vdW  Elec       q    Type
REMARK                         _______ _______ _______ _____ _____    ______ ____
ROOT
ATOM      1  S   UNL     1      63.691  54.358  59.319  0.00  0.00    +0.000 S 
ATOM      2  O   UNL     1      63.401  54.893  58.002  0.00  0.00    +0.000 OA
ATOM      3  O   UNL     1      65.046  54.354  59.835  0.00  0.00    +0.000 OA
ATOM      4  N   UNL     1      62.618  55.085  60.454  0.00  0.00    +0.000 N 
ATOM      5  C   UNL     1      63.106  52.708  59.320  0.00  0.00    +0.000 A 
ATOM      6  C   UNL     1      61.742  52.509  59.523  0.00  0.00    +0.000 A 
ATOM      7  C   UNL     1      61.232  54.859  60.158  0.00  0.00    +0.000 C 
ATOM      8  C   UNL     1      60.823  53.647  59.715  0.00  0.00    +0.000 C 
ATOM      9  C   UNL     1      64.002  51.658  59.153  0.00  0.00    +0.000 A 
ATOM     10  C   UNL     1      62.910  54.944  61.891  0.00  0.00    +0.000 C 
ATOM     11  C   UNL     1      61.274  51.193  59.515  0.00  0.00    +0.000 A 
ATOM     12  C   UNL     1      63.514  50.357  59.161  0.00  0.00    +0.000 A 
ATOM     13  C   UNL     1      62.152  50.124  59.335  0.00  0.00    +0.000 A 
ENDROOT
BRANCH   7  14
ATOM     14  C   UNL     1      60.266  55.992  60.334  0.00  0.00    +0.000 C 
ATOM     15  O   UNL     1      59.336  55.874  61.130  0.00  0.00    +0.000 OA
ATOM     16  N   UNL     1      60.516  57.094  59.556  0.00  0.00    +0.000 N 
ATOM     17  H   UNL     1      61.344  57.136  58.973  0.00  0.00    +0.000 HD
BRANCH  16  18
ATOM     18  C   UNL     1      59.758  58.265  59.508  0.00  0.00    +0.000 A 
ATOM     19  N   UNL     1      58.684  58.198  58.696  0.00  0.00    +0.000 NA
ATOM     20  C   UNL     1      57.911  59.305  58.614  0.00  0.00    +0.000 A 
ATOM     21  C   UNL     1      58.154  60.479  59.305  0.00  0.00    +0.000 A 
ATOM     22  C   UNL     1      59.265  60.514  60.135  0.00  0.00    +0.000 A 
ATOM     23  C   UNL     1      60.084  59.396  60.244  0.00  0.00    +0.000 A 
ENDBRANCH  16  18
ENDBRANCH   7  14
BRANCH   8  24
ATOM     24  O   UNL     1      59.506  53.345  59.411  0.00  0.00    +0.000 OA
ATOM     25  H   UNL     1      58.939  53.503  60.200  0.00  0.00    +0.000 HD
ENDBRANCH   8  24
TORSDOF 3
ENDMDL
MODEL 2
REMARK VINA RESULT:      -5.9     18.070     19.922
REMARK  Name = Piroxicam.pdbqt.pdb
REMARK  3 active torsions:
REMARK  status: ('A' for Active; 'I' for Inactive)
REMARK    1  A    between atoms: C_7  and  C_14
REMARK    2  A    between atoms: C_8  and  O_24
REMARK    3  A    between atoms: N_16  and  C_18
REMARK                            x       y       z     vdW  Elec       q    Type
REMARK                         _______ _______ _______ _____ _____    ______ ____
ROOT
ATOM      1  S   UNL     1      64.795  37.952  68.729  0.00  0.00    +0.000 S 
ATOM      2  O   UNL     1      65.854  38.784  68.189  0.00  0.00    +0.000 OA
ATOM      3  O   UNL     1      64.874  36.506  68.646  0.00  0.00    +0.000 OA
ATOM      4  N   UNL     1      64.486  38.444  70.351  0.00  0.00    +0.000 N 
ATOM      5  C   UNL     1      63.317  38.459  67.940  0.00  0.00    +0.000 A 
ATOM      6  C   UNL     1      62.687  39.603  68.428  0.00  0.00    +0.000 A 
ATOM      7  C   UNL     1      64.096  39.820  70.467  0.00  0.00    +0.000 C 
ATOM      8  C   UNL     1      63.253  40.365  69.558  0.00  0.00    +0.000 C 
ATOM      9  C   UNL     1      62.804  37.708  66.889  0.00  0.00    +0.000 A 
ATOM     10  C   UNL     1      63.679  37.563  71.213  0.00  0.00    +0.000 C 
ATOM     11  C   UNL     1      61.514  40.013  67.792  0.00  0.00    +0.000 A 
ATOM     12  C   UNL     1      61.628  38.130  66.280  0.00  0.00    +0.000 A 
ATOM     13  C   UNL     1      60.986  39.283  66.726  0.00  0.00    +0.000 A 
ENDROOT
BRANCH   7  14
ATOM     14  C   UNL     1      64.653  40.632  71.598  0.00  0.00    +0.000 C 
ATOM     15  O   UNL     1      64.927  41.816  71.411  0.00  0.00    +0.000 OA
ATOM     16  N   UNL     1      64.818  39.950  72.776  0.00  0.00    +0.000 N 
ATOM     17  H   UNL     1      64.504  38.990  72.863  0.00  0.00    +0.000 HD
BRANCH  16  18
ATOM     18  C   UNL     1      65.341  40.460  73.965  0.00  0.00    +0.000 A 
ATOM     19  N   UNL     1      64.409  40.864  74.852  0.00  0.00    +0.000 NA
ATOM     20  C   UNL     1      64.861  41.365  76.025  0.00  0.00    +0.000 A 
ATOM     21  C   UNL     1      66.198  41.481  76.360  0.00  0.00    +0.000 A 
ATOM     22  C   UNL     1      67.131  41.054  75.426  0.00  0.00    +0.000 A 
ATOM     23  C   UNL     1      66.705  40.534  74.209  0.00  0.00    +0.000 A 
ENDBRANCH  16  18
ENDBRANCH   7  14
BRANCH   8  24
ATOM     24  O   UNL     1      62.825  41.681  69.598  0.00  0.00    +0.000 OA
ATOM     25  H   UNL     1      63.531  42.270  69.245  0.00  0.00    +0.000 HD
ENDBRANCH   8  24
TORSDOF 3
ENDMDL
MODEL 3
REMARK VINA RESULT:      -5.9     21.385     23.429
REMARK  Name = Piroxicam.pdbqt.pdb
REMARK  3 active torsions:
REMARK  status: ('A' for Active; 'I' for Inactive)
REMARK    1  A    between atoms: C_7  and  C_14
REMARK    2  A    between atoms: C_8  and  O_24
REMARK    3  A    between atoms: N_16  and  C_18
REMARK                            x       y       z     vdW  Elec       q    Type
REMARK                         _______ _______ _______ _____ _____    ______ ____
ROOT
ATOM      1  S   UNL     1      44.091  41.183  69.533  0.00  0.00    +0.000 S 
ATOM      2  O   UNL     1      44.694  41.256  68.215  0.00  0.00    +0.000 OA
ATOM      3  O   UNL     1      42.984  40.283  69.793  0.00  0.00    +0.000 OA
ATOM      4  N   UNL     1      45.341  40.948  70.695  0.00  0.00    +0.000 N 
ATOM      5  C   UNL     1      43.571  42.808  69.928  0.00  0.00    +0.000 A 
ATOM      6  C   UNL     1      44.536  43.694  70.403  0.00  0.00    +0.000 A 
ATOM      7  C   UNL     1      46.326  41.992  70.695  0.00  0.00    +0.000 C 
ATOM      8  C   UNL     1      45.946  43.283  70.552  0.00  0.00    +0.000 C 
ATOM      9  C   UNL     1      42.233  43.156  69.791  0.00  0.00    +0.000 A 
ATOM     10  C   UNL     1      44.968  40.537  72.059  0.00  0.00    +0.000 C 
ATOM     11  C   UNL     1      44.124  44.993  70.708  0.00  0.00    +0.000 A 
ATOM     12  C   UNL     1      41.844  44.451  70.114  0.00  0.00    +0.000 A 
ATOM     13  C   UNL     1      42.788  45.370  70.566  0.00  0.00    +0.000 A 
ENDROOT
BRANCH   7  14
ATOM     14  C   UNL     1      47.771  41.616  70.838  0.00  0.00    +0.000 C 
ATOM     15  O   UNL     1      48.217  40.678  70.179  0.00  0.00    +0.000 OA
ATOM     16  N   UNL     1      48.484  42.378  71.728  0.00  0.00    +0.000 N 
ATOM     17  H   UNL     1      48.054  43.176  72.181  0.00  0.00    +0.000 HD
BRANCH  16  18
ATOM     18  C   UNL     1      49.829  42.219  72.064  0.00  0.00    +0.000 A 
ATOM     19  N   UNL     1      50.055  41.311  73.035  0.00  0.00    +0.000 NA
ATOM     20  C   UNL     1      51.343  41.114  73.398  0.00  0.00    +0.000 A 
ATOM     21  C   UNL     1      52.421  41.778  72.840  0.00  0.00    +0.000 A 
ATOM     22  C   UNL     1      52.154  42.704  71.842  0.00  0.00    +0.000 A 
ATOM     23  C   UNL     1      50.843  42.934  71.443  0.00  0.00    +0.000 A 
ENDBRANCH  16  18
ENDBRANCH   7  14
BRANCH   8  24
ATOM     24  O   UNL     1      46.830  44.349  70.544  0.00  0.00    +0.000 OA
ATOM     25  H   UNL     1      46.745  44.856  71.384  0.00  0.00    +0.000 HD
ENDBRANCH   8  24
TORSDOF 3
ENDMDL
MODEL 4
REMARK VINA RESULT:      -5.5      2.292      7.012
REMARK  Name = Piroxicam.pdbqt.pdb
REMARK  3 active torsions:
REMARK  status: ('A' for Active; 'I' for Inactive)
REMARK    1  A    between atoms: C_7  and  C_14
REMARK    2  A    between atoms: C_8  and  O_24
REMARK    3  A    between atoms: N_16  and  C_18
REMARK                            x       y       z     vdW  Elec       q    Type
REMARK                         _______ _______ _______ _____ _____    ______ ____
ROOT
ATOM      1  S   UNL     1      63.514  58.498  58.942  0.00  0.00    +0.000 S 
ATOM      2  O   UNL     1      64.370  58.512  60.113  0.00  0.00    +0.000 OA
ATOM      3  O   UNL     1      63.935  59.134  57.709  0.00  0.00    +0.000 OA
ATOM      4  N   UNL     1      63.022  56.874  58.643  0.00  0.00    +0.000 N 
ATOM      5  C   UNL     1      61.996  59.220  59.432  0.00  0.00    +0.000 A 
ATOM      6  C   UNL     1      61.092  58.412  60.121  0.00  0.00    +0.000 A 
ATOM      7  C   UNL     1      62.314  56.279  59.741  0.00  0.00    +0.000 C 
ATOM      8  C   UNL     1      61.410  57.007  60.438  0.00  0.00    +0.000 C 
ATOM      9  C   UNL     1      61.723  60.542  59.103  0.00  0.00    +0.000 A 
ATOM     10  C   UNL     1      62.407  56.552  57.344  0.00  0.00    +0.000 C 
ATOM     11  C   UNL     1      59.886  58.990  60.520  0.00  0.00    +0.000 A 
ATOM     12  C   UNL     1      60.510  61.092  59.500  0.00  0.00    +0.000 A 
ATOM     13  C   UNL     1      59.594  60.320  60.213  0.00  0.00    +0.000 A 
ENDROOT
BRANCH   7  14
ATOM     14  C   UNL     1      62.612  54.854  60.099  0.00  0.00    +0.000 C 
ATOM     15  O   UNL     1      63.064  54.595  61.213  0.00  0.00    +0.000 OA
ATOM     16  N   UNL     1      62.349  53.940  59.112  0.00  0.00    +0.000 N 
ATOM     17  H   UNL     1      61.915  54.231  58.244  0.00  0.00    +0.000 HD
BRANCH  16  18
ATOM     18  C   UNL     1      62.563  52.562  59.178  0.00  0.00    +0.000 A 
ATOM     19  N   UNL     1      61.434  51.830  59.268  0.00  0.00    +0.000 NA
ATOM     20  C   UNL     1      61.582  50.486  59.331  0.00  0.00    +0.000 A 
ATOM     21  C   UNL     1      62.802  49.834  59.306  0.00  0.00    +0.000 A 
ATOM     22  C   UNL     1      63.944  50.617  59.211  0.00  0.00    +0.000 A 
ATOM     23  C   UNL     1      63.831  52.001  59.145  0.00  0.00    +0.000 A 
ENDBRANCH  16  18
ENDBRANCH   7  14
BRANCH   8  24
ATOM     24  O   UNL     1      60.683  56.509  61.506  0.00  0.00    +0.000 OA
ATOM     25  H   UNL     1      61.251  55.911  62.043  0.00  0.00    +0.000 HD
ENDBRANCH   8  24
TORSDOF 3
ENDMDL
MODEL 5
REMARK VINA RESULT:      -5.3     10.234     11.581
REMARK  Name = Piroxicam.pdbqt.pdb
REMARK  3 active torsions:
REMARK  status: ('A' for Active; 'I' for Inactive)
REMARK    1  A    between atoms: C_7  and  C_14
REMARK    2  A    between atoms: C_8  and  O_24
REMARK    3  A    between atoms: N_16  and  C_18
REMARK                            x       y       z     vdW  Elec       q    Type
REMARK                         _______ _______ _______ _____ _____    ______ ____
ROOT
ATOM      1  S   UNL     1      68.799  59.722  63.229  0.00  0.00    +0.000 S 
ATOM      2  O   UNL     1      67.382  59.947  63.445  0.00  0.00    +0.000 OA
ATOM      3  O   UNL     1      69.278  59.170  61.977  0.00  0.00    +0.000 OA
ATOM      4  N   UNL     1      69.647  61.172  63.610  0.00  0.00    +0.000 N 
ATOM      5  C   UNL     1      69.335  58.673  64.524  0.00  0.00    +0.000 A 
ATOM      6  C   UNL     1      69.602  59.260  65.759  0.00  0.00    +0.000 A 
ATOM      7  C   UNL     1      69.451  61.611  64.962  0.00  0.00    +0.000 C 
ATOM      8  C   UNL     1      69.425  60.709  65.971  0.00  0.00    +0.000 C 
ATOM      9  C   UNL     1      69.507  57.314  64.284  0.00  0.00    +0.000 A 
ATOM     10  C   UNL     1      71.051  61.300  63.183  0.00  0.00    +0.000 C 
ATOM     11  C   UNL     1      70.021  58.422  66.794  0.00  0.00    +0.000 A 
ATOM     12  C   UNL     1      69.937  56.502  65.327  0.00  0.00    +0.000 A 
ATOM     13  C   UNL     1      70.188  57.053  66.582  0.00  0.00    +0.000 A 
ENDROOT
BRANCH   7  14
ATOM     14  C   UNL     1      69.260  63.076  65.221  0.00  0.00    +0.000 C 
ATOM     15  O   UNL     1      70.147  63.707  65.793  0.00  0.00    +0.000 OA
ATOM     16  N   UNL     1      68.067  63.593  64.783  0.00  0.00    +0.000 N 
ATOM     17  H   UNL     1      67.418  63.016  64.260  0.00  0.00    +0.000 HD
BRANCH  16  18
ATOM     18  C   UNL     1      67.633  64.911  64.923  0.00  0.00    +0.000 A 
ATOM     19  N   UNL     1      67.140  65.207  66.143  0.00  0.00    +0.000 NA
ATOM     20  C   UNL     1      66.708  66.474  66.335  0.00  0.00    +0.000 A 
ATOM     21  C   UNL     1      66.743  67.465  65.371  0.00  0.00    +0.000 A 
ATOM     22  C   UNL     1      67.258  67.129  64.127  0.00  0.00    +0.000 A 
ATOM     23  C   UNL     1      67.712  65.837  63.892  0.00  0.00    +0.000 A 
ENDBRANCH  16  18
ENDBRANCH   7  14
BRANCH   8  24
ATOM     24  O   UNL     1      69.244  61.049  67.301  0.00  0.00    +0.000 OA
ATOM     25  H   UNL     1      68.335  61.404  67.432  0.00  0.00    +0.000 HD
ENDBRANCH   8  24
TORSDOF 3
ENDMDL
MODEL 6
REMARK VINA RESULT:      -5.3     28.362     30.742
REMARK  Name = Piroxicam.pdbqt.pdb
REMARK  3 active torsions:
REMARK  status: ('A' for Active; 'I' for Inactive)
REMARK    1  A    between atoms: C_7  and  C_14
REMARK    2  A    between atoms: C_8  and  O_24
REMARK    3  A    between atoms: N_16  and  C_18
REMARK                            x       y       z     vdW  Elec       q    Type
REMARK                         _______ _______ _______ _____ _____    ______ ____
ROOT
ATOM      1  S   UNL     1      56.296  70.704  87.803  0.00  0.00    +0.000 S 
ATOM      2  O   UNL     1      56.827  72.036  87.582  0.00  0.00    +0.000 OA
ATOM      3  O   UNL     1      54.952  70.519  88.315  0.00  0.00    +0.000 OA
ATOM      4  N   UNL     1      56.525  69.779  86.368  0.00  0.00    +0.000 N 
ATOM      5  C   UNL     1      57.407  69.905  88.895  0.00  0.00    +0.000 A 
ATOM      6  C   UNL     1      58.570  69.366  88.348  0.00  0.00    +0.000 A 
ATOM      7  C   UNL     1      57.900  69.667  85.972  0.00  0.00    +0.000 C 
ATOM      8  C   UNL     1      58.861  69.478  86.906  0.00  0.00    +0.000 C 
ATOM      9  C   UNL     1      57.093  69.803  90.245  0.00  0.00    +0.000 A 
ATOM     10  C   UNL     1      55.801  68.503  86.230  0.00  0.00    +0.000 C 
ATOM     11  C   UNL     1      59.460  68.737  89.220  0.00  0.00    +0.000 A 
ATOM     12  C   UNL     1      57.989  69.161  91.091  0.00  0.00    +0.000 A 
ATOM     13  C   UNL     1      59.174  68.634  90.582  0.00  0.00    +0.000 A 
ENDROOT
BRANCH   7  14
ATOM     14  C   UNL     1      58.239  69.782  84.516  0.00  0.00    +0.000 C 
ATOM     15  O   UNL     1      59.092  69.038  84.035  0.00  0.00    +0.000 OA
ATOM     16  N   UNL     1      57.544  70.747  83.832  0.00  0.00    +0.000 N 
ATOM     17  H   UNL     1      56.809  71.274  84.290  0.00  0.00    +0.000 HD
BRANCH  16  18
ATOM     18  C   UNL     1      57.689  71.075  82.484  0.00  0.00    +0.000 A 
ATOM     19  N   UNL     1      56.783  70.494  81.671  0.00  0.00    +0.000 NA
ATOM     20  C   UNL     1      56.875  70.781  80.352  0.00  0.00    +0.000 A 
ATOM     21  C   UNL     1      57.824  71.623  79.801  0.00  0.00    +0.000 A 
ATOM     22  C   UNL     1      58.739  72.207  80.665  0.00  0.00    +0.000 A 
ATOM     23  C   UNL     1      58.677  71.935  82.027  0.00  0.00    +0.000 A 
ENDBRANCH  16  18
ENDBRANCH   7  14
BRANCH   8  24
ATOM     24  O   UNL     1      60.208  69.357  86.609  0.00  0.00    +0.000 OA
ATOM     25  H   UNL     1      60.470  70.058  85.969  0.00  0.00    +0.000 HD
ENDBRANCH   8  24
TORSDOF 3
ENDMDL
MODEL 7
REMARK VINA RESULT:      -5.3     17.944     20.185
REMARK  Name = Piroxicam.pdbqt.pdb
REMARK  3 active torsions:
REMARK  status: ('A' for Active; 'I' for Inactive)
REMARK    1  A    between atoms: C_7  and  C_14
REMARK    2  A    between atoms: C_8  and  O_24
REMARK    3  A    between atoms: N_16  and  C_18
REMARK                            x       y       z     vdW  Elec       q    Type
REMARK                         _______ _______ _______ _____ _____    ______ ____
ROOT
ATOM      1  S   UNL     1      64.998  41.142  73.635  0.00  0.00    +0.000 S 
ATOM      2  O   UNL     1      65.190  42.465  73.072  0.00  0.00    +0.000 OA
ATOM      3  O   UNL     1      64.227  40.959  74.849  0.00  0.00    +0.000 OA
ATOM      4  N   UNL     1      64.421  40.096  72.394  0.00  0.00    +0.000 N 
ATOM      5  C   UNL     1      66.598  40.484  73.906  0.00  0.00    +0.000 A 
ATOM      6  C   UNL     1      67.263  39.937  72.810  0.00  0.00    +0.000 A 
ATOM      7  C   UNL     1      65.310  39.996  71.271  0.00  0.00    +0.000 C 
ATOM      8  C   UNL     1      66.647  39.926  71.469  0.00  0.00    +0.000 C 
ATOM      9  C   UNL     1      67.141  40.496  75.186  0.00  0.00    +0.000 A 
ATOM     10  C   UNL     1      63.859  38.790  72.777  0.00  0.00    +0.000 C 
ATOM     11  C   UNL     1      68.542  39.421  73.024  0.00  0.00    +0.000 A 
ATOM     12  C   UNL     1      68.411  39.965  75.376  0.00  0.00    +0.000 A 
ATOM     13  C   UNL     1      69.114  39.434  74.297  0.00  0.00    +0.000 A 
ENDROOT
BRANCH   7  14
ATOM     14  C   UNL     1      64.724  39.988  69.890  0.00  0.00    +0.000 C 
ATOM     15  O   UNL     1      65.332  40.541  68.975  0.00  0.00    +0.000 OA
ATOM     16  N   UNL     1      63.518  39.346  69.775  0.00  0.00    +0.000 N 
ATOM     17  H   UNL     1      63.117  38.858  70.568  0.00  0.00    +0.000 HD
BRANCH  16  18
ATOM     18  C   UNL     1      62.753  39.220  68.615  0.00  0.00    +0.000 A 
ATOM     19  N   UNL     1      63.104  38.183  67.828  0.00  0.00    +0.000 NA
ATOM     20  C   UNL     1      62.392  38.012  66.691  0.00  0.00    +0.000 A 
ATOM     21  C   UNL     1      61.341  38.822  66.299  0.00  0.00    +0.000 A 
ATOM     22  C   UNL     1      61.003  39.878  67.132  0.00  0.00    +0.000 A 
ATOM     23  C   UNL     1      61.713  40.087  68.309  0.00  0.00    +0.000 A 
ENDBRANCH  16  18
ENDBRANCH   7  14
BRANCH   8  24
ATOM     24  O   UNL     1      67.572  39.824  70.444  0.00  0.00    +0.000 OA
ATOM     25  H   UNL     1      67.130  39.481  69.633  0.00  0.00    +0.000 HD
ENDBRANCH   8  24
TORSDOF 3
ENDMDL
MODEL 8
REMARK VINA RESULT:      -5.2     21.785     23.388
REMARK  Name = Piroxicam.pdbqt.pdb
REMARK  3 active torsions:
REMARK  status: ('A' for Active; 'I' for Inactive)
REMARK    1  A    between atoms: C_7  and  C_14
REMARK    2  A    between atoms: C_8  and  O_24
REMARK    3  A    between atoms: N_16  and  C_18
REMARK                            x       y       z     vdW  Elec       q    Type
REMARK                         _______ _______ _______ _____ _____    ______ ____
ROOT
ATOM      1  S   UNL     1      51.708  33.526  57.387  0.00  0.00    +0.000 S 
ATOM      2  O   UNL     1      50.378  33.004  57.642  0.00  0.00    +0.000 OA
ATOM      3  O   UNL     1      52.110  33.906  56.047  0.00  0.00    +0.000 OA
ATOM      4  N   UNL     1      52.013  34.811  58.493  0.00  0.00    +0.000 N 
ATOM      5  C   UNL     1      52.832  32.315  57.967  0.00  0.00    +0.000 A 
ATOM      6  C   UNL     1      53.092  32.282  59.335  0.00  0.00    +0.000 A 
ATOM      7  C   UNL     1      51.928  34.414  59.869  0.00  0.00    +0.000 C 
ATOM      8  C   UNL     1      52.433  33.221  60.263  0.00  0.00    +0.000 C 
ATOM      9  C   UNL     1      53.448  31.457  57.063  0.00  0.00    +0.000 A 
ATOM     10  C   UNL     1      53.159  35.702  58.240  0.00  0.00    +0.000 C 
ATOM     11  C   UNL     1      53.981  31.310  59.799  0.00  0.00    +0.000 A 
ATOM     12  C   UNL     1      54.340  30.507  57.547  0.00  0.00    +0.000 A 
ATOM     13  C   UNL     1      54.602  30.429  58.913  0.00  0.00    +0.000 A 
ENDROOT
BRANCH   7  14
ATOM     14  C   UNL     1      51.260  35.338  60.843  0.00  0.00    +0.000 C 
ATOM     15  O   UNL     1      51.951  36.045  61.575  0.00  0.00    +0.000 OA
ATOM     16  N   UNL     1      49.889  35.302  60.830  0.00  0.00    +0.000 N 
ATOM     17  H   UNL     1      49.396  34.737  60.148  0.00  0.00    +0.000 HD
BRANCH  16  18
ATOM     18  C   UNL     1      49.031  36.036  61.651  0.00  0.00    +0.000 A 
ATOM     19  N   UNL     1      48.150  36.808  60.982  0.00  0.00    +0.000 NA
ATOM     20  C   UNL     1      47.291  37.539  61.729  0.00  0.00    +0.000 A 
ATOM     21  C   UNL     1      47.264  37.538  63.112  0.00  0.00    +0.000 A 
ATOM     22  C   UNL     1      48.182  36.731  63.769  0.00  0.00    +0.000 A 
ATOM     23  C   UNL     1      49.081  35.966  63.035  0.00  0.00    +0.000 A 
ENDBRANCH  16  18
ENDBRANCH   7  14
BRANCH   8  24
ATOM     24  O   UNL     1      52.396  32.765  61.569  0.00  0.00    +0.000 OA
ATOM     25  H   UNL     1      51.497  32.910  61.945  0.00  0.00    +0.000 HD
ENDBRANCH   8  24
TORSDOF 3
ENDMDL
MODEL 9
REMARK VINA RESULT:      -5.1     18.000     20.504
REMARK  Name = Piroxicam.pdbqt.pdb
REMARK  3 active torsions:
REMARK  status: ('A' for Active; 'I' for Inactive)
REMARK    1  A    between atoms: C_7  and  C_14
REMARK    2  A    between atoms: C_8  and  O_24
REMARK    3  A    between atoms: N_16  and  C_18
REMARK                            x       y       z     vdW  Elec       q    Type
REMARK                         _______ _______ _______ _____ _____    ______ ____
ROOT
ATOM      1  S   UNL     1      64.731  37.947  73.211  0.00  0.00    +0.000 S 
ATOM      2  O   UNL     1      63.297  38.155  73.290  0.00  0.00    +0.000 OA
ATOM      3  O   UNL     1      65.338  36.753  73.765  0.00  0.00    +0.000 OA
ATOM      4  N   UNL     1      65.227  38.171  71.577  0.00  0.00    +0.000 N 
ATOM      5  C   UNL     1      65.473  39.337  73.976  0.00  0.00    +0.000 A 
ATOM      6  C   UNL     1      65.585  40.503  73.222  0.00  0.00    +0.000 A 
ATOM      7  C   UNL     1      64.919  39.473  71.058  0.00  0.00    +0.000 C 
ATOM      8  C   UNL     1      65.083  40.569  71.836  0.00  0.00    +0.000 C 
ATOM      9  C   UNL     1      65.949  39.234  75.278  0.00  0.00    +0.000 A 
ATOM     10  C   UNL     1      66.571  37.718  71.180  0.00  0.00    +0.000 C 
ATOM     11  C   UNL     1      66.168  41.613  73.835  0.00  0.00    +0.000 A 
ATOM     12  C   UNL     1      66.537  40.350  75.863  0.00  0.00    +0.000 A 
ATOM     13  C   UNL     1      66.641  41.540  75.146  0.00  0.00    +0.000 A 
ENDROOT
BRANCH   7  14
ATOM     14  C   UNL     1      64.400  39.583  69.655  0.00  0.00    +0.000 C 
ATOM     15  O   UNL     1      64.886  40.421  68.897  0.00  0.00    +0.000 OA
ATOM     16  N   UNL     1      63.391  38.710  69.339  0.00  0.00    +0.000 N 
ATOM     17  H   UNL     1      63.094  38.005  70.004  0.00  0.00    +0.000 HD
BRANCH  16  18
ATOM     18  C   UNL     1      62.720  38.624  68.119  0.00  0.00    +0.000 A 
ATOM     19  N   UNL     1      61.725  39.522  67.969  0.00  0.00    +0.000 NA
ATOM     20  C   UNL     1      61.042  39.486  66.801  0.00  0.00    +0.000 A 
ATOM     21  C   UNL     1      61.303  38.600  65.772  0.00  0.00    +0.000 A 
ATOM     22  C   UNL     1      62.335  37.691  65.957  0.00  0.00    +0.000 A 
ATOM     23  C   UNL     1      63.058  37.697  67.144  0.00  0.00    +0.000 A 
ENDBRANCH  16  18
ENDBRANCH   7  14
BRANCH   8  24
ATOM     24  O   UNL     1      64.814  41.859  71.412  0.00  0.00    +0.000 OA
ATOM     25  H   UNL     1      65.173  41.992  70.505  0.00  0.00    +0.000 HD
ENDBRANCH   8  24
TORSDOF 3
ENDMDL
