MODEL 1
REMARK VINA RESULT:      -6.2      0.000      0.000
REMARK  Name = PKR_Inhibitor.pdbqt.pdb
REMARK  0 active torsions:
REMARK  status: ('A' for Active; 'I' for Inactive)
REMARK                            x       y       z     vdW  Elec       q    Type
REMARK                         _______ _______ _______ _____ _____    ______ ____
ROOT
ATOM      1  S   UNL     1      64.433  38.251  53.039  0.00  0.00    +0.000 S 
ATOM      2  O   UNL     1      60.954  37.264  57.551  0.00  0.00    +0.000 OA
ATOM      3  N   UNL     1      61.304  39.400  56.645  0.00  0.00    +0.000 N 
ATOM      4  N   UNL     1      64.501  40.772  52.396  0.00  0.00    +0.000 NA
ATOM      5  C   UNL     1      62.760  38.933  54.951  0.00  0.00    +0.000 A 
ATOM      6  C   UNL     1      62.041  39.960  55.612  0.00  0.00    +0.000 A 
ATOM      7  C   UNL     1      62.425  37.660  55.648  0.00  0.00    +0.000 C 
ATOM      8  C   UNL     1      63.528  39.345  53.914  0.00  0.00    +0.000 A 
ATOM      9  C   UNL     1      61.469  38.019  56.748  0.00  0.00    +0.000 C 
ATOM     10  C   UNL     1      63.646  40.647  53.478  0.00  0.00    +0.000 A 
ATOM     11  C   UNL     1      62.078  41.308  55.267  0.00  0.00    +0.000 A 
ATOM     12  C   UNL     1      62.826  36.450  55.420  0.00  0.00    +0.000 C 
ATOM     13  C   UNL     1      62.908  41.636  54.170  0.00  0.00    +0.000 A 
ATOM     14  C   UNL     1      64.963  39.577  52.090  0.00  0.00    +0.000 A 
ATOM     15  H   UNL     1      60.703  39.917  57.272  0.00  0.00    +0.000 HD
ATOM     16  C   UNL     1      63.218  35.103  55.236  0.00  0.00    +0.000 C 
ATOM     17  N   UNL     1      62.789  34.051  55.996  0.00  0.00    +0.000 N 
ATOM     18  C   UNL     1      63.386  32.920  55.512  0.00  0.00    +0.000 C 
ATOM     19  H   UNL     1      62.148  34.093  56.777  0.00  0.00    +0.000 HD
ATOM     20  N   UNL     1      64.167  33.191  54.490  0.00  0.00    +0.000 NA
ATOM     21  C   UNL     1      64.071  34.550  54.309  0.00  0.00    +0.000 C 
ENDROOT
TORSDOF 0
ENDMDL
MODEL 2
REMARK VINA RESULT:      -5.7     11.072     12.813
REMARK  Name = PKR_Inhibitor.pdbqt.pdb
REMARK  0 active torsions:
REMARK  status: ('A' for Active; 'I' for Inactive)
REMARK                            x       y       z     vdW  Elec       q    Type
REMARK                         _______ _______ _______ _____ _____    ______ ____
ROOT
ATOM      1  S   UNL     1      53.076  32.241  59.078  0.00  0.00    +0.000 S 
ATOM      2  O   UNL     1      53.201  34.237  53.653  0.00  0.00    +0.000 OA
ATOM      3  N   UNL     1      54.126  32.175  54.282  0.00  0.00    +0.000 N 
ATOM      4  N   UNL     1      54.225  29.916  59.285  0.00  0.00    +0.000 NA
ATOM      5  C   UNL     1      53.668  32.143  56.517  0.00  0.00    +0.000 A 
ATOM      6  C   UNL     1      54.261  31.431  55.444  0.00  0.00    +0.000 A 
ATOM      7  C   UNL     1      53.138  33.413  55.945  0.00  0.00    +0.000 C 
ATOM      8  C   UNL     1      53.730  31.526  57.721  0.00  0.00    +0.000 A 
ATOM      9  C   UNL     1      53.462  33.386  54.481  0.00  0.00    +0.000 C 
ATOM     10  C   UNL     1      54.310  30.298  57.957  0.00  0.00    +0.000 A 
ATOM     11  C   UNL     1      54.875  30.187  55.557  0.00  0.00    +0.000 A 
ATOM     12  C   UNL     1      52.514  34.392  56.519  0.00  0.00    +0.000 C 
ATOM     13  C   UNL     1      54.887  29.626  56.854  0.00  0.00    +0.000 A 
ATOM     14  C   UNL     1      53.598  30.862  59.953  0.00  0.00    +0.000 A 
ATOM     15  H   UNL     1      54.463  31.891  53.372  0.00  0.00    +0.000 HD
ATOM     16  C   UNL     1      51.829  35.501  57.070  0.00  0.00    +0.000 C 
ATOM     17  N   UNL     1      51.415  36.597  56.365  0.00  0.00    +0.000 N 
ATOM     18  C   UNL     1      50.796  37.443  57.243  0.00  0.00    +0.000 C 
ATOM     19  H   UNL     1      51.540  36.759  55.375  0.00  0.00    +0.000 HD
ATOM     20  N   UNL     1      50.792  36.951  58.462  0.00  0.00    +0.000 NA
ATOM     21  C   UNL     1      51.434  35.740  58.366  0.00  0.00    +0.000 C 
ENDROOT
TORSDOF 0
ENDMDL
MODEL 3
REMARK VINA RESULT:      -5.6     13.172     16.359
REMARK  Name = PKR_Inhibitor.pdbqt.pdb
REMARK  0 active torsions:
REMARK  status: ('A' for Active; 'I' for Inactive)
REMARK                            x       y       z     vdW  Elec       q    Type
REMARK                         _______ _______ _______ _____ _____    ______ ____
ROOT
ATOM      1  S   UNL     1      65.268  53.788  59.596  0.00  0.00    +0.000 S 
ATOM      2  O   UNL     1      60.309  50.819  59.439  0.00  0.00    +0.000 OA
ATOM      3  N   UNL     1      62.407  49.830  59.086  0.00  0.00    +0.000 N 
ATOM      4  N   UNL     1      67.328  52.264  59.147  0.00  0.00    +0.000 NA
ATOM      5  C   UNL     1      63.792  51.629  59.311  0.00  0.00    +0.000 A 
ATOM      6  C   UNL     1      63.732  50.236  59.055  0.00  0.00    +0.000 A 
ATOM      7  C   UNL     1      62.388  52.088  59.509  0.00  0.00    +0.000 C 
ATOM      8  C   UNL     1      65.037  52.161  59.311  0.00  0.00    +0.000 A 
ATOM      9  C   UNL     1      61.520  50.874  59.352  0.00  0.00    +0.000 C 
ATOM     10  C   UNL     1      66.203  51.460  59.087  0.00  0.00    +0.000 A 
ATOM     11  C   UNL     1      64.836  49.422  58.815  0.00  0.00    +0.000 A 
ATOM     12  C   UNL     1      61.922  53.268  59.767  0.00  0.00    +0.000 C 
ATOM     13  C   UNL     1      66.091  50.072  58.836  0.00  0.00    +0.000 A 
ATOM     14  C   UNL     1      66.947  53.497  59.408  0.00  0.00    +0.000 A 
ATOM     15  H   UNL     1      62.090  48.882  58.934  0.00  0.00    +0.000 HD
ATOM     16  C   UNL     1      61.335  54.524  60.049  0.00  0.00    +0.000 C 
ATOM     17  N   UNL     1      59.995  54.747  60.199  0.00  0.00    +0.000 N 
ATOM     18  C   UNL     1      59.824  56.078  60.461  0.00  0.00    +0.000 C 
ATOM     19  H   UNL     1      59.258  54.059  60.130  0.00  0.00    +0.000 HD
ATOM     20  N   UNL     1      60.975  56.713  60.486  0.00  0.00    +0.000 NA
ATOM     21  C   UNL     1      61.924  55.754  60.229  0.00  0.00    +0.000 C 
ENDROOT
TORSDOF 0
ENDMDL
MODEL 4
REMARK VINA RESULT:      -5.4     14.153     17.308
REMARK  Name = PKR_Inhibitor.pdbqt.pdb
REMARK  0 active torsions:
REMARK  status: ('A' for Active; 'I' for Inactive)
REMARK                            x       y       z     vdW  Elec       q    Type
REMARK                         _______ _______ _______ _____ _____    ______ ____
ROOT
ATOM      1  S   UNL     1      65.504  52.268  59.372  0.00  0.00    +0.000 S 
ATOM      2  O   UNL     1      60.697  55.337  60.323  0.00  0.00    +0.000 OA
ATOM      3  N   UNL     1      60.674  53.052  59.789  0.00  0.00    +0.000 N 
ATOM      4  N   UNL     1      64.976  49.781  58.816  0.00  0.00    +0.000 NA
ATOM      5  C   UNL     1      62.906  52.621  59.581  0.00  0.00    +0.000 A 
ATOM      6  C   UNL     1      61.605  52.062  59.512  0.00  0.00    +0.000 A 
ATOM      7  C   UNL     1      62.734  54.061  59.926  0.00  0.00    +0.000 C 
ATOM      8  C   UNL     1      63.917  51.757  59.329  0.00  0.00    +0.000 A 
ATOM      9  C   UNL     1      61.257  54.293  60.051  0.00  0.00    +0.000 C 
ATOM     10  C   UNL     1      63.766  50.421  59.024  0.00  0.00    +0.000 A 
ATOM     11  C   UNL     1      61.324  50.732  59.214  0.00  0.00    +0.000 A 
ATOM     12  C   UNL     1      63.619  54.990  60.101  0.00  0.00    +0.000 C 
ATOM     13  C   UNL     1      62.448  49.910  58.968  0.00  0.00    +0.000 A 
ATOM     14  C   UNL     1      65.945  50.659  58.975  0.00  0.00    +0.000 A 
ATOM     15  H   UNL     1      59.673  52.916  59.805  0.00  0.00    +0.000 HD
ATOM     16  C   UNL     1      64.522  56.060  60.307  0.00  0.00    +0.000 C 
ATOM     17  N   UNL     1      64.162  57.339  60.626  0.00  0.00    +0.000 N 
ATOM     18  C   UNL     1      65.309  58.074  60.742  0.00  0.00    +0.000 C 
ATOM     19  H   UNL     1      63.221  57.686  60.754  0.00  0.00    +0.000 HD
ATOM     20  N   UNL     1      66.375  57.338  60.517  0.00  0.00    +0.000 NA
ATOM     21  C   UNL     1      65.896  56.080  60.244  0.00  0.00    +0.000 C 
ENDROOT
TORSDOF 0
ENDMDL
MODEL 5
REMARK VINA RESULT:      -5.4     13.015     15.313
REMARK  Name = PKR_Inhibitor.pdbqt.pdb
REMARK  0 active torsions:
REMARK  status: ('A' for Active; 'I' for Inactive)
REMARK                            x       y       z     vdW  Elec       q    Type
REMARK                         _______ _______ _______ _____ _____    ______ ____
ROOT
ATOM      1  S   UNL     1      57.632  37.070  67.297  0.00  0.00    +0.000 S 
ATOM      2  O   UNL     1      60.385  40.556  70.998  0.00  0.00    +0.000 OA
ATOM      3  N   UNL     1      61.338  39.813  68.987  0.00  0.00    +0.000 N 
ATOM      4  N   UNL     1      59.089  36.520  65.213  0.00  0.00    +0.000 NA
ATOM      5  C   UNL     1      59.654  38.523  68.146  0.00  0.00    +0.000 A 
ATOM      6  C   UNL     1      60.967  39.007  67.921  0.00  0.00    +0.000 A 
ATOM      7  C   UNL     1      59.208  39.087  69.452  0.00  0.00    +0.000 C 
ATOM      8  C   UNL     1      59.164  37.717  67.174  0.00  0.00    +0.000 A 
ATOM      9  C   UNL     1      60.345  39.923  69.961  0.00  0.00    +0.000 C 
ATOM     10  C   UNL     1      59.836  37.354  66.027  0.00  0.00    +0.000 A 
ATOM     11  C   UNL     1      61.745  38.712  66.805  0.00  0.00    +0.000 A 
ATOM     12  C   UNL     1      58.091  38.939  70.089  0.00  0.00    +0.000 C 
ATOM     13  C   UNL     1      61.144  37.863  65.848  0.00  0.00    +0.000 A 
ATOM     14  C   UNL     1      57.922  36.312  65.787  0.00  0.00    +0.000 A 
ATOM     15  H   UNL     1      62.228  40.283  69.073  0.00  0.00    +0.000 HD
ATOM     16  C   UNL     1      56.901  38.827  70.846  0.00  0.00    +0.000 C 
ATOM     17  N   UNL     1      56.677  39.436  72.049  0.00  0.00    +0.000 N 
ATOM     18  C   UNL     1      55.420  39.089  72.461  0.00  0.00    +0.000 C 
ATOM     19  H   UNL     1      57.319  40.036  72.549  0.00  0.00    +0.000 HD
ATOM     20  N   UNL     1      54.833  38.296  71.592  0.00  0.00    +0.000 NA
ATOM     21  C   UNL     1      55.748  38.126  70.581  0.00  0.00    +0.000 C 
ENDROOT
TORSDOF 0
ENDMDL
MODEL 6
REMARK VINA RESULT:      -5.4     38.060     39.972
REMARK  Name = PKR_Inhibitor.pdbqt.pdb
REMARK  0 active torsions:
REMARK  status: ('A' for Active; 'I' for Inactive)
REMARK                            x       y       z     vdW  Elec       q    Type
REMARK                         _______ _______ _______ _____ _____    ______ ____
ROOT
ATOM      1  S   UNL     1      78.265  64.561  78.588  0.00  0.00    +0.000 S 
ATOM      2  O   UNL     1      76.552  63.490  84.005  0.00  0.00    +0.000 OA
ATOM      3  N   UNL     1      75.744  62.306  82.147  0.00  0.00    +0.000 N 
ATOM      4  N   UNL     1      77.095  62.996  76.870  0.00  0.00    +0.000 NA
ATOM      5  C   UNL     1      76.885  63.313  80.447  0.00  0.00    +0.000 A 
ATOM      6  C   UNL     1      75.938  62.311  80.774  0.00  0.00    +0.000 A 
ATOM      7  C   UNL     1      77.287  63.957  81.729  0.00  0.00    +0.000 C 
ATOM      8  C   UNL     1      77.169  63.426  79.127  0.00  0.00    +0.000 A 
ATOM      9  C   UNL     1      76.513  63.263  82.811  0.00  0.00    +0.000 C 
ATOM     10  C   UNL     1      76.617  62.658  78.125  0.00  0.00    +0.000 A 
ATOM     11  C   UNL     1      75.312  61.474  79.854  0.00  0.00    +0.000 A 
ATOM     12  C   UNL     1      78.122  64.919  81.956  0.00  0.00    +0.000 C 
ATOM     13  C   UNL     1      75.677  61.671  78.502  0.00  0.00    +0.000 A 
ATOM     14  C   UNL     1      77.961  63.979  77.004  0.00  0.00    +0.000 A 
ATOM     15  H   UNL     1      75.117  61.685  82.640  0.00  0.00    +0.000 HD
ATOM     16  C   UNL     1      79.016  65.965  82.286  0.00  0.00    +0.000 C 
ATOM     17  N   UNL     1      79.255  66.422  83.552  0.00  0.00    +0.000 N 
ATOM     18  C   UNL     1      80.174  67.431  83.462  0.00  0.00    +0.000 C 
ATOM     19  H   UNL     1      78.832  66.082  84.405  0.00  0.00    +0.000 HD
ATOM     20  N   UNL     1      80.533  67.640  82.215  0.00  0.00    +0.000 NA
ATOM     21  C   UNL     1      79.817  66.732  81.473  0.00  0.00    +0.000 C 
ENDROOT
TORSDOF 0
ENDMDL
MODEL 7
REMARK VINA RESULT:      -5.4     13.988     16.532
REMARK  Name = PKR_Inhibitor.pdbqt.pdb
REMARK  0 active torsions:
REMARK  status: ('A' for Active; 'I' for Inactive)
REMARK                            x       y       z     vdW  Elec       q    Type
REMARK                         _______ _______ _______ _____ _____    ______ ____
ROOT
ATOM      1  S   UNL     1      64.455  55.147  60.081  0.00  0.00    +0.000 S 
ATOM      2  O   UNL     1      60.606  50.907  59.284  0.00  0.00    +0.000 OA
ATOM      3  N   UNL     1      59.996  53.105  59.833  0.00  0.00    +0.000 N 
ATOM      4  N   UNL     1      63.306  57.406  60.671  0.00  0.00    +0.000 NA
ATOM      5  C   UNL     1      62.038  54.115  59.963  0.00  0.00    +0.000 A 
ATOM      6  C   UNL     1      60.639  54.308  60.082  0.00  0.00    +0.000 A 
ATOM      7  C   UNL     1      62.243  52.680  59.616  0.00  0.00    +0.000 C 
ATOM      8  C   UNL     1      62.792  55.218  60.184  0.00  0.00    +0.000 A 
ATOM      9  C   UNL     1      60.878  52.064  59.542  0.00  0.00    +0.000 C 
ATOM     10  C   UNL     1      62.302  56.467  60.502  0.00  0.00    +0.000 A 
ATOM     11  C   UNL     1      60.026  55.517  60.398  0.00  0.00    +0.000 A 
ATOM     12  C   UNL     1      63.336  52.019  59.404  0.00  0.00    +0.000 C 
ATOM     13  C   UNL     1      60.899  56.609  60.608  0.00  0.00    +0.000 A 
ATOM     14  C   UNL     1      64.467  56.816  60.472  0.00  0.00    +0.000 A 
ATOM     15  H   UNL     1      58.994  52.971  59.853  0.00  0.00    +0.000 HD
ATOM     16  C   UNL     1      64.483  51.227  59.159  0.00  0.00    +0.000 C 
ATOM     17  N   UNL     1      64.465  49.897  58.846  0.00  0.00    +0.000 N 
ATOM     18  C   UNL     1      65.761  49.493  58.684  0.00  0.00    +0.000 C 
ATOM     19  H   UNL     1      63.647  49.312  58.750  0.00  0.00    +0.000 HD
ATOM     20  N   UNL     1      66.601  50.486  58.876  0.00  0.00    +0.000 NA
ATOM     21  C   UNL     1      65.814  51.573  59.173  0.00  0.00    +0.000 C 
ENDROOT
TORSDOF 0
ENDMDL
MODEL 8
REMARK VINA RESULT:      -5.3     11.745     13.830
REMARK  Name = PKR_Inhibitor.pdbqt.pdb
REMARK  0 active torsions:
REMARK  status: ('A' for Active; 'I' for Inactive)
REMARK                            x       y       z     vdW  Elec       q    Type
REMARK                         _______ _______ _______ _____ _____    ______ ____
ROOT
ATOM      1  S   UNL     1      62.078  36.311  66.474  0.00  0.00    +0.000 S 
ATOM      2  O   UNL     1      58.616  40.056  69.198  0.00  0.00    +0.000 OA
ATOM      3  N   UNL     1      57.810  38.264  67.917  0.00  0.00    +0.000 N 
ATOM      4  N   UNL     1      60.728  34.499  65.185  0.00  0.00    +0.000 NA
ATOM      5  C   UNL     1      59.759  37.307  67.213  0.00  0.00    +0.000 A 
ATOM      6  C   UNL     1      58.344  37.227  67.167  0.00  0.00    +0.000 A 
ATOM      7  C   UNL     1      60.092  38.489  68.057  0.00  0.00    +0.000 C 
ATOM      8  C   UNL     1      60.412  36.347  66.516  0.00  0.00    +0.000 A 
ATOM      9  C   UNL     1      58.784  39.079  68.494  0.00  0.00    +0.000 C 
ATOM     10  C   UNL     1      59.811  35.337  65.796  0.00  0.00    +0.000 A 
ATOM     11  C   UNL     1      57.623  36.256  66.477  0.00  0.00    +0.000 A 
ATOM     12  C   UNL     1      61.243  38.976  68.397  0.00  0.00    +0.000 C 
ATOM     13  C   UNL     1      58.396  35.298  65.782  0.00  0.00    +0.000 A 
ATOM     14  C   UNL     1      61.940  34.922  65.478  0.00  0.00    +0.000 A 
ATOM     15  H   UNL     1      56.822  38.432  68.049  0.00  0.00    +0.000 HD
ATOM     16  C   UNL     1      62.459  39.569  68.811  0.00  0.00    +0.000 C 
ATOM     17  N   UNL     1      62.561  40.675  69.607  0.00  0.00    +0.000 N 
ATOM     18  C   UNL     1      63.891  40.938  69.782  0.00  0.00    +0.000 C 
ATOM     19  H   UNL     1      61.796  41.208  69.998  0.00  0.00    +0.000 HD
ATOM     20  N   UNL     1      64.640  40.064  69.145  0.00  0.00    +0.000 NA
ATOM     21  C   UNL     1      63.757  39.206  68.536  0.00  0.00    +0.000 C 
ENDROOT
TORSDOF 0
ENDMDL
MODEL 9
REMARK VINA RESULT:      -4.9     11.857     13.713
REMARK  Name = PKR_Inhibitor.pdbqt.pdb
REMARK  0 active torsions:
REMARK  status: ('A' for Active; 'I' for Inactive)
REMARK                            x       y       z     vdW  Elec       q    Type
REMARK                         _______ _______ _______ _____ _____    ______ ____
ROOT
ATOM      1  S   UNL     1      60.063  37.538  66.593  0.00  0.00    +0.000 S 
ATOM      2  O   UNL     1      65.427  36.093  68.196  0.00  0.00    +0.000 OA
ATOM      3  N   UNL     1      64.051  34.691  66.914  0.00  0.00    +0.000 N 
ATOM      4  N   UNL     1      58.931  35.666  65.185  0.00  0.00    +0.000 NA
ATOM      5  C   UNL     1      62.167  35.965  66.727  0.00  0.00    +0.000 A 
ATOM      6  C   UNL     1      62.771  34.730  66.382  0.00  0.00    +0.000 A 
ATOM      7  C   UNL     1      63.169  36.721  67.530  0.00  0.00    +0.000 C 
ATOM      8  C   UNL     1      60.904  36.136  66.267  0.00  0.00    +0.000 A 
ATOM      9  C   UNL     1      64.383  35.845  67.624  0.00  0.00    +0.000 C 
ATOM     10  C   UNL     1      60.200  35.221  65.514  0.00  0.00    +0.000 A 
ATOM     11  C   UNL     1      62.164  33.729  65.628  0.00  0.00    +0.000 A 
ATOM     12  C   UNL     1      63.092  37.894  68.073  0.00  0.00    +0.000 C 
ATOM     13  C   UNL     1      60.847  34.004  65.195  0.00  0.00    +0.000 A 
ATOM     14  C   UNL     1      58.762  36.866  65.701  0.00  0.00    +0.000 A 
ATOM     15  H   UNL     1      64.695  33.919  66.813  0.00  0.00    +0.000 HD
ATOM     16  C   UNL     1      63.088  39.165  68.696  0.00  0.00    +0.000 C 
ATOM     17  N   UNL     1      64.130  39.695  69.403  0.00  0.00    +0.000 N 
ATOM     18  C   UNL     1      63.745  40.930  69.845  0.00  0.00    +0.000 C 
ATOM     19  H   UNL     1      65.026  39.259  69.575  0.00  0.00    +0.000 HD
ATOM     20  N   UNL     1      62.521  41.216  69.459  0.00  0.00    +0.000 NA
ATOM     21  C   UNL     1      62.101  40.122  68.742  0.00  0.00    +0.000 C 
ENDROOT
TORSDOF 0
ENDMDL
