MODEL 1
REMARK VINA RESULT:      -6.9      0.000      0.000
REMARK  Name = 
REMARK  14 active torsions:
REMARK  status: ('A' for Active; 'I' for Inactive)
REMARK    1  A    between atoms: O_1  and  C_14
REMARK    2  A    between atoms: O_1  and  C_15
REMARK    3  A    between atoms: O_4  and  C_16
REMARK    4  A    between atoms: O_5  and  C_18
REMARK    5  A    between atoms: O_6  and  C_26
REMARK    6  A    between atoms: O_7  and  C_29
REMARK    7  A    between atoms: O_8  and  C_35
REMARK    8  A    between atoms: O_9  and  C_36
REMARK    9  A    between atoms: O_10  and  C_39
REMARK   10  A    between atoms: O_11  and  C_40
REMARK   11  A    between atoms: O_12  and  C_41
REMARK   12  A    between atoms: O_13  and  C_43
REMARK   13  A    between atoms: C_14  and  C_20
REMARK   14  A    between atoms: C_17  and  C_24
REMARK                            x       y       z     vdW  Elec       q    Type
REMARK                         _______ _______ _______ _____ _____    ______ ____
ROOT
ATOM      1  O   UNL     1      58.050  35.596  67.832  0.00  0.00    +0.000 OA
ATOM      2  C   UNL     1      58.406  36.636  66.911  0.00  0.00    +0.000 C 
ATOM      3  C   UNL     1      57.797  36.370  65.501  0.00  0.00    +0.000 C 
ATOM      4  C   UNL     1      58.215  34.996  64.989  0.00  0.00    +0.000 C 
ATOM      5  C   UNL     1      58.016  33.940  66.035  0.00  0.00    +0.000 A 
ATOM      6  C   UNL     1      57.959  34.309  67.382  0.00  0.00    +0.000 A 
ATOM      7  C   UNL     1      57.926  32.577  65.717  0.00  0.00    +0.000 A 
ATOM      8  C   UNL     1      57.797  33.341  68.377  0.00  0.00    +0.000 A 
ATOM      9  C   UNL     1      57.786  31.604  66.702  0.00  0.00    +0.000 A 
ATOM     10  C   UNL     1      57.718  31.997  68.030  0.00  0.00    +0.000 A 
ENDROOT
BRANCH   2  11
ATOM     11  C   UNL     1      59.927  36.864  66.821  0.00  0.00    +0.000 A 
ATOM     12  C   UNL     1      60.469  37.730  65.845  0.00  0.00    +0.000 A 
ATOM     13  C   UNL     1      60.818  36.231  67.714  0.00  0.00    +0.000 A 
ATOM     14  C   UNL     1      61.843  37.932  65.771  0.00  0.00    +0.000 A 
ATOM     15  C   UNL     1      62.199  36.430  67.622  0.00  0.00    +0.000 A 
ATOM     16  C   UNL     1      62.699  37.274  66.647  0.00  0.00    +0.000 A 
BRANCH  14  17
ATOM     17  O   UNL     1      62.412  38.775  64.858  0.00  0.00    +0.000 OA
ATOM     18  H   UNL     1      62.985  39.420  65.321  0.00  0.00    +0.000 HD
ENDBRANCH  14  17
BRANCH  16  19
ATOM     19  O   UNL     1      64.047  37.472  66.560  0.00  0.00    +0.000 OA
ATOM     20  H   UNL     1      64.431  36.578  66.666  0.00  0.00    +0.000 HD
ENDBRANCH  16  19
ENDBRANCH   2  11
BRANCH   3  21
ATOM     21  O   UNL     1      56.342  36.431  65.514  0.00  0.00    +0.000 OA
ATOM     22  H   UNL     1      56.079  35.980  66.341  0.00  0.00    +0.000 HD
ENDBRANCH   3  21
BRANCH   4  23
ATOM     23  O   UNL     1      57.442  34.663  63.823  0.00  0.00    +0.000 OA
ATOM     24  H   UNL     1      58.059  34.133  63.270  0.00  0.00    +0.000 HD
ENDBRANCH   4  23
BRANCH   7  25
ATOM     25  O   UNL     1      57.954  32.140  64.419  0.00  0.00    +0.000 OA
ATOM     26  H   UNL     1      57.557  32.850  63.867  0.00  0.00    +0.000 HD
ENDBRANCH   7  25
BRANCH  10  27
ATOM     27  O   UNL     1      57.571  31.087  69.035  0.00  0.00    +0.000 OA
ATOM     28  H   UNL     1      57.949  30.241  68.740  0.00  0.00    +0.000 HD
ENDBRANCH  10  27
BRANCH   2  29
ATOM     29  O   UNL     1      57.742  37.862  67.331  0.00  0.00    +0.000 OA
BRANCH  29  31
ATOM     30  O   UNL     1      57.607  39.589  70.606  0.00  0.00    +0.000 OA
ATOM     31  C   UNL     1      57.420  37.987  68.730  0.00  0.00    +0.000 C 
ATOM     32  C   UNL     1      57.825  39.407  69.200  0.00  0.00    +0.000 C 
ATOM     33  C   UNL     1      55.917  37.830  68.983  0.00  0.00    +0.000 C 
ATOM     34  C   UNL     1      55.491  38.423  70.297  0.00  0.00    +0.000 A 
ATOM     35  C   UNL     1      56.349  39.254  71.024  0.00  0.00    +0.000 A 
ATOM     36  C   UNL     1      54.219  38.159  70.819  0.00  0.00    +0.000 A 
ATOM     37  C   UNL     1      55.964  39.771  72.264  0.00  0.00    +0.000 A 
ATOM     38  C   UNL     1      53.817  38.682  72.045  0.00  0.00    +0.000 A 
ATOM     39  C   UNL     1      54.699  39.481  72.761  0.00  0.00    +0.000 A 
BRANCH  32  40
ATOM     40  C   UNL     1      59.298  39.677  68.926  0.00  0.00    +0.000 A 
ATOM     41  C   UNL     1      59.695  40.530  67.883  0.00  0.00    +0.000 A 
ATOM     42  C   UNL     1      60.280  39.136  69.775  0.00  0.00    +0.000 A 
ATOM     43  C   UNL     1      61.039  40.865  67.732  0.00  0.00    +0.000 A 
ATOM     44  C   UNL     1      61.629  39.460  69.606  0.00  0.00    +0.000 A 
ATOM     45  C   UNL     1      62.000  40.338  68.593  0.00  0.00    +0.000 A 
BRANCH  43  46
ATOM     46  O   UNL     1      61.419  41.768  66.781  0.00  0.00    +0.000 OA
ATOM     47  H   UNL     1      60.716  42.430  66.672  0.00  0.00    +0.000 HD
ENDBRANCH  43  46
BRANCH  45  48
ATOM     48  O   UNL     1      63.304  40.719  68.449  0.00  0.00    +0.000 OA
ATOM     49  H   UNL     1      63.511  40.791  67.503  0.00  0.00    +0.000 HD
ENDBRANCH  45  48
ENDBRANCH  32  40
BRANCH  36  50
ATOM     50  O   UNL     1      53.369  37.367  70.098  0.00  0.00    +0.000 OA
ATOM     51  H   UNL     1      52.543  37.855  69.939  0.00  0.00    +0.000 HD
ENDBRANCH  36  50
BRANCH  39  52
ATOM     52  O   UNL     1      54.278  39.972  73.963  0.00  0.00    +0.000 OA
ATOM     53  H   UNL     1      54.900  39.683  74.653  0.00  0.00    +0.000 HD
ENDBRANCH  39  52
ENDBRANCH  29  31
ENDBRANCH   2  29
TORSDOF 14
ENDMDL
MODEL 2
REMARK VINA RESULT:      -6.9      6.399     11.807
REMARK  Name = 
REMARK  14 active torsions:
REMARK  status: ('A' for Active; 'I' for Inactive)
REMARK    1  A    between atoms: O_1  and  C_14
REMARK    2  A    between atoms: O_1  and  C_15
REMARK    3  A    between atoms: O_4  and  C_16
REMARK    4  A    between atoms: O_5  and  C_18
REMARK    5  A    between atoms: O_6  and  C_26
REMARK    6  A    between atoms: O_7  and  C_29
REMARK    7  A    between atoms: O_8  and  C_35
REMARK    8  A    between atoms: O_9  and  C_36
REMARK    9  A    between atoms: O_10  and  C_39
REMARK   10  A    between atoms: O_11  and  C_40
REMARK   11  A    between atoms: O_12  and  C_41
REMARK   12  A    between atoms: O_13  and  C_43
REMARK   13  A    between atoms: C_14  and  C_20
REMARK   14  A    between atoms: C_17  and  C_24
REMARK                            x       y       z     vdW  Elec       q    Type
REMARK                         _______ _______ _______ _____ _____    ______ ____
ROOT
ATOM      1  O   UNL     1      48.562  41.453  70.635  0.00  0.00    +0.000 OA
ATOM      2  C   UNL     1      49.330  40.633  71.527  0.00  0.00    +0.000 C 
ATOM      3  C   UNL     1      48.500  40.245  72.788  0.00  0.00    +0.000 C 
ATOM      4  C   UNL     1      47.973  41.495  73.486  0.00  0.00    +0.000 C 
ATOM      5  C   UNL     1      47.340  42.439  72.508  0.00  0.00    +0.000 A 
ATOM      6  C   UNL     1      47.684  42.363  71.156  0.00  0.00    +0.000 A 
ATOM      7  C   UNL     1      46.436  43.435  72.907  0.00  0.00    +0.000 A 
ATOM      8  C   UNL     1      47.125  43.246  70.229  0.00  0.00    +0.000 A 
ATOM      9  C   UNL     1      45.889  44.333  71.995  0.00  0.00    +0.000 A 
ATOM     10  C   UNL     1      46.237  44.227  70.656  0.00  0.00    +0.000 A 
ENDROOT
BRANCH   2  11
ATOM     11  C   UNL     1      50.674  41.272  71.925  0.00  0.00    +0.000 A 
ATOM     12  C   UNL     1      51.618  40.548  72.687  0.00  0.00    +0.000 A 
ATOM     13  C   UNL     1      51.007  42.586  71.531  0.00  0.00    +0.000 A 
ATOM     14  C   UNL     1      52.830  41.132  73.041  0.00  0.00    +0.000 A 
ATOM     15  C   UNL     1      52.222  43.168  71.904  0.00  0.00    +0.000 A 
ATOM     16  C   UNL     1      53.119  42.437  72.662  0.00  0.00    +0.000 A 
BRANCH  14  17
ATOM     17  O   UNL     1      53.782  40.465  73.759  0.00  0.00    +0.000 OA
ATOM     18  H   UNL     1      54.208  41.081  74.389  0.00  0.00    +0.000 HD
ENDBRANCH  14  17
BRANCH  16  19
ATOM     19  O   UNL     1      54.308  43.004  73.023  0.00  0.00    +0.000 OA
ATOM     20  H   UNL     1      54.412  43.761  72.411  0.00  0.00    +0.000 HD
ENDBRANCH  16  19
ENDBRANCH   2  11
BRANCH   3  21
ATOM     21  O   UNL     1      47.366  39.393  72.456  0.00  0.00    +0.000 OA
ATOM     22  H   UNL     1      46.959  39.813  71.672  0.00  0.00    +0.000 HD
ENDBRANCH   3  21
BRANCH   4  23
ATOM     23  O   UNL     1      47.005  41.118  74.480  0.00  0.00    +0.000 OA
ATOM     24  H   UNL     1      46.657  40.255  74.159  0.00  0.00    +0.000 HD
ENDBRANCH   4  23
BRANCH   7  25
ATOM     25  O   UNL     1      46.034  43.560  74.210  0.00  0.00    +0.000 OA
ATOM     26  H   UNL     1      46.665  43.043  74.758  0.00  0.00    +0.000 HD
ENDBRANCH   7  25
BRANCH  10  27
ATOM     27  O   UNL     1      45.724  45.075  69.718  0.00  0.00    +0.000 OA
ATOM     28  H   UNL     1      45.285  45.811  70.178  0.00  0.00    +0.000 HD
ENDBRANCH  10  27
BRANCH   2  29
ATOM     29  O   UNL     1      49.560  39.350  70.878  0.00  0.00    +0.000 OA
BRANCH  29  31
ATOM     30  O   UNL     1      50.745  38.357  67.510  0.00  0.00    +0.000 OA
ATOM     31  C   UNL     1      49.536  39.330  69.437  0.00  0.00    +0.000 C 
ATOM     32  C   UNL     1      50.651  38.376  68.942  0.00  0.00    +0.000 C 
ATOM     33  C   UNL     1      48.203  38.799  68.900  0.00  0.00    +0.000 C 
ATOM     34  C   UNL     1      48.310  38.311  67.481  0.00  0.00    +0.000 A 
ATOM     35  C   UNL     1      49.556  38.124  66.876  0.00  0.00    +0.000 A 
ATOM     36  C   UNL     1      47.157  38.027  66.737  0.00  0.00    +0.000 A 
ATOM     37  C   UNL     1      49.650  37.708  65.545  0.00  0.00    +0.000 A 
ATOM     38  C   UNL     1      47.238  37.596  65.415  0.00  0.00    +0.000 A 
ATOM     39  C   UNL     1      48.488  37.446  64.828  0.00  0.00    +0.000 A 
BRANCH  32  40
ATOM     40  C   UNL     1      52.012  38.792  69.484  0.00  0.00    +0.000 A 
ATOM     41  C   UNL     1      52.726  37.959  70.360  0.00  0.00    +0.000 A 
ATOM     42  C   UNL     1      52.607  39.988  69.043  0.00  0.00    +0.000 A 
ATOM     43  C   UNL     1      54.022  38.299  70.740  0.00  0.00    +0.000 A 
ATOM     44  C   UNL     1      53.900  40.332  69.444  0.00  0.00    +0.000 A 
ATOM     45  C   UNL     1      54.609  39.476  70.280  0.00  0.00    +0.000 A 
BRANCH  43  46
ATOM     46  O   UNL     1      54.757  37.446  71.515  0.00  0.00    +0.000 OA
ATOM     47  H   UNL     1      54.270  36.612  71.618  0.00  0.00    +0.000 HD
ENDBRANCH  43  46
BRANCH  45  48
ATOM     48  O   UNL     1      55.897  39.762  70.634  0.00  0.00    +0.000 OA
ATOM     49  H   UNL     1      55.890  40.356  71.402  0.00  0.00    +0.000 HD
ENDBRANCH  45  48
ENDBRANCH  32  40
BRANCH  36  50
ATOM     50  O   UNL     1      45.938  38.186  67.335  0.00  0.00    +0.000 OA
ATOM     51  H   UNL     1      45.947  37.730  68.194  0.00  0.00    +0.000 HD
ENDBRANCH  36  50
BRANCH  39  52
ATOM     52  O   UNL     1      48.533  37.030  63.530  0.00  0.00    +0.000 OA
ATOM     53  H   UNL     1      48.448  36.061  63.509  0.00  0.00    +0.000 HD
ENDBRANCH  39  52
ENDBRANCH  29  31
ENDBRANCH   2  29
TORSDOF 14
ENDMDL
MODEL 3
REMARK VINA RESULT:      -6.8      2.120      6.482
REMARK  Name = 
REMARK  14 active torsions:
REMARK  status: ('A' for Active; 'I' for Inactive)
REMARK    1  A    between atoms: O_1  and  C_14
REMARK    2  A    between atoms: O_1  and  C_15
REMARK    3  A    between atoms: O_4  and  C_16
REMARK    4  A    between atoms: O_5  and  C_18
REMARK    5  A    between atoms: O_6  and  C_26
REMARK    6  A    between atoms: O_7  and  C_29
REMARK    7  A    between atoms: O_8  and  C_35
REMARK    8  A    between atoms: O_9  and  C_36
REMARK    9  A    between atoms: O_10  and  C_39
REMARK   10  A    between atoms: O_11  and  C_40
REMARK   11  A    between atoms: O_12  and  C_41
REMARK   12  A    between atoms: O_13  and  C_43
REMARK   13  A    between atoms: C_14  and  C_20
REMARK   14  A    between atoms: C_17  and  C_24
REMARK                            x       y       z     vdW  Elec       q    Type
REMARK                         _______ _______ _______ _____ _____    ______ ____
ROOT
ATOM      1  O   UNL     1      56.768  38.149  69.019  0.00  0.00    +0.000 OA
ATOM      2  C   UNL     1      58.003  37.430  69.132  0.00  0.00    +0.000 C 
ATOM      3  C   UNL     1      58.079  36.653  70.482  0.00  0.00    +0.000 C 
ATOM      4  C   UNL     1      57.869  37.602  71.657  0.00  0.00    +0.000 C 
ATOM      5  C   UNL     1      56.679  38.487  71.437  0.00  0.00    +0.000 A 
ATOM      6  C   UNL     1      56.217  38.709  70.137  0.00  0.00    +0.000 A 
ATOM      7  C   UNL     1      56.028  39.141  72.493  0.00  0.00    +0.000 A 
ATOM      8  C   UNL     1      55.124  39.548  69.906  0.00  0.00    +0.000 A 
ATOM      9  C   UNL     1      54.951  39.995  72.271  0.00  0.00    +0.000 A 
ATOM     10  C   UNL     1      54.504  40.188  70.972  0.00  0.00    +0.000 A 
ENDROOT
BRANCH   2  11
ATOM     11  C   UNL     1      59.241  38.328  68.943  0.00  0.00    +0.000 A 
ATOM     12  C   UNL     1      59.131  39.576  68.290  0.00  0.00    +0.000 A 
ATOM     13  C   UNL     1      60.510  37.941  69.424  0.00  0.00    +0.000 A 
ATOM     14  C   UNL     1      60.253  40.383  68.124  0.00  0.00    +0.000 A 
ATOM     15  C   UNL     1      61.633  38.753  69.240  0.00  0.00    +0.000 A 
ATOM     16  C   UNL     1      61.495  39.963  68.586  0.00  0.00    +0.000 A 
BRANCH  14  17
ATOM     17  O   UNL     1      60.192  41.606  67.519  0.00  0.00    +0.000 OA
ATOM     18  H   UNL     1      59.450  41.619  66.881  0.00  0.00    +0.000 HD
ENDBRANCH  14  17
BRANCH  16  19
ATOM     19  O   UNL     1      62.591  40.758  68.410  0.00  0.00    +0.000 OA
ATOM     20  H   UNL     1      63.349  40.180  68.633  0.00  0.00    +0.000 HD
ENDBRANCH  16  19
ENDBRANCH   2  11
BRANCH   3  21
ATOM     21  O   UNL     1      57.079  35.597  70.561  0.00  0.00    +0.000 OA
ATOM     22  H   UNL     1      57.533  34.797  70.227  0.00  0.00    +0.000 HD
ENDBRANCH   3  21
BRANCH   4  23
ATOM     23  O   UNL     1      57.680  36.839  72.862  0.00  0.00    +0.000 OA
ATOM     24  H   UNL     1      58.445  36.221  72.876  0.00  0.00    +0.000 HD
ENDBRANCH   4  23
BRANCH   7  25
ATOM     25  O   UNL     1      56.408  38.957  73.796  0.00  0.00    +0.000 OA
ATOM     26  H   UNL     1      57.270  38.486  73.781  0.00  0.00    +0.000 HD
ENDBRANCH   7  25
BRANCH  10  27
ATOM     27  O   UNL     1      53.447  41.007  70.698  0.00  0.00    +0.000 OA
ATOM     28  H   UNL     1      53.743  41.691  70.073  0.00  0.00    +0.000 HD
ENDBRANCH  10  27
BRANCH   2  29
ATOM     29  O   UNL     1      58.002  36.365  68.139  0.00  0.00    +0.000 OA
BRANCH  29  31
ATOM     30  O   UNL     1      57.632  36.197  64.456  0.00  0.00    +0.000 OA
ATOM     31  C   UNL     1      57.371  36.649  66.875  0.00  0.00    +0.000 C 
ATOM     32  C   UNL     1      58.151  35.906  65.761  0.00  0.00    +0.000 C 
ATOM     33  C   UNL     1      55.924  36.147  66.837  0.00  0.00    +0.000 C 
ATOM     34  C   UNL     1      55.411  35.979  65.434  0.00  0.00    +0.000 A 
ATOM     35  C   UNL     1      56.281  36.017  64.340  0.00  0.00    +0.000 A 
ATOM     36  C   UNL     1      54.047  35.775  65.194  0.00  0.00    +0.000 A 
ATOM     37  C   UNL     1      55.795  35.900  63.035  0.00  0.00    +0.000 A 
ATOM     38  C   UNL     1      53.552  35.641  63.899  0.00  0.00    +0.000 A 
ATOM     39  C   UNL     1      54.434  35.711  62.828  0.00  0.00    +0.000 A 
BRANCH  32  40
ATOM     40  C   UNL     1      59.623  36.297  65.766  0.00  0.00    +0.000 A 
ATOM     41  C   UNL     1      60.030  37.582  65.374  0.00  0.00    +0.000 A 
ATOM     42  C   UNL     1      60.587  35.393  66.246  0.00  0.00    +0.000 A 
ATOM     43  C   UNL     1      61.364  37.960  65.509  0.00  0.00    +0.000 A 
ATOM     44  C   UNL     1      61.927  35.771  66.361  0.00  0.00    +0.000 A 
ATOM     45  C   UNL     1      62.307  37.062  66.006  0.00  0.00    +0.000 A 
BRANCH  43  46
ATOM     46  O   UNL     1      61.749  39.238  65.220  0.00  0.00    +0.000 OA
ATOM     47  H   UNL     1      61.085  39.856  65.569  0.00  0.00    +0.000 HD
ENDBRANCH  43  46
BRANCH  45  48
ATOM     48  O   UNL     1      63.599  37.474  66.169  0.00  0.00    +0.000 OA
ATOM     49  H   UNL     1      64.111  37.231  65.380  0.00  0.00    +0.000 HD
ENDBRANCH  45  48
ENDBRANCH  32  40
BRANCH  36  50
ATOM     50  O   UNL     1      53.198  35.713  66.264  0.00  0.00    +0.000 OA
ATOM     51  H   UNL     1      53.707  35.472  67.056  0.00  0.00    +0.000 HD
ENDBRANCH  36  50
BRANCH  39  52
ATOM     52  O   UNL     1      53.917  35.583  61.572  0.00  0.00    +0.000 OA
ATOM     53  H   UNL     1      53.179  34.950  61.601  0.00  0.00    +0.000 HD
ENDBRANCH  39  52
ENDBRANCH  29  31
ENDBRANCH   2  29
TORSDOF 14
ENDMDL
MODEL 4
REMARK VINA RESULT:      -6.7      8.140     10.526
REMARK  Name = 
REMARK  14 active torsions:
REMARK  status: ('A' for Active; 'I' for Inactive)
REMARK    1  A    between atoms: O_1  and  C_14
REMARK    2  A    between atoms: O_1  and  C_15
REMARK    3  A    between atoms: O_4  and  C_16
REMARK    4  A    between atoms: O_5  and  C_18
REMARK    5  A    between atoms: O_6  and  C_26
REMARK    6  A    between atoms: O_7  and  C_29
REMARK    7  A    between atoms: O_8  and  C_35
REMARK    8  A    between atoms: O_9  and  C_36
REMARK    9  A    between atoms: O_10  and  C_39
REMARK   10  A    between atoms: O_11  and  C_40
REMARK   11  A    between atoms: O_12  and  C_41
REMARK   12  A    between atoms: O_13  and  C_43
REMARK   13  A    between atoms: C_14  and  C_20
REMARK   14  A    between atoms: C_17  and  C_24
REMARK                            x       y       z     vdW  Elec       q    Type
REMARK                         _______ _______ _______ _____ _____    ______ ____
ROOT
ATOM      1  O   UNL     1      50.982  34.339  60.079  0.00  0.00    +0.000 OA
ATOM      2  C   UNL     1      51.949  35.196  60.703  0.00  0.00    +0.000 C 
ATOM      3  C   UNL     1      52.639  36.120  59.655  0.00  0.00    +0.000 C 
ATOM      4  C   UNL     1      53.261  35.289  58.537  0.00  0.00    +0.000 C 
ATOM      5  C   UNL     1      52.298  34.262  58.021  0.00  0.00    +0.000 A 
ATOM      6  C   UNL     1      51.234  33.849  58.828  0.00  0.00    +0.000 A 
ATOM      7  C   UNL     1      52.447  33.661  56.763  0.00  0.00    +0.000 A 
ATOM      8  C   UNL     1      50.337  32.877  58.379  0.00  0.00    +0.000 A 
ATOM      9  C   UNL     1      51.571  32.677  56.314  0.00  0.00    +0.000 A 
ATOM     10  C   UNL     1      50.515  32.295  57.129  0.00  0.00    +0.000 A 
ENDROOT
BRANCH   2  11
ATOM     11  C   UNL     1      52.994  34.421  61.529  0.00  0.00    +0.000 A 
ATOM     12  C   UNL     1      54.109  35.087  62.085  0.00  0.00    +0.000 A 
ATOM     13  C   UNL     1      52.862  33.037  61.767  0.00  0.00    +0.000 A 
ATOM     14  C   UNL     1      55.047  34.382  62.832  0.00  0.00    +0.000 A 
ATOM     15  C   UNL     1      53.818  32.334  62.507  0.00  0.00    +0.000 A 
ATOM     16  C   UNL     1      54.905  33.013  63.027  0.00  0.00    +0.000 A 
BRANCH  14  17
ATOM     17  O   UNL     1      56.130  34.985  63.407  0.00  0.00    +0.000 OA
ATOM     18  H   UNL     1      56.950  34.646  62.994  0.00  0.00    +0.000 HD
ENDBRANCH  14  17
BRANCH  16  19
ATOM     19  O   UNL     1      55.836  32.328  63.753  0.00  0.00    +0.000 OA
ATOM     20  H   UNL     1      55.593  31.387  63.636  0.00  0.00    +0.000 HD
ENDBRANCH  16  19
ENDBRANCH   2  11
BRANCH   3  21
ATOM     21  O   UNL     1      51.705  37.064  59.058  0.00  0.00    +0.000 OA
ATOM     22  H   UNL     1      52.232  37.873  58.899  0.00  0.00    +0.000 HD
ENDBRANCH   3  21
BRANCH   4  23
ATOM     23  O   UNL     1      53.657  36.155  57.459  0.00  0.00    +0.000 OA
ATOM     24  H   UNL     1      54.252  35.596  56.909  0.00  0.00    +0.000 HD
ENDBRANCH   4  23
BRANCH   7  25
ATOM     25  O   UNL     1      53.452  34.027  55.907  0.00  0.00    +0.000 OA
ATOM     26  H   UNL     1      53.207  33.694  55.015  0.00  0.00    +0.000 HD
ENDBRANCH   7  25
BRANCH  10  27
ATOM     27  O   UNL     1      49.622  31.342  56.736  0.00  0.00    +0.000 OA
ATOM     28  H   UNL     1      50.080  30.713  56.154  0.00  0.00    +0.000 HD
ENDBRANCH  10  27
BRANCH   2  29
ATOM     29  O   UNL     1      51.238  36.139  61.555  0.00  0.00    +0.000 OA
BRANCH  29  31
ATOM     30  O   UNL     1      49.019  35.734  64.494  0.00  0.00    +0.000 OA
ATOM     31  C   UNL     1      50.086  35.642  62.264  0.00  0.00    +0.000 C 
ATOM     32  C   UNL     1      50.095  36.240  63.693  0.00  0.00    +0.000 C 
ATOM     33  C   UNL     1      48.778  36.072  61.593  0.00  0.00    +0.000 C 
ATOM     34  C   UNL     1      47.603  36.004  62.530  0.00  0.00    +0.000 A 
ATOM     35  C   UNL     1      47.788  35.838  63.906  0.00  0.00    +0.000 A 
ATOM     36  C   UNL     1      46.295  36.112  62.042  0.00  0.00    +0.000 A 
ATOM     37  C   UNL     1      46.693  35.737  64.768  0.00  0.00    +0.000 A 
ATOM     38  C   UNL     1      45.196  36.029  62.893  0.00  0.00    +0.000 A 
ATOM     39  C   UNL     1      45.407  35.836  64.252  0.00  0.00    +0.000 A 
BRANCH  32  40
ATOM     40  C   UNL     1      51.396  35.916  64.416  0.00  0.00    +0.000 A 
ATOM     41  C   UNL     1      52.358  36.910  64.653  0.00  0.00    +0.000 A 
ATOM     42  C   UNL     1      51.609  34.624  64.931  0.00  0.00    +0.000 A 
ATOM     43  C   UNL     1      53.479  36.622  65.429  0.00  0.00    +0.000 A 
ATOM     44  C   UNL     1      52.745  34.337  65.691  0.00  0.00    +0.000 A 
ATOM     45  C   UNL     1      53.669  35.344  65.951  0.00  0.00    +0.000 A 
BRANCH  43  46
ATOM     46  O   UNL     1      54.369  37.609  65.743  0.00  0.00    +0.000 OA
ATOM     47  H   UNL     1      53.888  38.446  65.860  0.00  0.00    +0.000 HD
ENDBRANCH  43  46
BRANCH  45  48
ATOM     48  O   UNL     1      54.754  35.102  66.744  0.00  0.00    +0.000 OA
ATOM     49  H   UNL     1      54.914  34.145  66.778  0.00  0.00    +0.000 HD
ENDBRANCH  45  48
ENDBRANCH  32  40
BRANCH  36  50
ATOM     50  O   UNL     1      46.112  36.299  60.700  0.00  0.00    +0.000 OA
ATOM     51  H   UNL     1      45.520  37.059  60.566  0.00  0.00    +0.000 HD
ENDBRANCH  36  50
BRANCH  39  52
ATOM     52  O   UNL     1      44.309  35.750  65.058  0.00  0.00    +0.000 OA
ATOM     53  H   UNL     1      43.559  35.428  64.531  0.00  0.00    +0.000 HD
ENDBRANCH  39  52
ENDBRANCH  29  31
ENDBRANCH   2  29
TORSDOF 14
ENDMDL
MODEL 5
REMARK VINA RESULT:      -6.2      2.524      8.270
REMARK  Name = 
REMARK  14 active torsions:
REMARK  status: ('A' for Active; 'I' for Inactive)
REMARK    1  A    between atoms: O_1  and  C_14
REMARK    2  A    between atoms: O_1  and  C_15
REMARK    3  A    between atoms: O_4  and  C_16
REMARK    4  A    between atoms: O_5  and  C_18
REMARK    5  A    between atoms: O_6  and  C_26
REMARK    6  A    between atoms: O_7  and  C_29
REMARK    7  A    between atoms: O_8  and  C_35
REMARK    8  A    between atoms: O_9  and  C_36
REMARK    9  A    between atoms: O_10  and  C_39
REMARK   10  A    between atoms: O_11  and  C_40
REMARK   11  A    between atoms: O_12  and  C_41
REMARK   12  A    between atoms: O_13  and  C_43
REMARK   13  A    between atoms: C_14  and  C_20
REMARK   14  A    between atoms: C_17  and  C_24
REMARK                            x       y       z     vdW  Elec       q    Type
REMARK                         _______ _______ _______ _____ _____    ______ ____
ROOT
ATOM      1  O   UNL     1      62.150  37.540  68.431  0.00  0.00    +0.000 OA
ATOM      2  C   UNL     1      60.932  37.845  67.738  0.00  0.00    +0.000 C 
ATOM      3  C   UNL     1      61.007  39.249  67.064  0.00  0.00    +0.000 C 
ATOM      4  C   UNL     1      61.351  40.319  68.095  0.00  0.00    +0.000 C 
ATOM      5  C   UNL     1      62.513  39.901  68.946  0.00  0.00    +0.000 A 
ATOM      6  C   UNL     1      62.826  38.545  69.066  0.00  0.00    +0.000 A 
ATOM      7  C   UNL     1      63.282  40.825  69.669  0.00  0.00    +0.000 A 
ATOM      8  C   UNL     1      63.889  38.130  69.871  0.00  0.00    +0.000 A 
ATOM      9  C   UNL     1      64.330  40.420  70.490  0.00  0.00    +0.000 A 
ATOM     10  C   UNL     1      64.629  39.069  70.581  0.00  0.00    +0.000 A 
ENDROOT
BRANCH   2  11
ATOM     11  C   UNL     1      59.685  37.729  68.635  0.00  0.00    +0.000 A 
ATOM     12  C   UNL     1      58.491  38.406  68.299  0.00  0.00    +0.000 A 
ATOM     13  C   UNL     1      59.691  36.936  69.802  0.00  0.00    +0.000 A 
ATOM     14  C   UNL     1      57.368  38.294  69.112  0.00  0.00    +0.000 A 
ATOM     15  C   UNL     1      58.562  36.842  70.621  0.00  0.00    +0.000 A 
ATOM     16  C   UNL     1      57.413  37.528  70.271  0.00  0.00    +0.000 A 
BRANCH  14  17
ATOM     17  O   UNL     1      56.185  38.913  68.818  0.00  0.00    +0.000 OA
ATOM     18  H   UNL     1      56.182  39.812  69.204  0.00  0.00    +0.000 HD
ENDBRANCH  14  17
BRANCH  16  19
ATOM     19  O   UNL     1      56.308  37.433  71.068  0.00  0.00    +0.000 OA
ATOM     20  H   UNL     1      56.235  36.477  71.268  0.00  0.00    +0.000 HD
ENDBRANCH  16  19
ENDBRANCH   2  11
BRANCH   3  21
ATOM     21  O   UNL     1      62.004  39.295  66.004  0.00  0.00    +0.000 OA
ATOM     22  H   UNL     1      61.640  38.730  65.292  0.00  0.00    +0.000 HD
ENDBRANCH   3  21
BRANCH   4  23
ATOM     23  O   UNL     1      61.671  41.549  67.421  0.00  0.00    +0.000 OA
ATOM     24  H   UNL     1      60.840  42.072  67.469  0.00  0.00    +0.000 HD
ENDBRANCH   4  23
BRANCH   7  25
ATOM     25  O   UNL     1      63.050  42.173  69.587  0.00  0.00    +0.000 OA
ATOM     26  H   UNL     1      63.869  42.586  69.235  0.00  0.00    +0.000 HD
ENDBRANCH   7  25
BRANCH  10  27
ATOM     27  O   UNL     1      65.651  38.617  71.363  0.00  0.00    +0.000 OA
ATOM     28  H   UNL     1      65.306  38.461  72.259  0.00  0.00    +0.000 HD
ENDBRANCH  10  27
BRANCH   2  29
ATOM     29  O   UNL     1      60.817  36.941  66.603  0.00  0.00    +0.000 OA
BRANCH  29  31
ATOM     30  O   UNL     1      59.433  33.552  66.029  0.00  0.00    +0.000 OA
ATOM     31  C   UNL     1      60.619  35.544  66.895  0.00  0.00    +0.000 C 
ATOM     32  C   UNL     1      59.744  34.929  65.774  0.00  0.00    +0.000 C 
ATOM     33  C   UNL     1      61.944  34.775  66.918  0.00  0.00    +0.000 C 
ATOM     34  C   UNL     1      61.752  33.295  66.731  0.00  0.00    +0.000 A 
ATOM     35  C   UNL     1      60.525  32.776  66.307  0.00  0.00    +0.000 A 
ATOM     36  C   UNL     1      62.805  32.405  66.973  0.00  0.00    +0.000 A 
ATOM     37  C   UNL     1      60.340  31.398  66.172  0.00  0.00    +0.000 A 
ATOM     38  C   UNL     1      62.638  31.030  66.826  0.00  0.00    +0.000 A 
ATOM     39  C   UNL     1      61.401  30.538  66.431  0.00  0.00    +0.000 A 
BRANCH  32  40
ATOM     40  C   UNL     1      58.424  35.677  65.634  0.00  0.00    +0.000 A 
ATOM     41  C   UNL     1      58.164  36.479  64.512  0.00  0.00    +0.000 A 
ATOM     42  C   UNL     1      57.414  35.502  66.597  0.00  0.00    +0.000 A 
ATOM     43  C   UNL     1      56.904  37.048  64.342  0.00  0.00    +0.000 A 
ATOM     44  C   UNL     1      56.158  36.092  66.430  0.00  0.00    +0.000 A 
ATOM     45  C   UNL     1      55.904  36.851  65.292  0.00  0.00    +0.000 A 
BRANCH  43  46
ATOM     46  O   UNL     1      56.614  37.750  63.206  0.00  0.00    +0.000 OA
ATOM     47  H   UNL     1      56.066  38.518  63.438  0.00  0.00    +0.000 HD
ENDBRANCH  43  46
BRANCH  45  48
ATOM     48  O   UNL     1      54.665  37.385  65.077  0.00  0.00    +0.000 OA
ATOM     49  H   UNL     1      54.472  37.365  64.126  0.00  0.00    +0.000 HD
ENDBRANCH  45  48
ENDBRANCH  32  40
BRANCH  36  50
ATOM     50  O   UNL     1      64.013  32.912  67.364  0.00  0.00    +0.000 OA
ATOM     51  H   UNL     1      63.861  33.642  67.988  0.00  0.00    +0.000 HD
ENDBRANCH  36  50
BRANCH  39  52
ATOM     52  O   UNL     1      61.267  29.186  66.304  0.00  0.00    +0.000 OA
ATOM     53  H   UNL     1      62.146  28.798  66.150  0.00  0.00    +0.000 HD
ENDBRANCH  39  52
ENDBRANCH  29  31
ENDBRANCH   2  29
TORSDOF 14
ENDMDL
MODEL 6
REMARK VINA RESULT:      -6.0     19.840     22.262
REMARK  Name = 
REMARK  14 active torsions:
REMARK  status: ('A' for Active; 'I' for Inactive)
REMARK    1  A    between atoms: O_1  and  C_14
REMARK    2  A    between atoms: O_1  and  C_15
REMARK    3  A    between atoms: O_4  and  C_16
REMARK    4  A    between atoms: O_5  and  C_18
REMARK    5  A    between atoms: O_6  and  C_26
REMARK    6  A    between atoms: O_7  and  C_29
REMARK    7  A    between atoms: O_8  and  C_35
REMARK    8  A    between atoms: O_9  and  C_36
REMARK    9  A    between atoms: O_10  and  C_39
REMARK   10  A    between atoms: O_11  and  C_40
REMARK   11  A    between atoms: O_12  and  C_41
REMARK   12  A    between atoms: O_13  and  C_43
REMARK   13  A    between atoms: C_14  and  C_20
REMARK   14  A    between atoms: C_17  and  C_24
REMARK                            x       y       z     vdW  Elec       q    Type
REMARK                         _______ _______ _______ _____ _____    ______ ____
ROOT
ATOM      1  O   UNL     1      51.352  48.354  84.761  0.00  0.00    +0.000 OA
ATOM      2  C   UNL     1      51.629  49.056  85.980  0.00  0.00    +0.000 C 
ATOM      3  C   UNL     1      50.427  49.960  86.393  0.00  0.00    +0.000 C 
ATOM      4  C   UNL     1      50.065  50.917  85.261  0.00  0.00    +0.000 C 
ATOM      5  C   UNL     1      49.968  50.198  83.949  0.00  0.00    +0.000 A 
ATOM      6  C   UNL     1      50.624  48.975  83.784  0.00  0.00    +0.000 A 
ATOM      7  C   UNL     1      49.270  50.728  82.854  0.00  0.00    +0.000 A 
ATOM      8  C   UNL     1      50.567  48.298  82.564  0.00  0.00    +0.000 A 
ATOM      9  C   UNL     1      49.224  50.071  81.628  0.00  0.00    +0.000 A 
ATOM     10  C   UNL     1      49.873  48.852  81.495  0.00  0.00    +0.000 A 
ENDROOT
BRANCH   2  11
ATOM     11  C   UNL     1      52.936  49.869  85.923  0.00  0.00    +0.000 A 
ATOM     12  C   UNL     1      53.666  49.975  84.717  0.00  0.00    +0.000 A 
ATOM     13  C   UNL     1      53.435  50.540  87.060  0.00  0.00    +0.000 A 
ATOM     14  C   UNL     1      54.844  50.712  84.672  0.00  0.00    +0.000 A 
ATOM     15  C   UNL     1      54.628  51.267  87.007  0.00  0.00    +0.000 A 
ATOM     16  C   UNL     1      55.324  51.340  85.815  0.00  0.00    +0.000 A 
BRANCH  14  17
ATOM     17  O   UNL     1      55.572  50.861  83.525  0.00  0.00    +0.000 OA
ATOM     18  H   UNL     1      54.993  51.196  82.811  0.00  0.00    +0.000 HD
ENDBRANCH  14  17
BRANCH  16  19
ATOM     19  O   UNL     1      56.488  52.054  85.762  0.00  0.00    +0.000 OA
ATOM     20  H   UNL     1      56.829  51.895  84.859  0.00  0.00    +0.000 HD
ENDBRANCH  16  19
ENDBRANCH   2  11
BRANCH   3  21
ATOM     21  O   UNL     1      49.245  49.178  86.728  0.00  0.00    +0.000 OA
ATOM     22  H   UNL     1      49.351  48.340  86.235  0.00  0.00    +0.000 HD
ENDBRANCH   3  21
BRANCH   4  23
ATOM     23  O   UNL     1      48.807  51.550  85.553  0.00  0.00    +0.000 OA
ATOM     24  H   UNL     1      48.997  52.106  86.341  0.00  0.00    +0.000 HD
ENDBRANCH   4  23
BRANCH   7  25
ATOM     25  O   UNL     1      48.584  51.910  82.945  0.00  0.00    +0.000 OA
ATOM     26  H   UNL     1      47.657  51.728  82.676  0.00  0.00    +0.000 HD
ENDBRANCH   7  25
BRANCH  10  27
ATOM     27  O   UNL     1      49.853  48.161  80.319  0.00  0.00    +0.000 OA
ATOM     28  H   UNL     1      49.357  47.336  80.456  0.00  0.00    +0.000 HD
ENDBRANCH  10  27
BRANCH   2  29
ATOM     29  O   UNL     1      51.693  48.082  87.060  0.00  0.00    +0.000 OA
BRANCH  29  31
ATOM     30  O   UNL     1      52.972  44.608  87.205  0.00  0.00    +0.000 OA
ATOM     31  C   UNL     1      51.743  46.691  86.687  0.00  0.00    +0.000 C 
ATOM     32  C   UNL     1      52.805  45.986  87.567  0.00  0.00    +0.000 C 
ATOM     33  C   UNL     1      50.403  45.990  86.931  0.00  0.00    +0.000 C 
ATOM     34  C   UNL     1      50.546  44.496  87.023  0.00  0.00    +0.000 A 
ATOM     35  C   UNL     1      51.803  43.899  87.150  0.00  0.00    +0.000 A 
ATOM     36  C   UNL     1      49.415  43.669  86.990  0.00  0.00    +0.000 A 
ATOM     37  C   UNL     1      51.934  42.509  87.196  0.00  0.00    +0.000 A 
ATOM     38  C   UNL     1      49.532  42.283  87.052  0.00  0.00    +0.000 A 
ATOM     39  C   UNL     1      50.795  41.714  87.149  0.00  0.00    +0.000 A 
BRANCH  32  40
ATOM     40  C   UNL     1      54.163  46.661  87.437  0.00  0.00    +0.000 A 
ATOM     41  C   UNL     1      54.832  46.707  86.204  0.00  0.00    +0.000 A 
ATOM     42  C   UNL     1      54.727  47.322  88.543  0.00  0.00    +0.000 A 
ATOM     43  C   UNL     1      56.010  47.441  86.078  0.00  0.00    +0.000 A 
ATOM     44  C   UNL     1      55.919  48.040  88.416  0.00  0.00    +0.000 A 
ATOM     45  C   UNL     1      56.547  48.109  87.177  0.00  0.00    +0.000 A 
BRANCH  43  46
ATOM     46  O   UNL     1      56.613  47.569  84.860  0.00  0.00    +0.000 OA
ATOM     47  H   UNL     1      56.631  48.508  84.611  0.00  0.00    +0.000 HD
ENDBRANCH  43  46
BRANCH  45  48
ATOM     48  O   UNL     1      57.679  48.856  87.015  0.00  0.00    +0.000 OA
ATOM     49  H   UNL     1      58.218  48.466  86.308  0.00  0.00    +0.000 HD
ENDBRANCH  45  48
ENDBRANCH  32  40
BRANCH  36  50
ATOM     50  O   UNL     1      48.183  44.252  86.891  0.00  0.00    +0.000 OA
ATOM     51  H   UNL     1      48.002  44.450  85.957  0.00  0.00    +0.000 HD
ENDBRANCH  36  50
BRANCH  39  52
ATOM     52  O   UNL     1      50.876  40.353  87.200  0.00  0.00    +0.000 OA
ATOM     53  H   UNL     1      51.784  40.085  86.977  0.00  0.00    +0.000 HD
ENDBRANCH  39  52
ENDBRANCH  29  31
ENDBRANCH   2  29
TORSDOF 14
ENDMDL
MODEL 7
REMARK VINA RESULT:      -6.0      9.560     14.927
REMARK  Name = 
REMARK  14 active torsions:
REMARK  status: ('A' for Active; 'I' for Inactive)
REMARK    1  A    between atoms: O_1  and  C_14
REMARK    2  A    between atoms: O_1  and  C_15
REMARK    3  A    between atoms: O_4  and  C_16
REMARK    4  A    between atoms: O_5  and  C_18
REMARK    5  A    between atoms: O_6  and  C_26
REMARK    6  A    between atoms: O_7  and  C_29
REMARK    7  A    between atoms: O_8  and  C_35
REMARK    8  A    between atoms: O_9  and  C_36
REMARK    9  A    between atoms: O_10  and  C_39
REMARK   10  A    between atoms: O_11  and  C_40
REMARK   11  A    between atoms: O_12  and  C_41
REMARK   12  A    between atoms: O_13  and  C_43
REMARK   13  A    between atoms: C_14  and  C_20
REMARK   14  A    between atoms: C_17  and  C_24
REMARK                            x       y       z     vdW  Elec       q    Type
REMARK                         _______ _______ _______ _____ _____    ______ ____
ROOT
ATOM      1  O   UNL     1      44.293  40.639  68.258  0.00  0.00    +0.000 OA
ATOM      2  C   UNL     1      44.418  40.446  69.674  0.00  0.00    +0.000 C 
ATOM      3  C   UNL     1      43.076  39.951  70.293  0.00  0.00    +0.000 C 
ATOM      4  C   UNL     1      41.943  40.914  69.954  0.00  0.00    +0.000 C 
ATOM      5  C   UNL     1      41.941  41.261  68.495  0.00  0.00    +0.000 A 
ATOM      6  C   UNL     1      43.115  41.112  67.750  0.00  0.00    +0.000 A 
ATOM      7  C   UNL     1      40.807  41.775  67.848  0.00  0.00    +0.000 A 
ATOM      8  C   UNL     1      43.144  41.450  66.395  0.00  0.00    +0.000 A 
ATOM      9  C   UNL     1      40.832  42.134  66.504  0.00  0.00    +0.000 A 
ATOM     10  C   UNL     1      42.006  41.963  65.785  0.00  0.00    +0.000 A 
ENDROOT
BRANCH   2  11
ATOM     11  C   UNL     1      44.936  41.698  70.407  0.00  0.00    +0.000 A 
ATOM     12  C   UNL     1      45.608  42.720  69.700  0.00  0.00    +0.000 A 
ATOM     13  C   UNL     1      44.743  41.869  71.795  0.00  0.00    +0.000 A 
ATOM     14  C   UNL     1      46.071  43.849  70.369  0.00  0.00    +0.000 A 
ATOM     15  C   UNL     1      45.225  43.000  72.460  0.00  0.00    +0.000 A 
ATOM     16  C   UNL     1      45.890  43.976  71.741  0.00  0.00    +0.000 A 
BRANCH  14  17
ATOM     17  O   UNL     1      46.707  44.873  69.725  0.00  0.00    +0.000 OA
ATOM     18  H   UNL     1      46.868  44.622  68.793  0.00  0.00    +0.000 HD
ENDBRANCH  14  17
BRANCH  16  19
ATOM     19  O   UNL     1      46.357  45.083  72.389  0.00  0.00    +0.000 OA
ATOM     20  H   UNL     1      47.000  44.732  73.038  0.00  0.00    +0.000 HD
ENDBRANCH  16  19
ENDBRANCH   2  11
BRANCH   3  21
ATOM     21  O   UNL     1      42.709  38.625  69.815  0.00  0.00    +0.000 OA
ATOM     22  H   UNL     1      41.796  38.486  70.137  0.00  0.00    +0.000 HD
ENDBRANCH   3  21
BRANCH   4  23
ATOM     23  O   UNL     1      40.683  40.315  70.302  0.00  0.00    +0.000 OA
ATOM     24  H   UNL     1      40.015  40.973  70.007  0.00  0.00    +0.000 HD
ENDBRANCH   4  23
BRANCH   7  25
ATOM     25  O   UNL     1      39.616  41.930  68.505  0.00  0.00    +0.000 OA
ATOM     26  H   UNL     1      39.208  42.760  68.171  0.00  0.00    +0.000 HD
ENDBRANCH   7  25
BRANCH  10  27
ATOM     27  O   UNL     1      42.084  42.290  64.462  0.00  0.00    +0.000 OA
ATOM     28  H   UNL     1      43.019  42.428  64.235  0.00  0.00    +0.000 HD
ENDBRANCH  10  27
BRANCH   2  29
ATOM     29  O   UNL     1      45.318  39.325  69.901  0.00  0.00    +0.000 OA
BRANCH  29  31
ATOM     30  O   UNL     1      48.810  38.559  68.926  0.00  0.00    +0.000 OA
ATOM     31  C   UNL     1      46.411  39.164  68.976  0.00  0.00    +0.000 C 
ATOM     32  C   UNL     1      47.651  38.672  69.764  0.00  0.00    +0.000 C 
ATOM     33  C   UNL     1      46.099  38.112  67.907  0.00  0.00    +0.000 C 
ATOM     34  C   UNL     1      47.340  37.574  67.251  0.00  0.00    +0.000 A 
ATOM     35  C   UNL     1      48.606  37.827  67.788  0.00  0.00    +0.000 A 
ATOM     36  C   UNL     1      47.252  36.800  66.088  0.00  0.00    +0.000 A 
ATOM     37  C   UNL     1      49.759  37.358  67.154  0.00  0.00    +0.000 A 
ATOM     38  C   UNL     1      48.394  36.313  65.455  0.00  0.00    +0.000 A 
ATOM     39  C   UNL     1      49.641  36.603  65.993  0.00  0.00    +0.000 A 
BRANCH  32  40
ATOM     40  C   UNL     1      47.998  39.630  70.896  0.00  0.00    +0.000 A 
ATOM     41  C   UNL     1      48.649  40.847  70.639  0.00  0.00    +0.000 A 
ATOM     42  C   UNL     1      47.591  39.339  72.211  0.00  0.00    +0.000 A 
ATOM     43  C   UNL     1      48.841  41.764  71.670  0.00  0.00    +0.000 A 
ATOM     44  C   UNL     1      47.804  40.255  73.244  0.00  0.00    +0.000 A 
ATOM     45  C   UNL     1      48.415  41.473  72.964  0.00  0.00    +0.000 A 
BRANCH  43  46
ATOM     46  O   UNL     1      49.387  42.988  71.408  0.00  0.00    +0.000 OA
ATOM     47  H   UNL     1      49.564  43.444  72.248  0.00  0.00    +0.000 HD
ENDBRANCH  43  46
BRANCH  45  48
ATOM     48  O   UNL     1      48.575  42.409  73.946  0.00  0.00    +0.000 OA
ATOM     49  H   UNL     1      47.829  42.351  74.564  0.00  0.00    +0.000 HD
ENDBRANCH  45  48
ENDBRANCH  32  40
BRANCH  36  50
ATOM     50  O   UNL     1      46.015  36.530  65.574  0.00  0.00    +0.000 OA
ATOM     51  H   UNL     1      45.996  36.796  64.639  0.00  0.00    +0.000 HD
ENDBRANCH  36  50
BRANCH  39  52
ATOM     52  O   UNL     1      50.740  36.117  65.346  0.00  0.00    +0.000 OA
ATOM     53  H   UNL     1      50.499  35.286  64.903  0.00  0.00    +0.000 HD
ENDBRANCH  39  52
ENDBRANCH  29  31
ENDBRANCH   2  29
TORSDOF 14
ENDMDL
MODEL 8
REMARK VINA RESULT:      -5.9     17.245     20.430
REMARK  Name = 
REMARK  14 active torsions:
REMARK  status: ('A' for Active; 'I' for Inactive)
REMARK    1  A    between atoms: O_1  and  C_14
REMARK    2  A    between atoms: O_1  and  C_15
REMARK    3  A    between atoms: O_4  and  C_16
REMARK    4  A    between atoms: O_5  and  C_18
REMARK    5  A    between atoms: O_6  and  C_26
REMARK    6  A    between atoms: O_7  and  C_29
REMARK    7  A    between atoms: O_8  and  C_35
REMARK    8  A    between atoms: O_9  and  C_36
REMARK    9  A    between atoms: O_10  and  C_39
REMARK   10  A    between atoms: O_11  and  C_40
REMARK   11  A    between atoms: O_12  and  C_41
REMARK   12  A    between atoms: O_13  and  C_43
REMARK   13  A    between atoms: C_14  and  C_20
REMARK   14  A    between atoms: C_17  and  C_24
REMARK                            x       y       z     vdW  Elec       q    Type
REMARK                         _______ _______ _______ _____ _____    ______ ____
ROOT
ATOM      1  O   UNL     1      59.928  55.313  58.624  0.00  0.00    +0.000 OA
ATOM      2  C   UNL     1      60.618  54.740  59.743  0.00  0.00    +0.000 C 
ATOM      3  C   UNL     1      60.127  55.363  61.085  0.00  0.00    +0.000 C 
ATOM      4  C   UNL     1      60.269  56.881  61.053  0.00  0.00    +0.000 C 
ATOM      5  C   UNL     1      59.713  57.454  59.784  0.00  0.00    +0.000 A 
ATOM      6  C   UNL     1      59.591  56.637  58.656  0.00  0.00    +0.000 A 
ATOM      7  C   UNL     1      59.344  58.802  59.669  0.00  0.00    +0.000 A 
ATOM      8  C   UNL     1      59.097  57.154  57.455  0.00  0.00    +0.000 A 
ATOM      9  C   UNL     1      58.871  59.331  58.471  0.00  0.00    +0.000 A 
ATOM     10  C   UNL     1      58.746  58.496  57.371  0.00  0.00    +0.000 A 
ENDROOT
BRANCH   2  11
ATOM     11  C   UNL     1      62.151  54.838  59.618  0.00  0.00    +0.000 A 
ATOM     12  C   UNL     1      62.744  55.429  58.479  0.00  0.00    +0.000 A 
ATOM     13  C   UNL     1      63.003  54.357  60.635  0.00  0.00    +0.000 A 
ATOM     14  C   UNL     1      64.128  55.516  58.374  0.00  0.00    +0.000 A 
ATOM     15  C   UNL     1      64.394  54.437  60.513  0.00  0.00    +0.000 A 
ATOM     16  C   UNL     1      64.942  55.009  59.380  0.00  0.00    +0.000 A 
BRANCH  14  17
ATOM     17  O   UNL     1      64.746  56.098  57.303  0.00  0.00    +0.000 OA
ATOM     18  H   UNL     1      65.091  56.976  57.562  0.00  0.00    +0.000 HD
ENDBRANCH  14  17
BRANCH  16  19
ATOM     19  O   UNL     1      66.300  55.091  59.262  0.00  0.00    +0.000 OA
ATOM     20  H   UNL     1      66.629  55.017  60.181  0.00  0.00    +0.000 HD
ENDBRANCH  16  19
ENDBRANCH   2  11
BRANCH   3  21
ATOM     21  O   UNL     1      58.734  55.038  61.361  0.00  0.00    +0.000 OA
ATOM     22  H   UNL     1      58.533  55.493  62.204  0.00  0.00    +0.000 HD
ENDBRANCH   3  21
BRANCH   4  23
ATOM     23  O   UNL     1      59.576  57.451  62.177  0.00  0.00    +0.000 OA
ATOM     24  H   UNL     1      58.840  57.961  61.771  0.00  0.00    +0.000 HD
ENDBRANCH   4  23
BRANCH   7  25
ATOM     25  O   UNL     1      59.415  59.659  60.735  0.00  0.00    +0.000 OA
ATOM     26  H   UNL     1      60.368  59.799  60.930  0.00  0.00    +0.000 HD
ENDBRANCH   7  25
BRANCH  10  27
ATOM     27  O   UNL     1      58.280  58.960  56.175  0.00  0.00    +0.000 OA
ATOM     28  H   UNL     1      59.008  58.936  55.532  0.00  0.00    +0.000 HD
ENDBRANCH  10  27
BRANCH   2  29
ATOM     29  O   UNL     1      60.215  53.346  59.860  0.00  0.00    +0.000 OA
BRANCH  29  31
ATOM     30  O   UNL     1      59.466  50.730  57.345  0.00  0.00    +0.000 OA
ATOM     31  C   UNL     1      59.510  52.771  58.743  0.00  0.00    +0.000 C 
ATOM     32  C   UNL     1      60.064  51.346  58.495  0.00  0.00    +0.000 C 
ATOM     33  C   UNL     1      58.010  52.639  59.025  0.00  0.00    +0.000 C 
ATOM     34  C   UNL     1      57.344  51.633  58.128  0.00  0.00    +0.000 A 
ATOM     35  C   UNL     1      58.098  50.751  57.349  0.00  0.00    +0.000 A 
ATOM     36  C   UNL     1      55.947  51.554  58.060  0.00  0.00    +0.000 A 
ATOM     37  C   UNL     1      57.476  49.844  56.488  0.00  0.00    +0.000 A 
ATOM     38  C   UNL     1      55.314  50.643  57.218  0.00  0.00    +0.000 A 
ATOM     39  C   UNL     1      56.088  49.798  56.433  0.00  0.00    +0.000 A 
BRANCH  32  40
ATOM     40  C   UNL     1      61.570  51.374  58.267  0.00  0.00    +0.000 A 
ATOM     41  C   UNL     1      62.119  52.014  57.145  0.00  0.00    +0.000 A 
ATOM     42  C   UNL     1      62.435  50.826  59.231  0.00  0.00    +0.000 A 
ATOM     43  C   UNL     1      63.501  52.139  57.024  0.00  0.00    +0.000 A 
ATOM     44  C   UNL     1      63.821  50.938  59.094  0.00  0.00    +0.000 A 
ATOM     45  C   UNL     1      64.348  51.610  57.996  0.00  0.00    +0.000 A 
BRANCH  43  46
ATOM     46  O   UNL     1      64.039  52.844  55.984  0.00  0.00    +0.000 OA
ATOM     47  H   UNL     1      64.712  53.454  56.328  0.00  0.00    +0.000 HD
ENDBRANCH  43  46
BRANCH  45  48
ATOM     48  O   UNL     1      65.697  51.787  57.874  0.00  0.00    +0.000 OA
ATOM     49  H   UNL     1      66.151  50.989  58.189  0.00  0.00    +0.000 HD
ENDBRANCH  45  48
ENDBRANCH  32  40
BRANCH  36  50
ATOM     50  O   UNL     1      55.206  52.398  58.840  0.00  0.00    +0.000 OA
ATOM     51  H   UNL     1      54.668  51.869  59.453  0.00  0.00    +0.000 HD
ENDBRANCH  36  50
BRANCH  39  52
ATOM     52  O   UNL     1      55.438  48.922  55.612  0.00  0.00    +0.000 OA
ATOM     53  H   UNL     1      54.578  49.305  55.366  0.00  0.00    +0.000 HD
ENDBRANCH  39  52
ENDBRANCH  29  31
ENDBRANCH   2  29
TORSDOF 14
ENDMDL
MODEL 9
REMARK VINA RESULT:      -5.7      3.452      6.667
REMARK  Name = 
REMARK  14 active torsions:
REMARK  status: ('A' for Active; 'I' for Inactive)
REMARK    1  A    between atoms: O_1  and  C_14
REMARK    2  A    between atoms: O_1  and  C_15
REMARK    3  A    between atoms: O_4  and  C_16
REMARK    4  A    between atoms: O_5  and  C_18
REMARK    5  A    between atoms: O_6  and  C_26
REMARK    6  A    between atoms: O_7  and  C_29
REMARK    7  A    between atoms: O_8  and  C_35
REMARK    8  A    between atoms: O_9  and  C_36
REMARK    9  A    between atoms: O_10  and  C_39
REMARK   10  A    between atoms: O_11  and  C_40
REMARK   11  A    between atoms: O_12  and  C_41
REMARK   12  A    between atoms: O_13  and  C_43
REMARK   13  A    between atoms: C_14  and  C_20
REMARK   14  A    between atoms: C_17  and  C_24
REMARK                            x       y       z     vdW  Elec       q    Type
REMARK                         _______ _______ _______ _____ _____    ______ ____
ROOT
ATOM      1  O   UNL     1      59.164  38.156  69.842  0.00  0.00    +0.000 OA
ATOM      2  C   UNL     1      59.612  38.406  71.182  0.00  0.00    +0.000 C 
ATOM      3  C   UNL     1      60.719  39.503  71.208  0.00  0.00    +0.000 C 
ATOM      4  C   UNL     1      61.874  39.118  70.290  0.00  0.00    +0.000 C 
ATOM      5  C   UNL     1      61.378  38.673  68.947  0.00  0.00    +0.000 A 
ATOM      6  C   UNL     1      60.065  38.213  68.816  0.00  0.00    +0.000 A 
ATOM      7  C   UNL     1      62.201  38.660  67.811  0.00  0.00    +0.000 A 
ATOM      8  C   UNL     1      59.587  37.771  67.580  0.00  0.00    +0.000 A 
ATOM      9  C   UNL     1      61.740  38.202  66.579  0.00  0.00    +0.000 A 
ATOM     10  C   UNL     1      60.428  37.764  66.474  0.00  0.00    +0.000 A 
ENDROOT
BRANCH   2  11
ATOM     11  C   UNL     1      60.082  37.129  71.905  0.00  0.00    +0.000 A 
ATOM     12  C   UNL     1      60.685  37.206  73.181  0.00  0.00    +0.000 A 
ATOM     13  C   UNL     1      59.913  35.853  71.328  0.00  0.00    +0.000 A 
ATOM     14  C   UNL     1      61.105  36.049  73.829  0.00  0.00    +0.000 A 
ATOM     15  C   UNL     1      60.351  34.698  71.981  0.00  0.00    +0.000 A 
ATOM     16  C   UNL     1      60.949  34.808  73.223  0.00  0.00    +0.000 A 
BRANCH  14  17
ATOM     17  O   UNL     1      61.674  36.070  75.072  0.00  0.00    +0.000 OA
ATOM     18  H   UNL     1      62.150  35.230  75.228  0.00  0.00    +0.000 HD
ENDBRANCH  14  17
BRANCH  16  19
ATOM     19  O   UNL     1      61.374  33.679  73.864  0.00  0.00    +0.000 OA
ATOM     20  H   UNL     1      60.555  33.167  74.022  0.00  0.00    +0.000 HD
ENDBRANCH  16  19
ENDBRANCH   2  11
BRANCH   3  21
ATOM     21  O   UNL     1      60.212  40.801  70.787  0.00  0.00    +0.000 OA
ATOM     22  H   UNL     1      60.893  41.151  70.178  0.00  0.00    +0.000 HD
ENDBRANCH   3  21
BRANCH   4  23
ATOM     23  O   UNL     1      62.751  40.246  70.124  0.00  0.00    +0.000 OA
ATOM     24  H   UNL     1      63.653  39.859  70.182  0.00  0.00    +0.000 HD
ENDBRANCH   4  23
BRANCH   7  25
ATOM     25  O   UNL     1      63.492  39.114  67.854  0.00  0.00    +0.000 OA
ATOM     26  H   UNL     1      63.452  40.082  68.019  0.00  0.00    +0.000 HD
ENDBRANCH   7  25
BRANCH  10  27
ATOM     27  O   UNL     1      59.922  37.314  65.290  0.00  0.00    +0.000 OA
ATOM     28  H   UNL     1      60.158  36.376  65.192  0.00  0.00    +0.000 HD
ENDBRANCH  10  27
BRANCH   2  29
ATOM     29  O   UNL     1      58.519  39.024  71.918  0.00  0.00    +0.000 OA
BRANCH  29  31
ATOM     30  O   UNL     1      55.041  38.021  72.712  0.00  0.00    +0.000 OA
ATOM     31  C   UNL     1      57.184  38.578  71.608  0.00  0.00    +0.000 C 
ATOM     32  C   UNL     1      56.365  38.530  72.922  0.00  0.00    +0.000 C 
ATOM     33  C   UNL     1      56.470  39.543  70.656  0.00  0.00    +0.000 C 
ATOM     34  C   UNL     1      54.975  39.390  70.699  0.00  0.00    +0.000 A 
ATOM     35  C   UNL     1      54.355  38.647  71.707  0.00  0.00    +0.000 A 
ATOM     36  C   UNL     1      54.169  39.998  69.728  0.00  0.00    +0.000 A 
ATOM     37  C   UNL     1      52.969  38.475  71.721  0.00  0.00    +0.000 A 
ATOM     38  C   UNL     1      52.784  39.848  69.740  0.00  0.00    +0.000 A 
ATOM     39  C   UNL     1      52.196  39.081  70.737  0.00  0.00    +0.000 A 
BRANCH  32  40
ATOM     40  C   UNL     1      57.039  37.639  73.958  0.00  0.00    +0.000 A 
ATOM     41  C   UNL     1      57.579  38.181  75.135  0.00  0.00    +0.000 A 
ATOM     42  C   UNL     1      57.052  36.244  73.780  0.00  0.00    +0.000 A 
ATOM     43  C   UNL     1      58.073  37.336  76.126  0.00  0.00    +0.000 A 
ATOM     44  C   UNL     1      57.567  35.403  74.769  0.00  0.00    +0.000 A 
ATOM     45  C   UNL     1      58.062  35.954  75.947  0.00  0.00    +0.000 A 
BRANCH  43  46
ATOM     46  O   UNL     1      58.512  37.850  77.313  0.00  0.00    +0.000 OA
ATOM     47  H   UNL     1      59.331  38.351  77.159  0.00  0.00    +0.000 HD
ENDBRANCH  43  46
BRANCH  45  48
ATOM     48  O   UNL     1      58.512  35.147  76.954  0.00  0.00    +0.000 OA
ATOM     49  H   UNL     1      58.987  35.689  77.605  0.00  0.00    +0.000 HD
ENDBRANCH  45  48
ENDBRANCH  32  40
BRANCH  36  50
ATOM     50  O   UNL     1      54.771  40.747  68.755  0.00  0.00    +0.000 OA
ATOM     51  H   UNL     1      54.881  41.656  69.080  0.00  0.00    +0.000 HD
ENDBRANCH  36  50
BRANCH  39  52
ATOM     52  O   UNL     1      50.839  38.947  70.717  0.00  0.00    +0.000 OA
ATOM     53  H   UNL     1      50.525  38.815  71.628  0.00  0.00    +0.000 HD
ENDBRANCH  39  52
ENDBRANCH  29  31
ENDBRANCH   2  29
TORSDOF 14
ENDMDL
