MODEL 1
REMARK VINA RESULT:      -6.2      0.000      0.000
REMARK  Name = Progesterone.pdbqt.pdb
REMARK  1 active torsions:
REMARK  status: ('A' for Active; 'I' for Inactive)
REMARK    1  A    between atoms: C_7  and  C_21
REMARK                            x       y       z     vdW  Elec       q    Type
REMARK                         _______ _______ _______ _____ _____    ______ ____
ROOT
ATOM      1  O   UNL     1      65.903  45.760  51.531  0.00  0.00    +0.000 OA
ATOM      2  C   UNL     1      61.739  39.615  53.405  0.00  0.00    +0.000 C 
ATOM      3  C   UNL     1      61.593  39.110  54.941  0.00  0.00    +0.000 C 
ATOM      4  C   UNL     1      62.009  41.023  53.056  0.00  0.00    +0.000 C 
ATOM      5  C   UNL     1      62.442  42.104  54.008  0.00  0.00    +0.000 C 
ATOM      6  C   UNL     1      62.596  43.590  53.615  0.00  0.00    +0.000 C 
ATOM      7  C   UNL     1      62.357  37.820  54.944  0.00  0.00    +0.000 C 
ATOM      8  C   UNL     1      62.190  40.189  55.728  0.00  0.00    +0.000 C 
ATOM      9  C   UNL     1      62.570  41.594  55.329  0.00  0.00    +0.000 C 
ATOM     10  C   UNL     1      62.366  38.558  52.670  0.00  0.00    +0.000 C 
ATOM     11  C   UNL     1      62.011  41.456  51.710  0.00  0.00    +0.000 C 
ATOM     12  C   UNL     1      62.769  37.469  53.627  0.00  0.00    +0.000 C 
ATOM     13  C   UNL     1      62.792  43.870  51.994  0.00  0.00    +0.000 C 
ATOM     14  C   UNL     1      60.083  38.884  55.190  0.00  0.00    +0.000 C 
ATOM     15  C   UNL     1      62.378  42.802  51.161  0.00  0.00    +0.000 C 
ATOM     16  C   UNL     1      63.855  44.157  54.204  0.00  0.00    +0.000 C 
ATOM     17  C   UNL     1      61.341  44.384  54.064  0.00  0.00    +0.000 C 
ATOM     18  C   UNL     1      65.038  44.940  53.593  0.00  0.00    +0.000 C 
ATOM     19  C   UNL     1      63.836  44.578  51.616  0.00  0.00    +0.000 C 
ATOM     20  C   UNL     1      65.036  45.191  52.165  0.00  0.00    +0.000 C 
ENDROOT
BRANCH   7  21
ATOM     21  C   UNL     1      62.595  37.026  56.125  0.00  0.00    +0.000 C 
ATOM     22  O   UNL     1      62.492  37.424  57.273  0.00  0.00    +0.000 OA
ATOM     23  C   UNL     1      62.911  35.567  56.099  0.00  0.00    +0.000 C 
ENDBRANCH   7  21
TORSDOF 1
ENDMDL
MODEL 2
REMARK VINA RESULT:      -6.2     11.093     14.915
REMARK  Name = Progesterone.pdbqt.pdb
REMARK  1 active torsions:
REMARK  status: ('A' for Active; 'I' for Inactive)
REMARK    1  A    between atoms: C_7  and  C_21
REMARK                            x       y       z     vdW  Elec       q    Type
REMARK                         _______ _______ _______ _____ _____    ______ ____
ROOT
ATOM      1  O   UNL     1      65.148  50.070  55.039  0.00  0.00    +0.000 OA
ATOM      2  C   UNL     1      62.738  54.938  60.434  0.00  0.00    +0.000 C 
ATOM      3  C   UNL     1      61.193  55.431  60.521  0.00  0.00    +0.000 C 
ATOM      4  C   UNL     1      63.125  53.642  59.842  0.00  0.00    +0.000 C 
ATOM      5  C   UNL     1      62.240  52.745  59.022  0.00  0.00    +0.000 C 
ATOM      6  C   UNL     1      62.656  51.342  58.526  0.00  0.00    +0.000 C 
ATOM      7  C   UNL     1      61.280  56.877  60.135  0.00  0.00    +0.000 C 
ATOM      8  C   UNL     1      60.493  54.572  59.566  0.00  0.00    +0.000 C 
ATOM      9  C   UNL     1      60.942  53.308  58.876  0.00  0.00    +0.000 C 
ATOM     10  C   UNL     1      63.541  56.102  60.207  0.00  0.00    +0.000 C 
ATOM     11  C   UNL     1      64.463  53.187  59.888  0.00  0.00    +0.000 C 
ATOM     12  C   UNL     1      62.636  57.286  59.996  0.00  0.00    +0.000 C 
ATOM     13  C   UNL     1      64.290  51.077  58.461  0.00  0.00    +0.000 C 
ATOM     14  C   UNL     1      60.756  55.254  61.994  0.00  0.00    +0.000 C 
ATOM     15  C   UNL     1      65.059  51.972  59.245  0.00  0.00    +0.000 C 
ATOM     16  C   UNL     1      62.233  51.147  57.099  0.00  0.00    +0.000 C 
ATOM     17  C   UNL     1      62.056  50.256  59.459  0.00  0.00    +0.000 C 
ATOM     18  C   UNL     1      62.991  50.690  55.833  0.00  0.00    +0.000 C 
ATOM     19  C   UNL     1      64.799  50.661  57.321  0.00  0.00    +0.000 C 
ATOM     20  C   UNL     1      64.408  50.406  55.943  0.00  0.00    +0.000 C 
ENDROOT
BRANCH   7  21
ATOM     21  C   UNL     1      60.135  57.739  59.976  0.00  0.00    +0.000 C 
ATOM     22  O   UNL     1      59.049  57.394  59.541  0.00  0.00    +0.000 OA
ATOM     23  C   UNL     1      60.097  59.165  60.417  0.00  0.00    +0.000 C 
ENDBRANCH   7  21
TORSDOF 1
ENDMDL
MODEL 3
REMARK VINA RESULT:      -6.0      3.174      7.355
REMARK  Name = Progesterone.pdbqt.pdb
REMARK  1 active torsions:
REMARK  status: ('A' for Active; 'I' for Inactive)
REMARK    1  A    between atoms: C_7  and  C_21
REMARK                            x       y       z     vdW  Elec       q    Type
REMARK                         _______ _______ _______ _____ _____    ______ ____
ROOT
ATOM      1  O   UNL     1      68.795  34.276  56.463  0.00  0.00    +0.000 OA
ATOM      2  C   UNL     1      62.589  38.460  54.852  0.00  0.00    +0.000 C 
ATOM      3  C   UNL     1      62.637  39.707  53.812  0.00  0.00    +0.000 C 
ATOM      4  C   UNL     1      63.524  37.322  54.767  0.00  0.00    +0.000 C 
ATOM      5  C   UNL     1      64.774  37.263  53.934  0.00  0.00    +0.000 C 
ATOM      6  C   UNL     1      65.656  36.003  53.787  0.00  0.00    +0.000 C 
ATOM      7  C   UNL     1      62.441  40.896  54.706  0.00  0.00    +0.000 C 
ATOM      8  C   UNL     1      63.959  39.603  53.195  0.00  0.00    +0.000 C 
ATOM      9  C   UNL     1      64.960  38.475  53.212  0.00  0.00    +0.000 C 
ATOM     10  C   UNL     1      62.209  38.987  56.127  0.00  0.00    +0.000 C 
ATOM     11  C   UNL     1      63.382  36.194  55.608  0.00  0.00    +0.000 C 
ATOM     12  C   UNL     1      62.147  40.488  56.038  0.00  0.00    +0.000 C 
ATOM     13  C   UNL     1      65.486  34.884  54.997  0.00  0.00    +0.000 C 
ATOM     14  C   UNL     1      61.450  39.517  52.839  0.00  0.00    +0.000 C 
ATOM     15  C   UNL     1      64.293  35.012  55.749  0.00  0.00    +0.000 C 
ATOM     16  C   UNL     1      67.108  36.370  53.878  0.00  0.00    +0.000 C 
ATOM     17  C   UNL     1      65.326  35.283  52.453  0.00  0.00    +0.000 C 
ATOM     18  C   UNL     1      68.276  35.830  54.734  0.00  0.00    +0.000 C 
ATOM     19  C   UNL     1      66.574  34.492  55.627  0.00  0.00    +0.000 C 
ATOM     20  C   UNL     1      67.998  34.782  55.697  0.00  0.00    +0.000 C 
ENDROOT
BRANCH   7  21
ATOM     21  C   UNL     1      62.498  42.264  54.252  0.00  0.00    +0.000 C 
ATOM     22  O   UNL     1      61.532  42.950  53.963  0.00  0.00    +0.000 OA
ATOM     23  C   UNL     1      63.757  43.061  54.164  0.00  0.00    +0.000 C 
ENDBRANCH   7  21
TORSDOF 1
ENDMDL
MODEL 4
REMARK VINA RESULT:      -6.0     12.621     15.442
REMARK  Name = Progesterone.pdbqt.pdb
REMARK  1 active torsions:
REMARK  status: ('A' for Active; 'I' for Inactive)
REMARK    1  A    between atoms: C_7  and  C_21
REMARK                            x       y       z     vdW  Elec       q    Type
REMARK                         _______ _______ _______ _____ _____    ______ ____
ROOT
ATOM      1  O   UNL     1      57.439  32.036  65.789  0.00  0.00    +0.000 OA
ATOM      2  C   UNL     1      59.762  38.910  68.230  0.00  0.00    +0.000 C 
ATOM      3  C   UNL     1      61.155  39.577  67.727  0.00  0.00    +0.000 C 
ATOM      4  C   UNL     1      59.010  37.936  67.415  0.00  0.00    +0.000 C 
ATOM      5  C   UNL     1      59.516  37.233  66.186  0.00  0.00    +0.000 C 
ATOM      6  C   UNL     1      58.648  36.313  65.299  0.00  0.00    +0.000 C 
ATOM      7  C   UNL     1      62.008  39.542  68.960  0.00  0.00    +0.000 C 
ATOM      8  C   UNL     1      61.595  38.702  66.640  0.00  0.00    +0.000 C 
ATOM      9  C   UNL     1      60.850  37.626  65.890  0.00  0.00    +0.000 C 
ATOM     10  C   UNL     1      59.864  38.737  69.647  0.00  0.00    +0.000 C 
ATOM     11  C   UNL     1      57.741  37.465  67.825  0.00  0.00    +0.000 C 
ATOM     12  C   UNL     1      61.257  39.101  70.086  0.00  0.00    +0.000 C 
ATOM     13  C   UNL     1      57.300  35.694  66.039  0.00  0.00    +0.000 C 
ATOM     14  C   UNL     1      60.822  41.025  67.299  0.00  0.00    +0.000 C 
ATOM     15  C   UNL     1      56.894  36.398  67.199  0.00  0.00    +0.000 C 
ATOM     16  C   UNL     1      59.414  35.078  64.923  0.00  0.00    +0.000 C 
ATOM     17  C   UNL     1      58.162  37.093  64.050  0.00  0.00    +0.000 C 
ATOM     18  C   UNL     1      59.088  33.571  65.019  0.00  0.00    +0.000 C 
ATOM     19  C   UNL     1      57.136  34.388  66.021  0.00  0.00    +0.000 C 
ATOM     20  C   UNL     1      57.826  33.174  65.613  0.00  0.00    +0.000 C 
ENDROOT
BRANCH   7  21
ATOM     21  C   UNL     1      63.391  39.949  68.995  0.00  0.00    +0.000 C 
ATOM     22  O   UNL     1      64.254  39.577  68.218  0.00  0.00    +0.000 OA
ATOM     23  C   UNL     1      63.936  40.967  69.942  0.00  0.00    +0.000 C 
ENDBRANCH   7  21
TORSDOF 1
ENDMDL
MODEL 5
REMARK VINA RESULT:      -5.8     20.127     22.830
REMARK  Name = Progesterone.pdbqt.pdb
REMARK  1 active torsions:
REMARK  status: ('A' for Active; 'I' for Inactive)
REMARK    1  A    between atoms: C_7  and  C_21
REMARK                            x       y       z     vdW  Elec       q    Type
REMARK                         _______ _______ _______ _____ _____    ______ ____
ROOT
ATOM      1  O   UNL     1      71.834  51.375  72.173  0.00  0.00    +0.000 OA
ATOM      2  C   UNL     1      71.800  55.631  65.809  0.00  0.00    +0.000 C 
ATOM      3  C   UNL     1      71.639  57.246  65.854  0.00  0.00    +0.000 C 
ATOM      4  C   UNL     1      72.373  54.860  66.930  0.00  0.00    +0.000 C 
ATOM      5  C   UNL     1      72.628  55.375  68.319  0.00  0.00    +0.000 C 
ATOM      6  C   UNL     1      73.340  54.563  69.424  0.00  0.00    +0.000 C 
ATOM      7  C   UNL     1      70.279  57.464  65.260  0.00  0.00    +0.000 C 
ATOM      8  C   UNL     1      71.758  57.575  67.275  0.00  0.00    +0.000 C 
ATOM      9  C   UNL     1      72.237  56.738  68.435  0.00  0.00    +0.000 C 
ATOM     10  C   UNL     1      70.684  55.114  65.076  0.00  0.00    +0.000 C 
ATOM     11  C   UNL     1      72.613  53.471  66.816  0.00  0.00    +0.000 C 
ATOM     12  C   UNL     1      69.738  56.243  64.766  0.00  0.00    +0.000 C 
ATOM     13  C   UNL     1      73.333  52.921  69.203  0.00  0.00    +0.000 C 
ATOM     14  C   UNL     1      72.757  57.827  64.958  0.00  0.00    +0.000 C 
ATOM     15  C   UNL     1      73.070  52.511  67.873  0.00  0.00    +0.000 C 
ATOM     16  C   UNL     1      72.623  54.723  70.733  0.00  0.00    +0.000 C 
ATOM     17  C   UNL     1      74.825  55.002  69.522  0.00  0.00    +0.000 C 
ATOM     18  C   UNL     1      72.088  53.708  71.767  0.00  0.00    +0.000 C 
ATOM     19  C   UNL     1      72.872  52.172  70.182  0.00  0.00    +0.000 C 
ATOM     20  C   UNL     1      72.229  52.293  71.482  0.00  0.00    +0.000 C 
ENDROOT
BRANCH   7  21
ATOM     21  C   UNL     1      69.637  58.752  65.167  0.00  0.00    +0.000 C 
ATOM     22  O   UNL     1      69.335  59.459  66.114  0.00  0.00    +0.000 OA
ATOM     23  C   UNL     1      69.338  59.443  63.877  0.00  0.00    +0.000 C 
ENDBRANCH   7  21
TORSDOF 1
ENDMDL
MODEL 6
REMARK VINA RESULT:      -5.5     24.539     27.242
REMARK  Name = Progesterone.pdbqt.pdb
REMARK  1 active torsions:
REMARK  status: ('A' for Active; 'I' for Inactive)
REMARK    1  A    between atoms: C_7  and  C_21
REMARK                            x       y       z     vdW  Elec       q    Type
REMARK                         _______ _______ _______ _____ _____    ______ ____
ROOT
ATOM      1  O   UNL     1      38.654  45.644  75.209  0.00  0.00    +0.000 OA
ATOM      2  C   UNL     1      44.347  43.722  70.464  0.00  0.00    +0.000 C 
ATOM      3  C   UNL     1      44.958  42.218  70.417  0.00  0.00    +0.000 C 
ATOM      4  C   UNL     1      42.960  44.001  70.886  0.00  0.00    +0.000 C 
ATOM      5  C   UNL     1      42.030  43.034  71.565  0.00  0.00    +0.000 C 
ATOM      6  C   UNL     1      40.548  43.337  71.879  0.00  0.00    +0.000 C 
ATOM      7  C   UNL     1      46.331  42.397  70.991  0.00  0.00    +0.000 C 
ATOM      8  C   UNL     1      44.035  41.435  71.239  0.00  0.00    +0.000 C 
ATOM      9  C   UNL     1      42.663  41.777  71.764  0.00  0.00    +0.000 C 
ATOM     10  C   UNL     1      45.409  44.598  70.855  0.00  0.00    +0.000 C 
ATOM     11  C   UNL     1      42.418  45.305  70.802  0.00  0.00    +0.000 C 
ATOM     12  C   UNL     1      46.619  43.774  71.206  0.00  0.00    +0.000 C 
ATOM     13  C   UNL     1      40.158  44.947  71.935  0.00  0.00    +0.000 C 
ATOM     14  C   UNL     1      45.007  41.808  68.927  0.00  0.00    +0.000 C 
ATOM     15  C   UNL     1      41.089  45.798  71.290  0.00  0.00    +0.000 C 
ATOM     16  C   UNL     1      40.201  42.865  73.261  0.00  0.00    +0.000 C 
ATOM     17  C   UNL     1      39.640  42.688  70.802  0.00  0.00    +0.000 C 
ATOM     18  C   UNL     1      39.528  43.557  74.468  0.00  0.00    +0.000 C 
ATOM     19  C   UNL     1      39.561  45.396  73.019  0.00  0.00    +0.000 C 
ATOM     20  C   UNL     1      39.158  44.953  74.345  0.00  0.00    +0.000 C 
ENDROOT
BRANCH   7  21
ATOM     21  C   UNL     1      47.247  41.311  71.244  0.00  0.00    +0.000 C 
ATOM     22  O   UNL     1      48.018  40.836  70.427  0.00  0.00    +0.000 OA
ATOM     23  C   UNL     1      47.441  40.679  72.583  0.00  0.00    +0.000 C 
ENDBRANCH   7  21
TORSDOF 1
ENDMDL
MODEL 7
REMARK VINA RESULT:      -5.3     43.782     46.482
REMARK  Name = Progesterone.pdbqt.pdb
REMARK  1 active torsions:
REMARK  status: ('A' for Active; 'I' for Inactive)
REMARK    1  A    between atoms: C_7  and  C_21
REMARK                            x       y       z     vdW  Elec       q    Type
REMARK                         _______ _______ _______ _____ _____    ______ ____
ROOT
ATOM      1  O   UNL     1      59.993  76.664  75.681  0.00  0.00    +0.000 OA
ATOM      2  C   UNL     1      59.703  79.434  82.813  0.00  0.00    +0.000 C 
ATOM      3  C   UNL     1      60.258  78.593  84.086  0.00  0.00    +0.000 C 
ATOM      4  C   UNL     1      60.226  79.240  81.446  0.00  0.00    +0.000 C 
ATOM      5  C   UNL     1      61.106  78.110  80.987  0.00  0.00    +0.000 C 
ATOM      6  C   UNL     1      61.725  78.017  79.575  0.00  0.00    +0.000 C 
ATOM      7  C   UNL     1      59.004  78.250  84.834  0.00  0.00    +0.000 C 
ATOM      8  C   UNL     1      60.955  77.456  83.484  0.00  0.00    +0.000 C 
ATOM      9  C   UNL     1      61.383  77.216  82.058  0.00  0.00    +0.000 C 
ATOM     10  C   UNL     1      58.303  79.647  83.024  0.00  0.00    +0.000 C 
ATOM     11  C   UNL     1      59.810  80.070  80.379  0.00  0.00    +0.000 C 
ATOM     12  C   UNL     1      57.874  78.893  84.255  0.00  0.00    +0.000 C 
ATOM     13  C   UNL     1      60.959  78.916  78.413  0.00  0.00    +0.000 C 
ATOM     14  C   UNL     1      61.163  79.555  84.891  0.00  0.00    +0.000 C 
ATOM     15  C   UNL     1      60.135  79.950  78.921  0.00  0.00    +0.000 C 
ATOM     16  C   UNL     1      61.605  76.619  79.044  0.00  0.00    +0.000 C 
ATOM     17  C   UNL     1      63.201  78.494  79.617  0.00  0.00    +0.000 C 
ATOM     18  C   UNL     1      61.057  76.043  77.719  0.00  0.00    +0.000 C 
ATOM     19  C   UNL     1      60.568  78.297  77.318  0.00  0.00    +0.000 C 
ATOM     20  C   UNL     1      60.491  76.960  76.749  0.00  0.00    +0.000 C 
ENDROOT
BRANCH   7  21
ATOM     21  C   UNL     1      58.970  77.418  86.012  0.00  0.00    +0.000 C 
ATOM     22  O   UNL     1      58.761  76.216  86.018  0.00  0.00    +0.000 OA
ATOM     23  C   UNL     1      59.285  77.906  87.387  0.00  0.00    +0.000 C 
ENDBRANCH   7  21
TORSDOF 1
ENDMDL
MODEL 8
REMARK VINA RESULT:      -5.3     38.420     40.975
REMARK  Name = Progesterone.pdbqt.pdb
REMARK  1 active torsions:
REMARK  status: ('A' for Active; 'I' for Inactive)
REMARK    1  A    between atoms: C_7  and  C_21
REMARK                            x       y       z     vdW  Elec       q    Type
REMARK                         _______ _______ _______ _____ _____    ______ ____
ROOT
ATOM      1  O   UNL     1      59.717  77.081  74.822  0.00  0.00    +0.000 OA
ATOM      2  C   UNL     1      55.402  72.675  79.359  0.00  0.00    +0.000 C 
ATOM      3  C   UNL     1      56.004  71.371  80.118  0.00  0.00    +0.000 C 
ATOM      4  C   UNL     1      56.242  73.827  78.978  0.00  0.00    +0.000 C 
ATOM      5  C   UNL     1      57.745  73.864  78.976  0.00  0.00    +0.000 C 
ATOM      6  C   UNL     1      58.577  75.133  78.682  0.00  0.00    +0.000 C 
ATOM      7  C   UNL     1      55.326  70.232  79.415  0.00  0.00    +0.000 C 
ATOM      8  C   UNL     1      57.447  71.468  79.899  0.00  0.00    +0.000 C 
ATOM      9  C   UNL     1      58.284  72.618  79.396  0.00  0.00    +0.000 C 
ATOM     10  C   UNL     1      54.369  72.215  78.482  0.00  0.00    +0.000 C 
ATOM     11  C   UNL     1      55.671  74.998  78.428  0.00  0.00    +0.000 C 
ATOM     12  C   UNL     1      54.346  70.710  78.500  0.00  0.00    +0.000 C 
ATOM     13  C   UNL     1      57.778  76.317  77.843  0.00  0.00    +0.000 C 
ATOM     14  C   UNL     1      55.563  71.478  81.596  0.00  0.00    +0.000 C 
ATOM     15  C   UNL     1      56.366  76.206  77.876  0.00  0.00    +0.000 C 
ATOM     16  C   UNL     1      59.727  74.804  77.776  0.00  0.00    +0.000 C 
ATOM     17  C   UNL     1      59.056  75.766  80.015  0.00  0.00    +0.000 C 
ATOM     18  C   UNL     1      60.227  75.419  76.450  0.00  0.00    +0.000 C 
ATOM     19  C   UNL     1      58.335  76.769  76.739  0.00  0.00    +0.000 C 
ATOM     20  C   UNL     1      59.474  76.514  75.870  0.00  0.00    +0.000 C 
ENDROOT
BRANCH   7  21
ATOM     21  C   UNL     1      55.607  68.842  79.677  0.00  0.00    +0.000 C 
ATOM     22  O   UNL     1      56.125  68.407  80.692  0.00  0.00    +0.000 OA
ATOM     23  C   UNL     1      55.210  67.726  78.767  0.00  0.00    +0.000 C 
ENDBRANCH   7  21
TORSDOF 1
ENDMDL
MODEL 9
REMARK VINA RESULT:      -5.3     25.698     27.304
REMARK  Name = Progesterone.pdbqt.pdb
REMARK  1 active torsions:
REMARK  status: ('A' for Active; 'I' for Inactive)
REMARK    1  A    between atoms: C_7  and  C_21
REMARK                            x       y       z     vdW  Elec       q    Type
REMARK                         _______ _______ _______ _____ _____    ______ ____
ROOT
ATOM      1  O   UNL     1      77.791  48.003  79.919  0.00  0.00    +0.000 OA
ATOM      2  C   UNL     1      70.827  48.044  76.737  0.00  0.00    +0.000 C 
ATOM      3  C   UNL     1      69.618  48.956  77.323  0.00  0.00    +0.000 C 
ATOM      4  C   UNL     1      72.248  48.405  76.911  0.00  0.00    +0.000 C 
ATOM      5  C   UNL     1      72.786  49.458  77.841  0.00  0.00    +0.000 C 
ATOM      6  C   UNL     1      74.271  49.880  77.900  0.00  0.00    +0.000 C 
ATOM      7  C   UNL     1      68.673  47.936  77.885  0.00  0.00    +0.000 C 
ATOM      8  C   UNL     1      70.269  49.814  78.313  0.00  0.00    +0.000 C 
ATOM      9  C   UNL     1      71.732  50.086  78.559  0.00  0.00    +0.000 C 
ATOM     10  C   UNL     1      70.414  46.678  76.836  0.00  0.00    +0.000 C 
ATOM     11  C   UNL     1      73.274  47.659  76.287  0.00  0.00    +0.000 C 
ATOM     12  C   UNL     1      69.101  46.616  77.569  0.00  0.00    +0.000 C 
ATOM     13  C   UNL     1      75.341  48.768  77.297  0.00  0.00    +0.000 C 
ATOM     14  C   UNL     1      69.005  49.705  76.118  0.00  0.00    +0.000 C 
ATOM     15  C   UNL     1      74.759  47.799  76.444  0.00  0.00    +0.000 C 
ATOM     16  C   UNL     1      74.715  50.027  79.326  0.00  0.00    +0.000 C 
ATOM     17  C   UNL     1      74.476  51.190  77.094  0.00  0.00    +0.000 C 
ATOM     18  C   UNL     1      75.914  49.455  80.115  0.00  0.00    +0.000 C 
ATOM     19  C   UNL     1      76.334  48.390  78.073  0.00  0.00    +0.000 C 
ATOM     20  C   UNL     1      76.825  48.558  79.433  0.00  0.00    +0.000 C 
ENDROOT
BRANCH   7  21
ATOM     21  C   UNL     1      67.468  48.265  78.608  0.00  0.00    +0.000 C 
ATOM     22  O   UNL     1      66.390  48.520  78.099  0.00  0.00    +0.000 OA
ATOM     23  C   UNL     1      67.357  48.243  80.097  0.00  0.00    +0.000 C 
ENDBRANCH   7  21
TORSDOF 1
ENDMDL
