REMARK  Name = Quercetin.pdbqt.pdb
REMARK  6 active torsions:
REMARK  status: ('A' for Active; 'I' for Inactive)
REMARK    1  A    between atoms: C_5  and  C_12
REMARK    2  A    between atoms: C_6  and  O_22
REMARK    3  A    between atoms: C_8  and  O_24
REMARK    4  A    between atoms: C_10  and  O_26
REMARK    5  A    between atoms: C_15  and  O_18
REMARK    6  A    between atoms: C_17  and  O_20
REMARK                            x       y       z     vdW  Elec       q    Type
REMARK                         _______ _______ _______ _____ _____    ______ ____
ROOT
ATOM      1  O   UNL     1      -0.337  -0.858  -0.219  0.00  0.00    +0.000 OA
ATOM      2  O   UNL     1      -2.052   2.779   0.376  0.00  0.00    +0.000 OA
ATOM      3  C   UNL     1      -2.335   0.486   0.065  0.00  0.00    +0.000 A 
ATOM      4  C   UNL     1      -1.697  -0.732  -0.141  0.00  0.00    +0.000 A 
ATOM      5  C   UNL     1       0.451   0.274  -0.070  0.00  0.00    +0.000 A 
ATOM      6  C   UNL     1      -0.031   1.521   0.122  0.00  0.00    +0.000 A 
ATOM      7  C   UNL     1      -1.510   1.690   0.203  0.00  0.00    +0.000 A 
ATOM      8  C   UNL     1      -3.733   0.541   0.133  0.00  0.00    +0.000 A 
ATOM      9  C   UNL     1      -2.446  -1.899  -0.280  0.00  0.00    +0.000 A 
ATOM     10  C   UNL     1      -3.834  -1.834  -0.210  0.00  0.00    +0.000 A 
ATOM     11  C   UNL     1      -4.485  -0.622  -0.005  0.00  0.00    +0.000 A 
ENDROOT
BRANCH   5  12
ATOM     12  C   UNL     1       1.885  -0.037  -0.156  0.00  0.00    +0.000 A 
ATOM     13  C   UNL     1       2.754   0.279   0.893  0.00  0.00    +0.000 A 
ATOM     14  C   UNL     1       2.381  -0.715  -1.277  0.00  0.00    +0.000 A 
ATOM     15  C   UNL     1       4.098  -0.060   0.801  0.00  0.00    +0.000 A 
ATOM     16  C   UNL     1       3.727  -1.069  -1.359  0.00  0.00    +0.000 A 
ATOM     17  C   UNL     1       4.575  -0.752  -0.307  0.00  0.00    +0.000 A 
BRANCH  15  18
ATOM     18  O   UNL     1       4.943   0.330   1.798  0.00  0.00    +0.000 OA
ATOM     19  H   UNL     1       5.827   0.435   1.399  0.00  0.00    +0.000 HD
ENDBRANCH  15  18
BRANCH  17  20
ATOM     20  O   UNL     1       5.879  -1.149  -0.364  0.00  0.00    +0.000 OA
ATOM     21  H   UNL     1       6.080  -1.567   0.494  0.00  0.00    +0.000 HD
ENDBRANCH  17  20
ENDBRANCH   5  12
BRANCH   6  22
ATOM     22  O   UNL     1       0.735   2.666   0.233  0.00  0.00    +0.000 OA
ATOM     23  H   UNL     1       1.673   2.456   0.102  0.00  0.00    +0.000 HD
ENDBRANCH   6  22
BRANCH   8  24
ATOM     24  O   UNL     1      -4.427   1.704   0.331  0.00  0.00    +0.000 OA
ATOM     25  H   UNL     1      -3.778   2.442   0.408  0.00  0.00    +0.000 HD
ENDBRANCH   8  24
BRANCH  10  26
ATOM     26  O   UNL     1      -4.545  -2.990  -0.349  0.00  0.00    +0.000 OA
ATOM     27  H   UNL     1      -5.492  -2.774  -0.276  0.00  0.00    +0.000 HD
ENDBRANCH  10  26
TORSDOF 6
