MODEL 1
REMARK VINA RESULT:      -6.2      0.000      0.000
REMARK  Name = Quercetin.pdbqt.pdb
REMARK  6 active torsions:
REMARK  status: ('A' for Active; 'I' for Inactive)
REMARK    1  A    between atoms: C_5  and  C_12
REMARK    2  A    between atoms: C_6  and  O_22
REMARK    3  A    between atoms: C_8  and  O_24
REMARK    4  A    between atoms: C_10  and  O_26
REMARK    5  A    between atoms: C_15  and  O_18
REMARK    6  A    between atoms: C_17  and  O_20
REMARK                            x       y       z     vdW  Elec       q    Type
REMARK                         _______ _______ _______ _____ _____    ______ ____
ROOT
ATOM      1  O   UNL     1      51.908  36.019  61.787  0.00  0.00    +0.000 OA
ATOM      2  O   UNL     1      48.300  35.828  63.649  0.00  0.00    +0.000 OA
ATOM      3  C   UNL     1      50.609  36.094  63.833  0.00  0.00    +0.000 A 
ATOM      4  C   UNL     1      51.816  36.148  63.146  0.00  0.00    +0.000 A 
ATOM      5  C   UNL     1      50.746  35.844  61.050  0.00  0.00    +0.000 A 
ATOM      6  C   UNL     1      49.508  35.760  61.583  0.00  0.00    +0.000 A 
ATOM      7  C   UNL     1      49.378  35.888  63.063  0.00  0.00    +0.000 A 
ATOM      8  C   UNL     1      50.590  36.233  65.226  0.00  0.00    +0.000 A 
ATOM      9  C   UNL     1      53.009  36.339  63.841  0.00  0.00    +0.000 A 
ATOM     10  C   UNL     1      52.979  36.477  65.226  0.00  0.00    +0.000 A 
ATOM     11  C   UNL     1      51.778  36.424  65.925  0.00  0.00    +0.000 A 
ENDROOT
BRANCH   5  12
ATOM     12  C   UNL     1      51.016  35.747  59.608  0.00  0.00    +0.000 A 
ATOM     13  C   UNL     1      51.108  36.895  58.815  0.00  0.00    +0.000 A 
ATOM     14  C   UNL     1      51.247  34.493  59.029  0.00  0.00    +0.000 A 
ATOM     15  C   UNL     1      51.401  36.777  57.462  0.00  0.00    +0.000 A 
ATOM     16  C   UNL     1      51.558  34.378  57.675  0.00  0.00    +0.000 A 
ATOM     17  C   UNL     1      51.650  35.528  56.903  0.00  0.00    +0.000 A 
BRANCH  15  18
ATOM     18  O   UNL     1      51.405  37.901  56.691  0.00  0.00    +0.000 OA
ATOM     19  H   UNL     1      51.048  38.625  57.238  0.00  0.00    +0.000 HD
ENDBRANCH  15  18
BRANCH  17  20
ATOM     20  O   UNL     1      52.009  35.418  55.591  0.00  0.00    +0.000 OA
ATOM     21  H   UNL     1      51.589  36.164  55.124  0.00  0.00    +0.000 HD
ENDBRANCH  17  20
ENDBRANCH   5  12
BRANCH   6  22
ATOM     22  O   UNL     1      48.343  35.546  60.871  0.00  0.00    +0.000 OA
ATOM     23  H   UNL     1      48.110  34.604  60.884  0.00  0.00    +0.000 HD
ENDBRANCH   6  22
BRANCH   8  24
ATOM     24  O   UNL     1      49.439  36.188  65.967  0.00  0.00    +0.000 OA
ATOM     25  H   UNL     1      48.851  36.920  65.668  0.00  0.00    +0.000 HD
ENDBRANCH   8  24
BRANCH  10  26
ATOM     26  O   UNL     1      54.159  36.663  65.884  0.00  0.00    +0.000 OA
ATOM     27  H   UNL     1      54.579  35.793  66.005  0.00  0.00    +0.000 HD
ENDBRANCH  10  26
TORSDOF 6
ENDMDL
MODEL 2
REMARK VINA RESULT:      -5.8     12.877     15.510
REMARK  Name = Quercetin.pdbqt.pdb
REMARK  6 active torsions:
REMARK  status: ('A' for Active; 'I' for Inactive)
REMARK    1  A    between atoms: C_5  and  C_12
REMARK    2  A    between atoms: C_6  and  O_22
REMARK    3  A    between atoms: C_8  and  O_24
REMARK    4  A    between atoms: C_10  and  O_26
REMARK    5  A    between atoms: C_15  and  O_18
REMARK    6  A    between atoms: C_17  and  O_20
REMARK                            x       y       z     vdW  Elec       q    Type
REMARK                         _______ _______ _______ _____ _____    ______ ____
ROOT
ATOM      1  O   UNL     1      62.374  41.202  55.176  0.00  0.00    +0.000 OA
ATOM      2  O   UNL     1      64.290  38.732  52.577  0.00  0.00    +0.000 OA
ATOM      3  C   UNL     1      62.917  38.954  54.448  0.00  0.00    +0.000 A 
ATOM      4  C   UNL     1      62.286  39.844  55.310  0.00  0.00    +0.000 A 
ATOM      5  C   UNL     1      63.112  41.725  54.124  0.00  0.00    +0.000 A 
ATOM      6  C   UNL     1      63.786  40.983  53.219  0.00  0.00    +0.000 A 
ATOM      7  C   UNL     1      63.715  39.499  53.346  0.00  0.00    +0.000 A 
ATOM      8  C   UNL     1      62.784  37.574  54.647  0.00  0.00    +0.000 A 
ATOM      9  C   UNL     1      61.521  39.365  56.372  0.00  0.00    +0.000 A 
ATOM     10  C   UNL     1      61.394  37.992  56.560  0.00  0.00    +0.000 A 
ATOM     11  C   UNL     1      62.020  37.091  55.706  0.00  0.00    +0.000 A 
ENDROOT
BRANCH   5  12
ATOM     12  C   UNL     1      63.085  43.195  54.109  0.00  0.00    +0.000 A 
ATOM     13  C   UNL     1      61.874  43.893  54.071  0.00  0.00    +0.000 A 
ATOM     14  C   UNL     1      64.287  43.910  54.195  0.00  0.00    +0.000 A 
ATOM     15  C   UNL     1      61.877  45.281  54.096  0.00  0.00    +0.000 A 
ATOM     16  C   UNL     1      64.286  45.304  54.237  0.00  0.00    +0.000 A 
ATOM     17  C   UNL     1      63.074  45.981  54.204  0.00  0.00    +0.000 A 
BRANCH  15  18
ATOM     18  O   UNL     1      60.690  45.943  53.976  0.00  0.00    +0.000 OA
ATOM     19  H   UNL     1      60.023  45.424  54.463  0.00  0.00    +0.000 HD
ENDBRANCH  15  18
BRANCH  17  20
ATOM     20  O   UNL     1      63.073  47.342  54.301  0.00  0.00    +0.000 OA
ATOM     21  H   UNL     1      64.005  47.625  54.254  0.00  0.00    +0.000 HD
ENDBRANCH  17  20
ENDBRANCH   5  12
BRANCH   6  22
ATOM     22  O   UNL     1      64.558  41.485  52.189  0.00  0.00    +0.000 OA
ATOM     23  H   UNL     1      64.259  42.376  51.949  0.00  0.00    +0.000 HD
ENDBRANCH   6  22
BRANCH   8  24
ATOM     24  O   UNL     1      63.378  36.641  53.840  0.00  0.00    +0.000 OA
ATOM     25  H   UNL     1      62.709  36.324  53.189  0.00  0.00    +0.000 HD
ENDBRANCH   8  24
BRANCH  10  26
ATOM     26  O   UNL     1      60.639  37.548  57.607  0.00  0.00    +0.000 OA
ATOM     27  H   UNL     1      59.703  37.713  57.396  0.00  0.00    +0.000 HD
ENDBRANCH  10  26
TORSDOF 6
ENDMDL
MODEL 3
REMARK VINA RESULT:      -5.7     55.549     58.196
REMARK  Name = Quercetin.pdbqt.pdb
REMARK  6 active torsions:
REMARK  status: ('A' for Active; 'I' for Inactive)
REMARK    1  A    between atoms: C_5  and  C_12
REMARK    2  A    between atoms: C_6  and  O_22
REMARK    3  A    between atoms: C_8  and  O_24
REMARK    4  A    between atoms: C_10  and  O_26
REMARK    5  A    between atoms: C_15  and  O_18
REMARK    6  A    between atoms: C_17  and  O_20
REMARK                            x       y       z     vdW  Elec       q    Type
REMARK                         _______ _______ _______ _____ _____    ______ ____
ROOT
ATOM      1  O   UNL     1      69.160  86.007  85.021  0.00  0.00    +0.000 OA
ATOM      2  O   UNL     1      72.882  87.426  85.829  0.00  0.00    +0.000 OA
ATOM      3  C   UNL     1      70.605  87.453  86.326  0.00  0.00    +0.000 A 
ATOM      4  C   UNL     1      69.354  86.937  86.006  0.00  0.00    +0.000 A 
ATOM      5  C   UNL     1      70.259  85.538  84.316  0.00  0.00    +0.000 A 
ATOM      6  C   UNL     1      71.528  85.958  84.510  0.00  0.00    +0.000 A 
ATOM      7  C   UNL     1      71.768  86.978  85.571  0.00  0.00    +0.000 A 
ATOM      8  C   UNL     1      70.729  88.404  87.346  0.00  0.00    +0.000 A 
ATOM      9  C   UNL     1      68.223  87.365  86.699  0.00  0.00    +0.000 A 
ATOM     10  C   UNL     1      68.357  88.310  87.711  0.00  0.00    +0.000 A 
ATOM     11  C   UNL     1      69.603  88.835  88.041  0.00  0.00    +0.000 A 
ENDROOT
BRANCH   5  12
ATOM     12  C   UNL     1      69.882  84.530  83.314  0.00  0.00    +0.000 A 
ATOM     13  C   UNL     1      70.042  83.165  83.572  0.00  0.00    +0.000 A 
ATOM     14  C   UNL     1      69.297  84.937  82.108  0.00  0.00    +0.000 A 
ATOM     15  C   UNL     1      69.643  82.233  82.623  0.00  0.00    +0.000 A 
ATOM     16  C   UNL     1      68.882  83.998  81.165  0.00  0.00    +0.000 A 
ATOM     17  C   UNL     1      69.043  82.647  81.438  0.00  0.00    +0.000 A 
BRANCH  15  18
ATOM     18  O   UNL     1      69.883  80.911  82.860  0.00  0.00    +0.000 OA
ATOM     19  H   UNL     1      69.834  80.453  82.000  0.00  0.00    +0.000 HD
ENDBRANCH  15  18
BRANCH  17  20
ATOM     20  O   UNL     1      68.585  81.729  80.539  0.00  0.00    +0.000 OA
ATOM     21  H   UNL     1      67.611  81.764  80.578  0.00  0.00    +0.000 HD
ENDBRANCH  17  20
ENDBRANCH   5  12
BRANCH   6  22
ATOM     22  O   UNL     1      72.629  85.533  83.791  0.00  0.00    +0.000 OA
ATOM     23  H   UNL     1      72.499  85.705  82.845  0.00  0.00    +0.000 HD
ENDBRANCH   6  22
BRANCH   8  24
ATOM     24  O   UNL     1      71.927  88.956  87.712  0.00  0.00    +0.000 OA
ATOM     25  H   UNL     1      71.915  89.103  88.687  0.00  0.00    +0.000 HD
ENDBRANCH   8  24
BRANCH  10  26
ATOM     26  O   UNL     1      67.235  88.713  88.374  0.00  0.00    +0.000 OA
ATOM     27  H   UNL     1      66.882  89.500  87.922  0.00  0.00    +0.000 HD
ENDBRANCH  10  26
TORSDOF 6
ENDMDL
MODEL 4
REMARK VINA RESULT:      -5.6     14.074     16.737
REMARK  Name = Quercetin.pdbqt.pdb
REMARK  6 active torsions:
REMARK  status: ('A' for Active; 'I' for Inactive)
REMARK    1  A    between atoms: C_5  and  C_12
REMARK    2  A    between atoms: C_6  and  O_22
REMARK    3  A    between atoms: C_8  and  O_24
REMARK    4  A    between atoms: C_10  and  O_26
REMARK    5  A    between atoms: C_15  and  O_18
REMARK    6  A    between atoms: C_17  and  O_20
REMARK                            x       y       z     vdW  Elec       q    Type
REMARK                         _______ _______ _______ _____ _____    ______ ____
ROOT
ATOM      1  O   UNL     1      63.212  42.203  54.933  0.00  0.00    +0.000 OA
ATOM      2  O   UNL     1      62.575  40.696  51.212  0.00  0.00    +0.000 OA
ATOM      3  C   UNL     1      62.179  40.539  53.504  0.00  0.00    +0.000 A 
ATOM      4  C   UNL     1      62.433  41.093  54.754  0.00  0.00    +0.000 A 
ATOM      5  C   UNL     1      63.766  42.821  53.821  0.00  0.00    +0.000 A 
ATOM      6  C   UNL     1      63.615  42.386  52.551  0.00  0.00    +0.000 A 
ATOM      7  C   UNL     1      62.777  41.174  52.326  0.00  0.00    +0.000 A 
ATOM      8  C   UNL     1      61.372  39.399  53.395  0.00  0.00    +0.000 A 
ATOM      9  C   UNL     1      61.885  40.517  55.899  0.00  0.00    +0.000 A 
ATOM     10  C   UNL     1      61.084  39.386  55.780  0.00  0.00    +0.000 A 
ATOM     11  C   UNL     1      60.823  38.821  54.536  0.00  0.00    +0.000 A 
ENDROOT
BRANCH   5  12
ATOM     12  C   UNL     1      64.552  44.008  54.184  0.00  0.00    +0.000 A 
ATOM     13  C   UNL     1      65.946  43.945  54.285  0.00  0.00    +0.000 A 
ATOM     14  C   UNL     1      63.906  45.237  54.372  0.00  0.00    +0.000 A 
ATOM     15  C   UNL     1      66.667  45.091  54.593  0.00  0.00    +0.000 A 
ATOM     16  C   UNL     1      64.634  46.389  54.665  0.00  0.00    +0.000 A 
ATOM     17  C   UNL     1      66.017  46.310  54.756  0.00  0.00    +0.000 A 
BRANCH  15  18
ATOM     18  O   UNL     1      68.016  44.991  54.766  0.00  0.00    +0.000 OA
ATOM     19  H   UNL     1      68.326  44.267  54.191  0.00  0.00    +0.000 HD
ENDBRANCH  15  18
BRANCH  17  20
ATOM     20  O   UNL     1      66.732  47.449  54.986  0.00  0.00    +0.000 OA
ATOM     21  H   UNL     1      66.085  48.144  55.207  0.00  0.00    +0.000 HD
ENDBRANCH  17  20
ENDBRANCH   5  12
BRANCH   6  22
ATOM     22  O   UNL     1      64.190  42.963  51.435  0.00  0.00    +0.000 OA
ATOM     23  H   UNL     1      64.993  43.447  51.684  0.00  0.00    +0.000 HD
ENDBRANCH   6  22
BRANCH   8  24
ATOM     24  O   UNL     1      61.082  38.799  52.199  0.00  0.00    +0.000 OA
ATOM     25  H   UNL     1      60.269  39.218  51.833  0.00  0.00    +0.000 HD
ENDBRANCH   8  24
BRANCH  10  26
ATOM     26  O   UNL     1      60.559  38.841  56.915  0.00  0.00    +0.000 OA
ATOM     27  H   UNL     1      60.567  37.872  56.817  0.00  0.00    +0.000 HD
ENDBRANCH  10  26
TORSDOF 6
ENDMDL
MODEL 5
REMARK VINA RESULT:      -5.5     20.250     21.638
REMARK  Name = Quercetin.pdbqt.pdb
REMARK  6 active torsions:
REMARK  status: ('A' for Active; 'I' for Inactive)
REMARK    1  A    between atoms: C_5  and  C_12
REMARK    2  A    between atoms: C_6  and  O_22
REMARK    3  A    between atoms: C_8  and  O_24
REMARK    4  A    between atoms: C_10  and  O_26
REMARK    5  A    between atoms: C_15  and  O_18
REMARK    6  A    between atoms: C_17  and  O_20
REMARK                            x       y       z     vdW  Elec       q    Type
REMARK                         _______ _______ _______ _____ _____    ______ ____
ROOT
ATOM      1  O   UNL     1      62.607  54.147  59.420  0.00  0.00    +0.000 OA
ATOM      2  O   UNL     1      59.751  51.259  59.568  0.00  0.00    +0.000 OA
ATOM      3  C   UNL     1      62.014  51.796  59.415  0.00  0.00    +0.000 A 
ATOM      4  C   UNL     1      62.949  52.824  59.364  0.00  0.00    +0.000 A 
ATOM      5  C   UNL     1      61.269  54.489  59.550  0.00  0.00    +0.000 A 
ATOM      6  C   UNL     1      60.254  53.600  59.599  0.00  0.00    +0.000 A 
ATOM      7  C   UNL     1      60.596  52.150  59.532  0.00  0.00    +0.000 A 
ATOM      8  C   UNL     1      62.436  50.462  59.351  0.00  0.00    +0.000 A 
ATOM      9  C   UNL     1      64.307  52.529  59.251  0.00  0.00    +0.000 A 
ATOM     10  C   UNL     1      64.716  51.201  59.189  0.00  0.00    +0.000 A 
ATOM     11  C   UNL     1      63.791  50.163  59.238  0.00  0.00    +0.000 A 
ENDROOT
BRANCH   5  12
ATOM     12  C   UNL     1      61.076  55.945  59.619  0.00  0.00    +0.000 A 
ATOM     13  C   UNL     1      59.822  56.516  59.381  0.00  0.00    +0.000 A 
ATOM     14  C   UNL     1      62.147  56.769  59.990  0.00  0.00    +0.000 A 
ATOM     15  C   UNL     1      59.660  57.892  59.490  0.00  0.00    +0.000 A 
ATOM     16  C   UNL     1      61.976  58.147  60.114  0.00  0.00    +0.000 A 
ATOM     17  C   UNL     1      60.724  58.698  59.879  0.00  0.00    +0.000 A 
BRANCH  15  18
ATOM     18  O   UNL     1      58.450  58.437  59.174  0.00  0.00    +0.000 OA
ATOM     19  H   UNL     1      57.766  57.827  59.508  0.00  0.00    +0.000 HD
ENDBRANCH  15  18
BRANCH  17  20
ATOM     20  O   UNL     1      60.546  60.039  60.057  0.00  0.00    +0.000 OA
ATOM     21  H   UNL     1      61.251  60.335  60.662  0.00  0.00    +0.000 HD
ENDBRANCH  17  20
ENDBRANCH   5  12
BRANCH   6  22
ATOM     22  O   UNL     1      58.913  53.921  59.688  0.00  0.00    +0.000 OA
ATOM     23  H   UNL     1      58.723  54.330  60.547  0.00  0.00    +0.000 HD
ENDBRANCH   6  22
BRANCH   8  24
ATOM     24  O   UNL     1      61.572  49.402  59.393  0.00  0.00    +0.000 OA
ATOM     25  H   UNL     1      60.771  49.675  59.899  0.00  0.00    +0.000 HD
ENDBRANCH   8  24
BRANCH  10  26
ATOM     26  O   UNL     1      66.050  50.938  59.078  0.00  0.00    +0.000 OA
ATOM     27  H   UNL     1      66.310  51.079  58.150  0.00  0.00    +0.000 HD
ENDBRANCH  10  26
TORSDOF 6
ENDMDL
MODEL 6
REMARK VINA RESULT:      -5.4      9.544     13.239
REMARK  Name = Quercetin.pdbqt.pdb
REMARK  6 active torsions:
REMARK  status: ('A' for Active; 'I' for Inactive)
REMARK    1  A    between atoms: C_5  and  C_12
REMARK    2  A    between atoms: C_6  and  O_22
REMARK    3  A    between atoms: C_8  and  O_24
REMARK    4  A    between atoms: C_10  and  O_26
REMARK    5  A    between atoms: C_15  and  O_18
REMARK    6  A    between atoms: C_17  and  O_20
REMARK                            x       y       z     vdW  Elec       q    Type
REMARK                         _______ _______ _______ _____ _____    ______ ____
ROOT
ATOM      1  O   UNL     1      58.037  38.160  68.926  0.00  0.00    +0.000 OA
ATOM      2  O   UNL     1      61.641  40.035  68.806  0.00  0.00    +0.000 OA
ATOM      3  C   UNL     1      60.119  38.607  67.767  0.00  0.00    +0.000 A 
ATOM      4  C   UNL     1      58.878  37.988  67.861  0.00  0.00    +0.000 A 
ATOM      5  C   UNL     1      58.424  39.004  69.957  0.00  0.00    +0.000 A 
ATOM      6  C   UNL     1      59.604  39.660  70.005  0.00  0.00    +0.000 A 
ATOM      7  C   UNL     1      60.544  39.484  68.862  0.00  0.00    +0.000 A 
ATOM      8  C   UNL     1      60.930  38.384  66.647  0.00  0.00    +0.000 A 
ATOM      9  C   UNL     1      58.439  37.144  66.842  0.00  0.00    +0.000 A 
ATOM     10  C   UNL     1      59.251  36.929  65.733  0.00  0.00    +0.000 A 
ATOM     11  C   UNL     1      60.495  37.542  65.627  0.00  0.00    +0.000 A 
ENDROOT
BRANCH   5  12
ATOM     12  C   UNL     1      57.400  39.097  71.007  0.00  0.00    +0.000 A 
ATOM     13  C   UNL     1      57.573  38.458  72.239  0.00  0.00    +0.000 A 
ATOM     14  C   UNL     1      56.263  39.887  70.798  0.00  0.00    +0.000 A 
ATOM     15  C   UNL     1      56.607  38.593  73.228  0.00  0.00    +0.000 A 
ATOM     16  C   UNL     1      55.303  40.035  71.798  0.00  0.00    +0.000 A 
ATOM     17  C   UNL     1      55.492  39.397  73.017  0.00  0.00    +0.000 A 
BRANCH  15  18
ATOM     18  O   UNL     1      56.755  37.896  74.390  0.00  0.00    +0.000 OA
ATOM     19  H   UNL     1      56.589  36.957  74.184  0.00  0.00    +0.000 HD
ENDBRANCH  15  18
BRANCH  17  20
ATOM     20  O   UNL     1      54.580  39.589  74.014  0.00  0.00    +0.000 OA
ATOM     21  H   UNL     1      54.396  38.710  74.394  0.00  0.00    +0.000 HD
ENDBRANCH  17  20
ENDBRANCH   5  12
BRANCH   6  22
ATOM     22  O   UNL     1      60.025  40.472  71.041  0.00  0.00    +0.000 OA
ATOM     23  H   UNL     1      60.263  41.350  70.703  0.00  0.00    +0.000 HD
ENDBRANCH   6  22
BRANCH   8  24
ATOM     24  O   UNL     1      62.162  38.958  66.489  0.00  0.00    +0.000 OA
ATOM     25  H   UNL     1      62.815  38.437  67.012  0.00  0.00    +0.000 HD
ENDBRANCH   8  24
BRANCH  10  26
ATOM     26  O   UNL     1      58.799  36.100  64.749  0.00  0.00    +0.000 OA
ATOM     27  H   UNL     1      59.506  35.463  64.541  0.00  0.00    +0.000 HD
ENDBRANCH  10  26
TORSDOF 6
ENDMDL
MODEL 7
REMARK VINA RESULT:      -5.4      9.552     13.242
REMARK  Name = Quercetin.pdbqt.pdb
REMARK  6 active torsions:
REMARK  status: ('A' for Active; 'I' for Inactive)
REMARK    1  A    between atoms: C_5  and  C_12
REMARK    2  A    between atoms: C_6  and  O_22
REMARK    3  A    between atoms: C_8  and  O_24
REMARK    4  A    between atoms: C_10  and  O_26
REMARK    5  A    between atoms: C_15  and  O_18
REMARK    6  A    between atoms: C_17  and  O_20
REMARK                            x       y       z     vdW  Elec       q    Type
REMARK                         _______ _______ _______ _____ _____    ______ ____
ROOT
ATOM      1  O   UNL     1      62.290  37.878  67.509  0.00  0.00    +0.000 OA
ATOM      2  O   UNL     1      62.360  41.475  69.402  0.00  0.00    +0.000 OA
ATOM      3  C   UNL     1      63.551  39.637  68.603  0.00  0.00    +0.000 A 
ATOM      4  C   UNL     1      63.470  38.410  67.954  0.00  0.00    +0.000 A 
ATOM      5  C   UNL     1      61.118  38.596  67.696  0.00  0.00    +0.000 A 
ATOM      6  C   UNL     1      61.046  39.792  68.319  0.00  0.00    +0.000 A 
ATOM      7  C   UNL     1      62.314  40.393  68.822  0.00  0.00    +0.000 A 
ATOM      8  C   UNL     1      64.794  40.120  69.032  0.00  0.00    +0.000 A 
ATOM      9  C   UNL     1      64.623  37.660  67.729  0.00  0.00    +0.000 A 
ATOM     10  C   UNL     1      65.852  38.149  68.159  0.00  0.00    +0.000 A 
ATOM     11  C   UNL     1      65.948  39.375  68.810  0.00  0.00    +0.000 A 
ENDROOT
BRANCH   5  12
ATOM     12  C   UNL     1      59.950  37.898  67.141  0.00  0.00    +0.000 A 
ATOM     13  C   UNL     1      58.773  37.763  67.885  0.00  0.00    +0.000 A 
ATOM     14  C   UNL     1      59.990  37.414  65.828  0.00  0.00    +0.000 A 
ATOM     15  C   UNL     1      57.671  37.131  67.323  0.00  0.00    +0.000 A 
ATOM     16  C   UNL     1      58.877  36.796  65.260  0.00  0.00    +0.000 A 
ATOM     17  C   UNL     1      57.716  36.674  66.010  0.00  0.00    +0.000 A 
BRANCH  15  18
ATOM     18  O   UNL     1      56.562  36.937  68.093  0.00  0.00    +0.000 OA
ATOM     19  H   UNL     1      56.782  37.242  68.993  0.00  0.00    +0.000 HD
ENDBRANCH  15  18
BRANCH  17  20
ATOM     20  O   UNL     1      56.610  36.119  65.434  0.00  0.00    +0.000 OA
ATOM     21  H   UNL     1      56.749  36.160  64.470  0.00  0.00    +0.000 HD
ENDBRANCH  17  20
ENDBRANCH   5  12
BRANCH   6  22
ATOM     22  O   UNL     1      59.884  40.504  68.550  0.00  0.00    +0.000 OA
ATOM     23  H   UNL     1      59.819  41.250  67.933  0.00  0.00    +0.000 HD
ENDBRANCH   6  22
BRANCH   8  24
ATOM     24  O   UNL     1      64.948  41.317  69.679  0.00  0.00    +0.000 OA
ATOM     25  H   UNL     1      64.783  41.173  70.640  0.00  0.00    +0.000 HD
ENDBRANCH   8  24
BRANCH  10  26
ATOM     26  O   UNL     1      66.966  37.397  67.928  0.00  0.00    +0.000 OA
ATOM     27  H   UNL     1      67.144  36.865  68.724  0.00  0.00    +0.000 HD
ENDBRANCH  10  26
TORSDOF 6
ENDMDL
MODEL 8
REMARK VINA RESULT:      -5.3     32.774     34.555
REMARK  Name = Quercetin.pdbqt.pdb
REMARK  6 active torsions:
REMARK  status: ('A' for Active; 'I' for Inactive)
REMARK    1  A    between atoms: C_5  and  C_12
REMARK    2  A    between atoms: C_6  and  O_22
REMARK    3  A    between atoms: C_8  and  O_24
REMARK    4  A    between atoms: C_10  and  O_26
REMARK    5  A    between atoms: C_15  and  O_18
REMARK    6  A    between atoms: C_17  and  O_20
REMARK                            x       y       z     vdW  Elec       q    Type
REMARK                         _______ _______ _______ _____ _____    ______ ____
ROOT
ATOM      1  O   UNL     1      62.129  68.097  68.842  0.00  0.00    +0.000 OA
ATOM      2  O   UNL     1      59.790  66.183  66.124  0.00  0.00    +0.000 OA
ATOM      3  C   UNL     1      59.998  67.099  68.257  0.00  0.00    +0.000 A 
ATOM      4  C   UNL     1      60.842  67.751  69.150  0.00  0.00    +0.000 A 
ATOM      5  C   UNL     1      62.618  67.804  67.578  0.00  0.00    +0.000 A 
ATOM      6  C   UNL     1      61.918  67.164  66.616  0.00  0.00    +0.000 A 
ATOM      7  C   UNL     1      60.515  66.767  66.926  0.00  0.00    +0.000 A 
ATOM      8  C   UNL     1      58.691  66.774  68.641  0.00  0.00    +0.000 A 
ATOM      9  C   UNL     1      60.389  68.081  70.426  0.00  0.00    +0.000 A 
ATOM     10  C   UNL     1      59.088  67.754  70.797  0.00  0.00    +0.000 A 
ATOM     11  C   UNL     1      58.234  67.102  69.914  0.00  0.00    +0.000 A 
ENDROOT
BRANCH   5  12
ATOM     12  C   UNL     1      64.004  68.262  67.403  0.00  0.00    +0.000 A 
ATOM     13  C   UNL     1      65.080  67.392  67.603  0.00  0.00    +0.000 A 
ATOM     14  C   UNL     1      64.252  69.571  66.970  0.00  0.00    +0.000 A 
ATOM     15  C   UNL     1      66.378  67.841  67.394  0.00  0.00    +0.000 A 
ATOM     16  C   UNL     1      65.554  70.014  66.745  0.00  0.00    +0.000 A 
ATOM     17  C   UNL     1      66.611  69.136  66.944  0.00  0.00    +0.000 A 
BRANCH  15  18
ATOM     18  O   UNL     1      67.416  67.002  67.674  0.00  0.00    +0.000 OA
ATOM     19  H   UNL     1      67.421  66.313  66.984  0.00  0.00    +0.000 HD
ENDBRANCH  15  18
BRANCH  17  20
ATOM     20  O   UNL     1      67.880  69.553  66.669  0.00  0.00    +0.000 OA
ATOM     21  H   UNL     1      68.341  68.795  66.264  0.00  0.00    +0.000 HD
ENDBRANCH  17  20
ENDBRANCH   5  12
BRANCH   6  22
ATOM     22  O   UNL     1      62.400  66.828  65.366  0.00  0.00    +0.000 OA
ATOM     23  H   UNL     1      61.979  66.012  65.052  0.00  0.00    +0.000 HD
ENDBRANCH   6  22
BRANCH   8  24
ATOM     24  O   UNL     1      57.807  66.131  67.816  0.00  0.00    +0.000 OA
ATOM     25  H   UNL     1      58.267  65.931  66.967  0.00  0.00    +0.000 HD
ENDBRANCH   8  24
BRANCH  10  26
ATOM     26  O   UNL     1      58.669  68.088  72.051  0.00  0.00    +0.000 OA
ATOM     27  H   UNL     1      59.433  68.028  72.653  0.00  0.00    +0.000 HD
ENDBRANCH  10  26
TORSDOF 6
ENDMDL
MODEL 9
REMARK VINA RESULT:      -5.3     19.162     20.392
REMARK  Name = Quercetin.pdbqt.pdb
REMARK  6 active torsions:
REMARK  status: ('A' for Active; 'I' for Inactive)
REMARK    1  A    between atoms: C_5  and  C_12
REMARK    2  A    between atoms: C_6  and  O_22
REMARK    3  A    between atoms: C_8  and  O_24
REMARK    4  A    between atoms: C_10  and  O_26
REMARK    5  A    between atoms: C_15  and  O_18
REMARK    6  A    between atoms: C_17  and  O_20
REMARK                            x       y       z     vdW  Elec       q    Type
REMARK                         _______ _______ _______ _____ _____    ______ ____
ROOT
ATOM      1  O   UNL     1      63.318  52.790  59.531  0.00  0.00    +0.000 OA
ATOM      2  O   UNL     1      59.279  52.398  59.296  0.00  0.00    +0.000 OA
ATOM      3  C   UNL     1      61.106  53.694  59.942  0.00  0.00    +0.000 A 
ATOM      4  C   UNL     1      62.492  53.775  60.001  0.00  0.00    +0.000 A 
ATOM      5  C   UNL     1      62.754  51.662  58.952  0.00  0.00    +0.000 A 
ATOM      6  C   UNL     1      61.426  51.443  58.839  0.00  0.00    +0.000 A 
ATOM      7  C   UNL     1      60.502  52.496  59.350  0.00  0.00    +0.000 A 
ATOM      8  C   UNL     1      60.322  54.740  60.444  0.00  0.00    +0.000 A 
ATOM      9  C   UNL     1      63.104  54.896  60.559  0.00  0.00    +0.000 A 
ATOM     10  C   UNL     1      62.317  55.930  61.054  0.00  0.00    +0.000 A 
ATOM     11  C   UNL     1      60.928  55.862  61.002  0.00  0.00    +0.000 A 
ENDROOT
BRANCH   5  12
ATOM     12  C   UNL     1      63.775  50.716  58.480  0.00  0.00    +0.000 A 
ATOM     13  C   UNL     1      63.740  50.212  57.176  0.00  0.00    +0.000 A 
ATOM     14  C   UNL     1      64.834  50.360  59.325  0.00  0.00    +0.000 A 
ATOM     15  C   UNL     1      64.739  49.349  56.744  0.00  0.00    +0.000 A 
ATOM     16  C   UNL     1      65.844  49.507  58.883  0.00  0.00    +0.000 A 
ATOM     17  C   UNL     1      65.797  49.019  57.584  0.00  0.00    +0.000 A 
BRANCH  15  18
ATOM     18  O   UNL     1      64.642  48.804  55.497  0.00  0.00    +0.000 OA
ATOM     19  H   UNL     1      63.737  48.451  55.409  0.00  0.00    +0.000 HD
ENDBRANCH  15  18
BRANCH  17  20
ATOM     20  O   UNL     1      66.815  48.230  57.135  0.00  0.00    +0.000 OA
ATOM     21  H   UNL     1      67.499  48.831  56.786  0.00  0.00    +0.000 HD
ENDBRANCH  17  20
ENDBRANCH   5  12
BRANCH   6  22
ATOM     22  O   UNL     1      60.845  50.310  58.303  0.00  0.00    +0.000 OA
ATOM     23  H   UNL     1      60.185  50.555  57.635  0.00  0.00    +0.000 HD
ENDBRANCH   6  22
BRANCH   8  24
ATOM     24  O   UNL     1      58.953  54.727  60.421  0.00  0.00    +0.000 OA
ATOM     25  H   UNL     1      58.629  54.667  61.350  0.00  0.00    +0.000 HD
ENDBRANCH   8  24
BRANCH  10  26
ATOM     26  O   UNL     1      62.939  57.017  61.595  0.00  0.00    +0.000 OA
ATOM     27  H   UNL     1      62.865  56.957  62.564  0.00  0.00    +0.000 HD
ENDBRANCH  10  26
TORSDOF 6
ENDMDL
