MODEL 1
REMARK VINA RESULT:      -6.0      0.000      0.000
REMARK  Name = 
REMARK  14 active torsions:
REMARK  status: ('A' for Active; 'I' for Inactive)
REMARK    1  A    between atoms: O_1  and  C_24
REMARK    2  A    between atoms: O_1  and  C_36
REMARK    3  A    between atoms: O_4  and  C_30
REMARK    4  A    between atoms: O_4  and  C_37
REMARK    5  A    between atoms: O_7  and  C_33
REMARK    6  A    between atoms: O_7  and  C_38
REMARK    7  A    between atoms: N_10  and  C_23
REMARK    8  A    between atoms: C_15  and  C_26
REMARK    9  A    between atoms: C_16  and  C_24
REMARK   10  A    between atoms: C_31  and  C_34
REMARK   11  A    between atoms: C_32  and  C_35
REMARK   12  A    between atoms: C_36  and  C_39
REMARK   13  A    between atoms: C_39  and  C_40
REMARK   14  A    between atoms: C_41  and  C_42
REMARK                            x       y       z     vdW  Elec       q    Type
REMARK                         _______ _______ _______ _____ _____    ______ ____
ROOT
ATOM      1  O   UNL     1      63.037  52.832  55.752  0.00  0.00    +0.000 OA
ATOM      2  O   UNL     1      61.756  49.745  59.886  0.00  0.00    +0.000 OA
ATOM      3  O   UNL     1      63.238  57.423  56.541  0.00  0.00    +0.000 OA
ATOM      4  O   UNL     1      59.741  58.242  60.462  0.00  0.00    +0.000 OA
ATOM      5  N   UNL     1      59.831  54.354  58.720  0.00  0.00    +0.000 NA
ATOM      6  N   UNL     1      59.009  52.428  56.661  0.00  0.00    +0.000 NA
ATOM      7  C   UNL     1      60.268  54.465  57.305  0.00  0.00    +0.000 C 
ATOM      8  C   UNL     1      60.367  53.041  56.608  0.00  0.00    +0.000 C 
ATOM      9  C   UNL     1      58.650  52.187  58.082  0.00  0.00    +0.000 C 
ATOM     10  C   UNL     1      58.567  53.559  58.850  0.00  0.00    +0.000 C 
ATOM     11  C   UNL     1      59.822  55.619  59.507  0.00  0.00    +0.000 C 
ATOM     12  C   UNL     1      61.602  55.234  57.200  0.00  0.00    +0.000 C 
ATOM     13  C   UNL     1      59.644  51.220  58.782  0.00  0.00    +0.000 C 
ATOM     14  C   UNL     1      61.402  52.157  57.291  0.00  0.00    +0.000 C 
ATOM     15  C   UNL     1      61.068  51.341  58.301  0.00  0.00    +0.000 C 
ATOM     16  C   UNL     1      60.718  56.720  58.962  0.00  0.00    +0.000 C 
ATOM     17  C   UNL     1      61.549  56.543  57.927  0.00  0.00    +0.000 C 
ATOM     18  C   UNL     1      58.861  51.257  55.802  0.00  0.00    +0.000 C 
ATOM     19  C   UNL     1      62.784  52.181  56.760  0.00  0.00    +0.000 C 
ATOM     20  C   UNL     1      62.078  50.493  58.969  0.00  0.00    +0.000 C 
ATOM     21  C   UNL     1      62.446  57.621  57.456  0.00  0.00    +0.000 C 
ATOM     22  C   UNL     1      60.598  58.054  59.606  0.00  0.00    +0.000 C 
ATOM     23  C   UNL     1      63.832  51.395  57.492  0.00  0.00    +0.000 C 
ATOM     24  C   UNL     1      63.487  50.590  58.509  0.00  0.00    +0.000 C 
ATOM     25  C   UNL     1      62.383  58.934  58.146  0.00  0.00    +0.000 C 
ATOM     26  C   UNL     1      61.536  59.140  59.167  0.00  0.00    +0.000 C 
ATOM     27  C   UNL     1      64.457  49.727  59.262  0.00  0.00    +0.000 C 
ATOM     28  C   UNL     1      63.328  59.973  57.615  0.00  0.00    +0.000 C 
ENDROOT
BRANCH  23  29
ATOM     29  O   UNL     1      65.163  51.437  57.090  0.00  0.00    +0.000 OA
ATOM     30  C   UNL     1      65.501  50.587  55.997  0.00  0.00    +0.000 C 
ENDBRANCH  23  29
BRANCH  26  31
ATOM     31  O   UNL     1      61.497  60.394  59.767  0.00  0.00    +0.000 OA
ATOM     32  C   UNL     1      60.451  61.249  59.310  0.00  0.00    +0.000 C 
ENDBRANCH  26  31
BRANCH  10  34
ATOM     33  N   UNL     1      56.383  54.861  58.093  0.00  0.00    +0.000 NA
ATOM     34  C   UNL     1      57.336  54.278  58.408  0.00  0.00    +0.000 C 
ENDBRANCH  10  34
BRANCH  11  35
ATOM     35  C   UNL     1      60.241  55.265  60.965  0.00  0.00    +0.000 C 
BRANCH  35  36
ATOM     36  O   UNL     1      61.472  54.513  60.935  0.00  0.00    +0.000 OA
BRANCH  36  38
ATOM     37  O   UNL     1      62.556  55.487  62.702  0.00  0.00    +0.000 OA
ATOM     38  C   UNL     1      62.522  55.116  61.540  0.00  0.00    +0.000 C 
BRANCH  38  39
ATOM     39  C   UNL     1      63.703  55.151  60.631  0.00  0.00    +0.000 C 
ATOM     40  C   UNL     1      63.994  53.826  59.983  0.00  0.00    +0.000 C 
ATOM     41  C   UNL     1      64.467  56.237  60.400  0.00  0.00    +0.000 C 
ATOM     42  C   UNL     1      64.376  57.589  61.035  0.00  0.00    +0.000 C 
ENDBRANCH  38  39
ENDBRANCH  36  38
ENDBRANCH  35  36
ENDBRANCH  11  35
TORSDOF 7
ENDMDL
MODEL 2
REMARK VINA RESULT:      -5.6     17.310     20.852
REMARK  Name = 
REMARK  14 active torsions:
REMARK  status: ('A' for Active; 'I' for Inactive)
REMARK    1  A    between atoms: O_1  and  C_24
REMARK    2  A    between atoms: O_1  and  C_36
REMARK    3  A    between atoms: O_4  and  C_30
REMARK    4  A    between atoms: O_4  and  C_37
REMARK    5  A    between atoms: O_7  and  C_33
REMARK    6  A    between atoms: O_7  and  C_38
REMARK    7  A    between atoms: N_10  and  C_23
REMARK    8  A    between atoms: C_15  and  C_26
REMARK    9  A    between atoms: C_16  and  C_24
REMARK   10  A    between atoms: C_31  and  C_34
REMARK   11  A    between atoms: C_32  and  C_35
REMARK   12  A    between atoms: C_36  and  C_39
REMARK   13  A    between atoms: C_39  and  C_40
REMARK   14  A    between atoms: C_41  and  C_42
REMARK                            x       y       z     vdW  Elec       q    Type
REMARK                         _______ _______ _______ _____ _____    ______ ____
ROOT
ATOM      1  O   UNL     1      63.214  38.414  73.140  0.00  0.00    +0.000 OA
ATOM      2  O   UNL     1      65.016  35.674  68.955  0.00  0.00    +0.000 OA
ATOM      3  O   UNL     1      58.587  38.809  73.557  0.00  0.00    +0.000 OA
ATOM      4  O   UNL     1      56.792  38.639  68.554  0.00  0.00    +0.000 OA
ATOM      5  N   UNL     1      61.011  38.876  69.097  0.00  0.00    +0.000 NA
ATOM      6  N   UNL     1      63.479  40.414  69.514  0.00  0.00    +0.000 NA
ATOM      7  C   UNL     1      61.300  39.592  70.367  0.00  0.00    +0.000 C 
ATOM      8  C   UNL     1      62.860  39.675  70.653  0.00  0.00    +0.000 C 
ATOM      9  C   UNL     1      63.311  39.611  68.276  0.00  0.00    +0.000 C 
ATOM     10  C   UNL     1      61.779  39.455  67.948  0.00  0.00    +0.000 C 
ATOM     11  C   UNL     1      59.574  38.632  68.791  0.00  0.00    +0.000 C 
ATOM     12  C   UNL     1      60.548  38.942  71.547  0.00  0.00    +0.000 C 
ATOM     13  C   UNL     1      63.999  38.221  68.382  0.00  0.00    +0.000 C 
ATOM     14  C   UNL     1      63.472  38.291  70.813  0.00  0.00    +0.000 C 
ATOM     15  C   UNL     1      63.972  37.620  69.765  0.00  0.00    +0.000 C 
ATOM     16  C   UNL     1      58.648  38.663  69.997  0.00  0.00    +0.000 C 
ATOM     17  C   UNL     1      59.087  38.780  71.256  0.00  0.00    +0.000 C 
ATOM     18  C   UNL     1      64.852  40.838  69.769  0.00  0.00    +0.000 C 
ATOM     19  C   UNL     1      63.554  37.729  72.181  0.00  0.00    +0.000 C 
ATOM     20  C   UNL     1      64.555  36.271  69.922  0.00  0.00    +0.000 C 
ATOM     21  C   UNL     1      58.160  38.754  72.409  0.00  0.00    +0.000 C 
ATOM     22  C   UNL     1      57.189  38.610  69.715  0.00  0.00    +0.000 C 
ATOM     23  C   UNL     1      64.057  36.325  72.336  0.00  0.00    +0.000 C 
ATOM     24  C   UNL     1      64.545  35.659  71.276  0.00  0.00    +0.000 C 
ATOM     25  C   UNL     1      56.708  38.625  72.135  0.00  0.00    +0.000 C 
ATOM     26  C   UNL     1      56.245  38.536  70.878  0.00  0.00    +0.000 C 
ATOM     27  C   UNL     1      65.119  34.274  71.347  0.00  0.00    +0.000 C 
ATOM     28  C   UNL     1      55.834  38.599  73.356  0.00  0.00    +0.000 C 
ENDROOT
BRANCH  23  29
ATOM     29  O   UNL     1      64.087  35.712  73.584  0.00  0.00    +0.000 OA
ATOM     30  C   UNL     1      62.850  35.161  74.026  0.00  0.00    +0.000 C 
ENDBRANCH  23  29
BRANCH  26  31
ATOM     31  O   UNL     1      54.873  38.440  70.670  0.00  0.00    +0.000 OA
ATOM     32  C   UNL     1      54.221  39.672  70.367  0.00  0.00    +0.000 C 
ENDBRANCH  26  31
BRANCH  10  34
ATOM     33  N   UNL     1      60.891  41.789  67.052  0.00  0.00    +0.000 NA
ATOM     34  C   UNL     1      61.262  40.766  67.457  0.00  0.00    +0.000 C 
ENDBRANCH  10  34
BRANCH  11  35
ATOM     35  C   UNL     1      59.476  37.249  68.081  0.00  0.00    +0.000 C 
BRANCH  35  36
ATOM     36  O   UNL     1      59.062  37.447  66.713  0.00  0.00    +0.000 OA
BRANCH  36  38
ATOM     37  O   UNL     1      61.018  37.073  65.581  0.00  0.00    +0.000 OA
ATOM     38  C   UNL     1      59.840  36.835  65.790  0.00  0.00    +0.000 C 
BRANCH  38  39
ATOM     39  C   UNL     1      59.100  35.717  65.137  0.00  0.00    +0.000 C 
ATOM     40  C   UNL     1      59.381  34.377  65.756  0.00  0.00    +0.000 C 
ATOM     41  C   UNL     1      58.265  35.854  64.087  0.00  0.00    +0.000 C 
ATOM     42  C   UNL     1      57.958  37.088  63.300  0.00  0.00    +0.000 C 
ENDBRANCH  38  39
ENDBRANCH  36  38
ENDBRANCH  35  36
ENDBRANCH  11  35
TORSDOF 7
ENDMDL
MODEL 3
REMARK VINA RESULT:      -5.5     17.296     21.040
REMARK  Name = 
REMARK  14 active torsions:
REMARK  status: ('A' for Active; 'I' for Inactive)
REMARK    1  A    between atoms: O_1  and  C_24
REMARK    2  A    between atoms: O_1  and  C_36
REMARK    3  A    between atoms: O_4  and  C_30
REMARK    4  A    between atoms: O_4  and  C_37
REMARK    5  A    between atoms: O_7  and  C_33
REMARK    6  A    between atoms: O_7  and  C_38
REMARK    7  A    between atoms: N_10  and  C_23
REMARK    8  A    between atoms: C_15  and  C_26
REMARK    9  A    between atoms: C_16  and  C_24
REMARK   10  A    between atoms: C_31  and  C_34
REMARK   11  A    between atoms: C_32  and  C_35
REMARK   12  A    between atoms: C_36  and  C_39
REMARK   13  A    between atoms: C_39  and  C_40
REMARK   14  A    between atoms: C_41  and  C_42
REMARK                            x       y       z     vdW  Elec       q    Type
REMARK                         _______ _______ _______ _____ _____    ______ ____
ROOT
ATOM      1  O   UNL     1      60.931  34.849  70.583  0.00  0.00    +0.000 OA
ATOM      2  O   UNL     1      59.273  38.809  73.720  0.00  0.00    +0.000 OA
ATOM      3  O   UNL     1      65.284  35.154  68.940  0.00  0.00    +0.000 OA
ATOM      4  O   UNL     1      66.214  40.380  68.627  0.00  0.00    +0.000 OA
ATOM      5  N   UNL     1      62.234  39.167  69.547  0.00  0.00    +0.000 NA
ATOM      6  N   UNL     1      59.547  38.300  68.739  0.00  0.00    +0.000 NA
ATOM      7  C   UNL     1      61.976  37.838  68.934  0.00  0.00    +0.000 C 
ATOM      8  C   UNL     1      60.519  37.306  69.279  0.00  0.00    +0.000 C 
ATOM      9  C   UNL     1      59.720  39.581  69.469  0.00  0.00    +0.000 C 
ATOM     10  C   UNL     1      61.162  40.155  69.203  0.00  0.00    +0.000 C 
ATOM     11  C   UNL     1      63.614  39.706  69.391  0.00  0.00    +0.000 C 
ATOM     12  C   UNL     1      63.058  36.820  69.351  0.00  0.00    +0.000 C 
ATOM     13  C   UNL     1      59.459  39.427  70.994  0.00  0.00    +0.000 C 
ATOM     14  C   UNL     1      60.338  37.109  70.777  0.00  0.00    +0.000 C 
ATOM     15  C   UNL     1      59.872  38.093  71.561  0.00  0.00    +0.000 C 
ATOM     16  C   UNL     1      64.682  38.662  69.106  0.00  0.00    +0.000 C 
ATOM     17  C   UNL     1      64.440  37.346  69.110  0.00  0.00    +0.000 C 
ATOM     18  C   UNL     1      58.171  37.813  68.705  0.00  0.00    +0.000 C 
ATOM     19  C   UNL     1      60.635  35.771  71.337  0.00  0.00    +0.000 C 
ATOM     20  C   UNL     1      59.708  37.903  73.018  0.00  0.00    +0.000 C 
ATOM     21  C   UNL     1      65.515  36.356  68.879  0.00  0.00    +0.000 C 
ATOM     22  C   UNL     1      66.034  39.173  68.759  0.00  0.00    +0.000 C 
ATOM     23  C   UNL     1      60.561  35.598  72.825  0.00  0.00    +0.000 C 
ATOM     24  C   UNL     1      60.104  36.594  73.600  0.00  0.00    +0.000 C 
ATOM     25  C   UNL     1      66.884  36.861  68.608  0.00  0.00    +0.000 C 
ATOM     26  C   UNL     1      67.141  38.179  68.571  0.00  0.00    +0.000 C 
ATOM     27  C   UNL     1      59.944  36.493  75.089  0.00  0.00    +0.000 C 
ATOM     28  C   UNL     1      67.920  35.797  68.392  0.00  0.00    +0.000 C 
ENDROOT
BRANCH  23  29
ATOM     29  O   UNL     1      60.902  34.388  73.419  0.00  0.00    +0.000 OA
ATOM     30  C   UNL     1      62.298  34.165  73.598  0.00  0.00    +0.000 C 
ENDBRANCH  23  29
BRANCH  26  31
ATOM     31  O   UNL     1      68.435  38.604  68.290  0.00  0.00    +0.000 OA
ATOM     32  C   UNL     1      68.690  38.893  66.916  0.00  0.00    +0.000 C 
ENDBRANCH  26  31
BRANCH  10  34
ATOM     33  N   UNL     1      61.230  41.082  66.718  0.00  0.00    +0.000 NA
ATOM     34  C   UNL     1      61.219  40.665  67.801  0.00  0.00    +0.000 C 
ENDBRANCH  10  34
BRANCH  11  35
ATOM     35  C   UNL     1      63.963  40.481  70.697  0.00  0.00    +0.000 C 
BRANCH  35  36
ATOM     36  O   UNL     1      63.302  39.849  71.814  0.00  0.00    +0.000 OA
BRANCH  36  38
ATOM     37  O   UNL     1      64.058  40.318  73.924  0.00  0.00    +0.000 OA
ATOM     38  C   UNL     1      64.084  39.654  72.901  0.00  0.00    +0.000 C 
BRANCH  38  39
ATOM     39  C   UNL     1      64.904  38.419  72.744  0.00  0.00    +0.000 C 
ATOM     40  C   UNL     1      64.117  37.154  72.945  0.00  0.00    +0.000 C 
ATOM     41  C   UNL     1      66.223  38.398  72.465  0.00  0.00    +0.000 C 
ATOM     42  C   UNL     1      67.162  39.555  72.337  0.00  0.00    +0.000 C 
ENDBRANCH  38  39
ENDBRANCH  36  38
ENDBRANCH  35  36
ENDBRANCH  11  35
TORSDOF 7
ENDMDL
MODEL 4
REMARK VINA RESULT:      -5.4      9.302     13.956
REMARK  Name = 
REMARK  14 active torsions:
REMARK  status: ('A' for Active; 'I' for Inactive)
REMARK    1  A    between atoms: O_1  and  C_24
REMARK    2  A    between atoms: O_1  and  C_36
REMARK    3  A    between atoms: O_4  and  C_30
REMARK    4  A    between atoms: O_4  and  C_37
REMARK    5  A    between atoms: O_7  and  C_33
REMARK    6  A    between atoms: O_7  and  C_38
REMARK    7  A    between atoms: N_10  and  C_23
REMARK    8  A    between atoms: C_15  and  C_26
REMARK    9  A    between atoms: C_16  and  C_24
REMARK   10  A    between atoms: C_31  and  C_34
REMARK   11  A    between atoms: C_32  and  C_35
REMARK   12  A    between atoms: C_36  and  C_39
REMARK   13  A    between atoms: C_39  and  C_40
REMARK   14  A    between atoms: C_41  and  C_42
REMARK                            x       y       z     vdW  Elec       q    Type
REMARK                         _______ _______ _______ _____ _____    ______ ____
ROOT
ATOM      1  O   UNL     1      69.900  60.783  68.197  0.00  0.00    +0.000 OA
ATOM      2  O   UNL     1      72.341  64.144  64.879  0.00  0.00    +0.000 OA
ATOM      3  O   UNL     1      69.969  56.267  67.037  0.00  0.00    +0.000 OA
ATOM      4  O   UNL     1      70.182  56.271  61.724  0.00  0.00    +0.000 OA
ATOM      5  N   UNL     1      69.549  60.021  63.646  0.00  0.00    +0.000 NA
ATOM      6  N   UNL     1      67.789  62.040  64.852  0.00  0.00    +0.000 NA
ATOM      7  C   UNL     1      68.841  59.796  64.933  0.00  0.00    +0.000 C 
ATOM      8  C   UNL     1      68.614  61.155  65.724  0.00  0.00    +0.000 C 
ATOM      9  C   UNL     1      68.573  62.377  63.636  0.00  0.00    +0.000 C 
ATOM     10  C   UNL     1      68.869  61.066  62.815  0.00  0.00    +0.000 C 
ATOM     11  C   UNL     1      69.924  58.801  62.879  0.00  0.00    +0.000 C 
ATOM     12  C   UNL     1      69.592  58.762  65.799  0.00  0.00    +0.000 C 
ATOM     13  C   UNL     1      69.891  63.126  63.977  0.00  0.00    +0.000 C 
ATOM     14  C   UNL     1      69.936  61.814  66.091  0.00  0.00    +0.000 C 
ATOM     15  C   UNL     1      70.527  62.700  65.276  0.00  0.00    +0.000 C 
ATOM     16  C   UNL     1      70.014  57.527  63.704  0.00  0.00    +0.000 C 
ATOM     17  C   UNL     1      69.889  57.507  65.037  0.00  0.00    +0.000 C 
ATOM     18  C   UNL     1      67.240  63.200  65.549  0.00  0.00    +0.000 C 
ATOM     19  C   UNL     1      70.523  61.491  67.412  0.00  0.00    +0.000 C 
ATOM     20  C   UNL     1      71.817  63.329  65.630  0.00  0.00    +0.000 C 
ATOM     21  C   UNL     1      70.034  56.256  65.813  0.00  0.00    +0.000 C 
ATOM     22  C   UNL     1      70.202  56.259  62.951  0.00  0.00    +0.000 C 
ATOM     23  C   UNL     1      71.875  62.052  67.738  0.00  0.00    +0.000 C 
ATOM     24  C   UNL     1      72.462  62.930  66.908  0.00  0.00    +0.000 C 
ATOM     25  C   UNL     1      70.297  54.999  65.070  0.00  0.00    +0.000 C 
ATOM     26  C   UNL     1      70.398  54.994  63.731  0.00  0.00    +0.000 C 
ATOM     27  C   UNL     1      73.786  63.583  67.178  0.00  0.00    +0.000 C 
ATOM     28  C   UNL     1      70.440  53.775  65.928  0.00  0.00    +0.000 C 
ENDROOT
BRANCH  23  29
ATOM     29  O   UNL     1      72.514  61.725  68.929  0.00  0.00    +0.000 OA
ATOM     30  C   UNL     1      72.211  62.566  70.039  0.00  0.00    +0.000 C 
ENDBRANCH  23  29
BRANCH  26  31
ATOM     31  O   UNL     1      70.622  53.786  63.077  0.00  0.00    +0.000 OA
ATOM     32  C   UNL     1      69.448  53.135  62.595  0.00  0.00    +0.000 C 
ENDBRANCH  26  31
BRANCH  10  34
ATOM     33  N   UNL     1      66.615  60.233  61.691  0.00  0.00    +0.000 NA
ATOM     34  C   UNL     1      67.602  60.614  62.169  0.00  0.00    +0.000 C 
ENDBRANCH  10  34
BRANCH  11  35
ATOM     35  C   UNL     1      71.291  59.085  62.188  0.00  0.00    +0.000 C 
BRANCH  35  36
ATOM     36  O   UNL     1      72.121  59.858  63.081  0.00  0.00    +0.000 OA
BRANCH  36  38
ATOM     37  O   UNL     1      73.655  58.158  63.148  0.00  0.00    +0.000 OA
ATOM     38  C   UNL     1      73.180  59.189  63.595  0.00  0.00    +0.000 C 
BRANCH  38  39
ATOM     39  C   UNL     1      73.789  59.955  64.720  0.00  0.00    +0.000 C 
ATOM     40  C   UNL     1      74.537  61.178  64.268  0.00  0.00    +0.000 C 
ATOM     41  C   UNL     1      73.712  59.609  66.020  0.00  0.00    +0.000 C 
ATOM     42  C   UNL     1      73.099  58.383  66.620  0.00  0.00    +0.000 C 
ENDBRANCH  38  39
ENDBRANCH  36  38
ENDBRANCH  35  36
ENDBRANCH  11  35
TORSDOF 7
ENDMDL
MODEL 5
REMARK VINA RESULT:      -5.4     17.902     21.304
REMARK  Name = 
REMARK  14 active torsions:
REMARK  status: ('A' for Active; 'I' for Inactive)
REMARK    1  A    between atoms: O_1  and  C_24
REMARK    2  A    between atoms: O_1  and  C_36
REMARK    3  A    between atoms: O_4  and  C_30
REMARK    4  A    between atoms: O_4  and  C_37
REMARK    5  A    between atoms: O_7  and  C_33
REMARK    6  A    between atoms: O_7  and  C_38
REMARK    7  A    between atoms: N_10  and  C_23
REMARK    8  A    between atoms: C_15  and  C_26
REMARK    9  A    between atoms: C_16  and  C_24
REMARK   10  A    between atoms: C_31  and  C_34
REMARK   11  A    between atoms: C_32  and  C_35
REMARK   12  A    between atoms: C_36  and  C_39
REMARK   13  A    between atoms: C_39  and  C_40
REMARK   14  A    between atoms: C_41  and  C_42
REMARK                            x       y       z     vdW  Elec       q    Type
REMARK                         _______ _______ _______ _____ _____    ______ ____
ROOT
ATOM      1  O   UNL     1      62.827  34.718  70.968  0.00  0.00    +0.000 OA
ATOM      2  O   UNL     1      62.644  39.732  72.725  0.00  0.00    +0.000 OA
ATOM      3  O   UNL     1      60.786  33.855  66.864  0.00  0.00    +0.000 OA
ATOM      4  O   UNL     1      56.875  37.444  66.555  0.00  0.00    +0.000 OA
ATOM      5  N   UNL     1      58.957  37.154  70.262  0.00  0.00    +0.000 NA
ATOM      6  N   UNL     1      59.367  35.941  72.905  0.00  0.00    +0.000 NA
ATOM      7  C   UNL     1      59.456  35.765  70.433  0.00  0.00    +0.000 C 
ATOM      8  C   UNL     1      60.283  35.600  71.779  0.00  0.00    +0.000 C 
ATOM      9  C   UNL     1      58.996  37.376  72.801  0.00  0.00    +0.000 C 
ATOM     10  C   UNL     1      58.199  37.624  71.466  0.00  0.00    +0.000 C 
ATOM     11  C   UNL     1      58.272  37.453  68.973  0.00  0.00    +0.000 C 
ATOM     12  C   UNL     1      60.285  35.324  69.208  0.00  0.00    +0.000 C 
ATOM     13  C   UNL     1      60.236  38.309  72.887  0.00  0.00    +0.000 C 
ATOM     14  C   UNL     1      61.522  36.486  71.784  0.00  0.00    +0.000 C 
ATOM     15  C   UNL     1      61.488  37.734  72.273  0.00  0.00    +0.000 C 
ATOM     16  C   UNL     1      58.614  36.510  67.831  0.00  0.00    +0.000 C 
ATOM     17  C   UNL     1      59.547  35.555  67.924  0.00  0.00    +0.000 C 
ATOM     18  C   UNL     1      59.879  35.550  74.215  0.00  0.00    +0.000 C 
ATOM     19  C   UNL     1      62.787  35.902  71.285  0.00  0.00    +0.000 C 
ATOM     20  C   UNL     1      62.689  38.596  72.266  0.00  0.00    +0.000 C 
ATOM     21  C   UNL     1      59.892  34.689  66.775  0.00  0.00    +0.000 C 
ATOM     22  C   UNL     1      57.816  36.658  66.586  0.00  0.00    +0.000 C 
ATOM     23  C   UNL     1      63.986  36.799  71.188  0.00  0.00    +0.000 C 
ATOM     24  C   UNL     1      63.936  38.050  71.671  0.00  0.00    +0.000 C 
ATOM     25  C   UNL     1      59.149  34.884  65.505  0.00  0.00    +0.000 C 
ATOM     26  C   UNL     1      58.189  35.817  65.401  0.00  0.00    +0.000 C 
ATOM     27  C   UNL     1      65.100  38.999  71.666  0.00  0.00    +0.000 C 
ATOM     28  C   UNL     1      59.561  33.973  64.385  0.00  0.00    +0.000 C 
ENDROOT
BRANCH  23  29
ATOM     29  O   UNL     1      65.183  36.332  70.656  0.00  0.00    +0.000 OA
ATOM     30  C   UNL     1      65.262  36.327  69.233  0.00  0.00    +0.000 C 
ENDBRANCH  23  29
BRANCH  26  31
ATOM     31  O   UNL     1      57.505  35.947  64.197  0.00  0.00    +0.000 OA
ATOM     32  C   UNL     1      57.914  37.046  63.385  0.00  0.00    +0.000 C 
ENDBRANCH  26  31
BRANCH  10  34
ATOM     33  N   UNL     1      55.765  36.593  71.692  0.00  0.00    +0.000 NA
ATOM     34  C   UNL     1      56.837  37.032  71.609  0.00  0.00    +0.000 C 
ENDBRANCH  10  34
BRANCH  11  35
ATOM     35  C   UNL     1      58.633  38.917  68.581  0.00  0.00    +0.000 C 
BRANCH  35  36
ATOM     36  O   UNL     1      59.943  39.236  69.095  0.00  0.00    +0.000 OA
BRANCH  36  38
ATOM     37  O   UNL     1      60.239  40.983  67.644  0.00  0.00    +0.000 OA
ATOM     38  C   UNL     1      60.676  40.060  68.311  0.00  0.00    +0.000 C 
BRANCH  38  39
ATOM     39  C   UNL     1      62.132  39.779  68.470  0.00  0.00    +0.000 C 
ATOM     40  C   UNL     1      62.838  40.782  69.339  0.00  0.00    +0.000 C 
ATOM     41  C   UNL     1      62.787  38.750  67.897  0.00  0.00    +0.000 C 
ATOM     42  C   UNL     1      62.258  37.735  66.934  0.00  0.00    +0.000 C 
ENDBRANCH  38  39
ENDBRANCH  36  38
ENDBRANCH  35  36
ENDBRANCH  11  35
TORSDOF 7
ENDMDL
MODEL 6
REMARK VINA RESULT:      -5.2     20.689     25.183
REMARK  Name = 
REMARK  14 active torsions:
REMARK  status: ('A' for Active; 'I' for Inactive)
REMARK    1  A    between atoms: O_1  and  C_24
REMARK    2  A    between atoms: O_1  and  C_36
REMARK    3  A    between atoms: O_4  and  C_30
REMARK    4  A    between atoms: O_4  and  C_37
REMARK    5  A    between atoms: O_7  and  C_33
REMARK    6  A    between atoms: O_7  and  C_38
REMARK    7  A    between atoms: N_10  and  C_23
REMARK    8  A    between atoms: C_15  and  C_26
REMARK    9  A    between atoms: C_16  and  C_24
REMARK   10  A    between atoms: C_31  and  C_34
REMARK   11  A    between atoms: C_32  and  C_35
REMARK   12  A    between atoms: C_36  and  C_39
REMARK   13  A    between atoms: C_39  and  C_40
REMARK   14  A    between atoms: C_41  and  C_42
REMARK                            x       y       z     vdW  Elec       q    Type
REMARK                         _______ _______ _______ _____ _____    ______ ____
ROOT
ATOM      1  O   UNL     1      49.027  34.584  60.309  0.00  0.00    +0.000 OA
ATOM      2  O   UNL     1      54.089  35.536  61.626  0.00  0.00    +0.000 OA
ATOM      3  O   UNL     1      48.099  30.433  58.398  0.00  0.00    +0.000 OA
ATOM      4  O   UNL     1      52.591  29.104  55.884  0.00  0.00    +0.000 OA
ATOM      5  N   UNL     1      52.358  33.043  57.491  0.00  0.00    +0.000 NA
ATOM      6  N   UNL     1      51.578  35.868  57.298  0.00  0.00    +0.000 NA
ATOM      7  C   UNL     1      50.938  33.481  57.503  0.00  0.00    +0.000 C 
ATOM      8  C   UNL     1      50.776  34.930  58.134  0.00  0.00    +0.000 C 
ATOM      9  C   UNL     1      53.013  35.506  57.418  0.00  0.00    +0.000 C 
ATOM     10  C   UNL     1      53.246  34.059  56.841  0.00  0.00    +0.000 C 
ATOM     11  C   UNL     1      52.613  31.649  57.032  0.00  0.00    +0.000 C 
ATOM     12  C   UNL     1      50.051  32.449  58.230  0.00  0.00    +0.000 C 
ATOM     13  C   UNL     1      53.523  35.606  58.882  0.00  0.00    +0.000 C 
ATOM     14  C   UNL     1      51.227  34.957  59.588  0.00  0.00    +0.000 C 
ATOM     15  C   UNL     1      52.493  35.247  59.923  0.00  0.00    +0.000 C 
ATOM     16  C   UNL     1      51.419  30.712  57.134  0.00  0.00    +0.000 C 
ATOM     17  C   UNL     1      50.258  31.063  57.700  0.00  0.00    +0.000 C 
ATOM     18  C   UNL     1      51.294  37.276  57.562  0.00  0.00    +0.000 C 
ATOM     19  C   UNL     1      50.204  34.714  60.630  0.00  0.00    +0.000 C 
ATOM     20  C   UNL     1      52.930  35.261  61.335  0.00  0.00    +0.000 C 
ATOM     21  C   UNL     1      49.135  30.109  57.828  0.00  0.00    +0.000 C 
ATOM     22  C   UNL     1      51.574  29.369  56.516  0.00  0.00    +0.000 C 
ATOM     23  C   UNL     1      50.658  34.634  62.058  0.00  0.00    +0.000 C 
ATOM     24  C   UNL     1      51.931  34.915  62.379  0.00  0.00    +0.000 C 
ATOM     25  C   UNL     1      49.314  28.742  57.281  0.00  0.00    +0.000 C 
ATOM     26  C   UNL     1      50.460  28.379  56.683  0.00  0.00    +0.000 C 
ATOM     27  C   UNL     1      52.462  34.914  63.783  0.00  0.00    +0.000 C 
ATOM     28  C   UNL     1      48.133  27.831  57.456  0.00  0.00    +0.000 C 
ENDROOT
BRANCH  23  29
ATOM     29  O   UNL     1      49.761  34.333  63.076  0.00  0.00    +0.000 OA
ATOM     30  C   UNL     1      49.476  32.947  63.252  0.00  0.00    +0.000 C 
ENDBRANCH  23  29
BRANCH  26  31
ATOM     31  O   UNL     1      50.572  27.093  56.164  0.00  0.00    +0.000 OA
ATOM     32  C   UNL     1      51.285  26.171  56.986  0.00  0.00    +0.000 C 
ENDBRANCH  26  31
BRANCH  10  34
ATOM     33  N   UNL     1      53.080  34.143  54.194  0.00  0.00    +0.000 NA
ATOM     34  C   UNL     1      53.134  34.118  55.354  0.00  0.00    +0.000 C 
ENDBRANCH  10  34
BRANCH  11  35
ATOM     35  C   UNL     1      53.800  31.090  57.873  0.00  0.00    +0.000 C 
BRANCH  35  36
ATOM     36  O   UNL     1      53.828  31.755  59.153  0.00  0.00    +0.000 OA
BRANCH  36  38
ATOM     37  O   UNL     1      55.011  30.111  60.222  0.00  0.00    +0.000 OA
ATOM     38  C   UNL     1      54.131  30.956  60.202  0.00  0.00    +0.000 C 
BRANCH  38  39
ATOM     39  C   UNL     1      53.330  31.336  61.401  0.00  0.00    +0.000 C 
ATOM     40  C   UNL     1      51.854  31.111  61.225  0.00  0.00    +0.000 C 
ATOM     41  C   UNL     1      53.839  31.847  62.540  0.00  0.00    +0.000 C 
ATOM     42  C   UNL     1      55.257  32.223  62.836  0.00  0.00    +0.000 C 
ENDBRANCH  38  39
ENDBRANCH  36  38
ENDBRANCH  35  36
ENDBRANCH  11  35
TORSDOF 7
ENDMDL
MODEL 7
REMARK VINA RESULT:      -5.2     21.255     24.662
REMARK  Name = 
REMARK  14 active torsions:
REMARK  status: ('A' for Active; 'I' for Inactive)
REMARK    1  A    between atoms: O_1  and  C_24
REMARK    2  A    between atoms: O_1  and  C_36
REMARK    3  A    between atoms: O_4  and  C_30
REMARK    4  A    between atoms: O_4  and  C_37
REMARK    5  A    between atoms: O_7  and  C_33
REMARK    6  A    between atoms: O_7  and  C_38
REMARK    7  A    between atoms: N_10  and  C_23
REMARK    8  A    between atoms: C_15  and  C_26
REMARK    9  A    between atoms: C_16  and  C_24
REMARK   10  A    between atoms: C_31  and  C_34
REMARK   11  A    between atoms: C_32  and  C_35
REMARK   12  A    between atoms: C_36  and  C_39
REMARK   13  A    between atoms: C_39  and  C_40
REMARK   14  A    between atoms: C_41  and  C_42
REMARK                            x       y       z     vdW  Elec       q    Type
REMARK                         _______ _______ _______ _____ _____    ______ ____
ROOT
ATOM      1  O   UNL     1      47.003  31.027  62.473  0.00  0.00    +0.000 OA
ATOM      2  O   UNL     1      48.613  33.541  66.873  0.00  0.00    +0.000 OA
ATOM      3  O   UNL     1      49.510  31.745  58.608  0.00  0.00    +0.000 OA
ATOM      4  O   UNL     1      51.496  36.640  59.213  0.00  0.00    +0.000 OA
ATOM      5  N   UNL     1      48.613  35.347  62.072  0.00  0.00    +0.000 NA
ATOM      6  N   UNL     1      45.836  34.980  62.953  0.00  0.00    +0.000 NA
ATOM      7  C   UNL     1      47.695  34.370  61.430  0.00  0.00    +0.000 C 
ATOM      8  C   UNL     1      46.620  33.813  62.458  0.00  0.00    +0.000 C 
ATOM      9  C   UNL     1      46.742  35.872  63.721  0.00  0.00    +0.000 C 
ATOM     10  C   UNL     1      47.862  36.438  62.770  0.00  0.00    +0.000 C 
ATOM     11  C   UNL     1      49.739  35.842  61.231  0.00  0.00    +0.000 C 
ATOM     12  C   UNL     1      48.487  33.222  60.769  0.00  0.00    +0.000 C 
ATOM     13  C   UNL     1      47.369  35.154  64.949  0.00  0.00    +0.000 C 
ATOM     14  C   UNL     1      47.282  33.062  63.604  0.00  0.00    +0.000 C 
ATOM     15  C   UNL     1      47.643  33.687  64.735  0.00  0.00    +0.000 C 
ATOM     16  C   UNL     1      50.112  34.942  60.063  0.00  0.00    +0.000 C 
ATOM     17  C   UNL     1      49.563  33.738  59.862  0.00  0.00    +0.000 C 
ATOM     18  C   UNL     1      44.619  34.607  63.668  0.00  0.00    +0.000 C 
ATOM     19  C   UNL     1      47.461  31.599  63.457  0.00  0.00    +0.000 C 
ATOM     20  C   UNL     1      48.296  32.957  65.842  0.00  0.00    +0.000 C 
ATOM     21  C   UNL     1      49.987  32.866  58.744  0.00  0.00    +0.000 C 
ATOM     22  C   UNL     1      51.100  35.485  59.095  0.00  0.00    +0.000 C 
ATOM     23  C   UNL     1      48.206  30.869  64.535  0.00  0.00    +0.000 C 
ATOM     24  C   UNL     1      48.572  31.509  65.657  0.00  0.00    +0.000 C 
ATOM     25  C   UNL     1      51.029  33.375  57.818  0.00  0.00    +0.000 C 
ATOM     26  C   UNL     1      51.571  34.592  57.986  0.00  0.00    +0.000 C 
ATOM     27  C   UNL     1      49.272  30.848  66.809  0.00  0.00    +0.000 C 
ATOM     28  C   UNL     1      51.410  32.430  56.715  0.00  0.00    +0.000 C 
ENDROOT
BRANCH  23  29
ATOM     29  O   UNL     1      48.474  29.510  64.420  0.00  0.00    +0.000 OA
ATOM     30  C   UNL     1      47.401  28.641  64.772  0.00  0.00    +0.000 C 
ENDBRANCH  23  29
BRANCH  26  31
ATOM     31  O   UNL     1      52.528  35.034  57.079  0.00  0.00    +0.000 OA
ATOM     32  C   UNL     1      53.849  35.148  57.603  0.00  0.00    +0.000 C 
ENDBRANCH  26  31
BRANCH  10  34
ATOM     33  N   UNL     1      46.789  38.217  61.121  0.00  0.00    +0.000 NA
ATOM     34  C   UNL     1      47.246  37.446  61.858  0.00  0.00    +0.000 C 
ENDBRANCH  10  34
BRANCH  11  35
ATOM     35  C   UNL     1      50.970  36.036  62.166  0.00  0.00    +0.000 C 
BRANCH  35  36
ATOM     36  O   UNL     1      51.674  34.782  62.289  0.00  0.00    +0.000 OA
BRANCH  36  38
ATOM     37  O   UNL     1      53.674  35.887  62.125  0.00  0.00    +0.000 OA
ATOM     38  C   UNL     1      53.013  34.862  62.104  0.00  0.00    +0.000 C 
BRANCH  38  39
ATOM     39  C   UNL     1      53.611  33.500  62.005  0.00  0.00    +0.000 C 
ATOM     40  C   UNL     1      53.084  32.703  60.844  0.00  0.00    +0.000 C 
ATOM     41  C   UNL     1      54.523  32.993  62.858  0.00  0.00    +0.000 C 
ATOM     42  C   UNL     1      55.069  33.610  64.107  0.00  0.00    +0.000 C 
ENDBRANCH  38  39
ENDBRANCH  36  38
ENDBRANCH  35  36
ENDBRANCH  11  35
TORSDOF 7
ENDMDL
MODEL 8
REMARK VINA RESULT:      -5.2     18.434     21.596
REMARK  Name = 
REMARK  14 active torsions:
REMARK  status: ('A' for Active; 'I' for Inactive)
REMARK    1  A    between atoms: O_1  and  C_24
REMARK    2  A    between atoms: O_1  and  C_36
REMARK    3  A    between atoms: O_4  and  C_30
REMARK    4  A    between atoms: O_4  and  C_37
REMARK    5  A    between atoms: O_7  and  C_33
REMARK    6  A    between atoms: O_7  and  C_38
REMARK    7  A    between atoms: N_10  and  C_23
REMARK    8  A    between atoms: C_15  and  C_26
REMARK    9  A    between atoms: C_16  and  C_24
REMARK   10  A    between atoms: C_31  and  C_34
REMARK   11  A    between atoms: C_32  and  C_35
REMARK   12  A    between atoms: C_36  and  C_39
REMARK   13  A    between atoms: C_39  and  C_40
REMARK   14  A    between atoms: C_41  and  C_42
REMARK                            x       y       z     vdW  Elec       q    Type
REMARK                         _______ _______ _______ _____ _____    ______ ____
ROOT
ATOM      1  O   UNL     1      62.509  33.944  70.140  0.00  0.00    +0.000 OA
ATOM      2  O   UNL     1      62.011  35.224  65.003  0.00  0.00    +0.000 OA
ATOM      3  O   UNL     1      59.233  35.565  73.035  0.00  0.00    +0.000 OA
ATOM      4  O   UNL     1      57.611  40.102  70.786  0.00  0.00    +0.000 OA
ATOM      5  N   UNL     1      61.008  38.188  69.067  0.00  0.00    +0.000 NA
ATOM      6  N   UNL     1      63.897  37.671  68.953  0.00  0.00    +0.000 NA
ATOM      7  C   UNL     1      61.725  37.427  70.124  0.00  0.00    +0.000 C 
ATOM      8  C   UNL     1      62.980  36.650  69.538  0.00  0.00    +0.000 C 
ATOM      9  C   UNL     1      63.217  38.318  67.802  0.00  0.00    +0.000 C 
ATOM     10  C   UNL     1      61.935  39.083  68.303  0.00  0.00    +0.000 C 
ATOM     11  C   UNL     1      59.742  38.856  69.481  0.00  0.00    +0.000 C 
ATOM     12  C   UNL     1      60.764  36.467  70.857  0.00  0.00    +0.000 C 
ATOM     13  C   UNL     1      62.853  37.299  66.687  0.00  0.00    +0.000 C 
ATOM     14  C   UNL     1      62.563  35.619  68.499  0.00  0.00    +0.000 C 
ATOM     15  C   UNL     1      62.485  35.928  67.196  0.00  0.00    +0.000 C 
ATOM     16  C   UNL     1      59.087  38.274  70.724  0.00  0.00    +0.000 C 
ATOM     17  C   UNL     1      59.533  37.173  71.340  0.00  0.00    +0.000 C 
ATOM     18  C   UNL     1      65.228  37.155  68.646  0.00  0.00    +0.000 C 
ATOM     19  C   UNL     1      62.303  34.238  68.967  0.00  0.00    +0.000 C 
ATOM     20  C   UNL     1      62.068  34.928  66.192  0.00  0.00    +0.000 C 
ATOM     21  C   UNL     1      58.840  36.604  72.517  0.00  0.00    +0.000 C 
ATOM     22  C   UNL     1      57.929  39.023  71.277  0.00  0.00    +0.000 C 
ATOM     23  C   UNL     1      61.789  33.243  67.969  0.00  0.00    +0.000 C 
ATOM     24  C   UNL     1      61.705  33.568  66.669  0.00  0.00    +0.000 C 
ATOM     25  C   UNL     1      57.637  37.308  73.027  0.00  0.00    +0.000 C 
ATOM     26  C   UNL     1      57.191  38.431  72.440  0.00  0.00    +0.000 C 
ATOM     27  C   UNL     1      61.256  32.622  65.594  0.00  0.00    +0.000 C 
ATOM     28  C   UNL     1      56.986  36.666  74.218  0.00  0.00    +0.000 C 
ENDROOT
BRANCH  23  29
ATOM     29  O   UNL     1      61.453  31.951  68.360  0.00  0.00    +0.000 OA
ATOM     30  C   UNL     1      60.150  31.798  68.917  0.00  0.00    +0.000 C 
ENDBRANCH  23  29
BRANCH  26  31
ATOM     31  O   UNL     1      56.073  39.068  72.969  0.00  0.00    +0.000 OA
ATOM     32  C   UNL     1      54.841  38.763  72.317  0.00  0.00    +0.000 C 
ENDBRANCH  26  31
BRANCH  10  34
ATOM     33  N   UNL     1      62.679  41.245  69.648  0.00  0.00    +0.000 NA
ATOM     34  C   UNL     1      62.369  40.303  69.045  0.00  0.00    +0.000 C 
ENDBRANCH  10  34
BRANCH  11  35
ATOM     35  C   UNL     1      58.758  38.779  68.276  0.00  0.00    +0.000 C 
BRANCH  35  36
ATOM     36  O   UNL     1      58.538  37.395  67.931  0.00  0.00    +0.000 OA
BRANCH  36  38
ATOM     37  O   UNL     1      56.911  37.040  66.359  0.00  0.00    +0.000 OA
ATOM     38  C   UNL     1      57.282  37.105  67.520  0.00  0.00    +0.000 C 
BRANCH  38  39
ATOM     39  C   UNL     1      56.422  36.734  68.680  0.00  0.00    +0.000 C 
ATOM     40  C   UNL     1      55.302  37.707  68.924  0.00  0.00    +0.000 C 
ATOM     41  C   UNL     1      56.607  35.654  69.464  0.00  0.00    +0.000 C 
ATOM     42  C   UNL     1      57.719  34.654  69.419  0.00  0.00    +0.000 C 
ENDBRANCH  38  39
ENDBRANCH  36  38
ENDBRANCH  35  36
ENDBRANCH  11  35
TORSDOF 7
ENDMDL
MODEL 9
REMARK VINA RESULT:      -5.1     17.905     21.434
REMARK  Name = 
REMARK  14 active torsions:
REMARK  status: ('A' for Active; 'I' for Inactive)
REMARK    1  A    between atoms: O_1  and  C_24
REMARK    2  A    between atoms: O_1  and  C_36
REMARK    3  A    between atoms: O_4  and  C_30
REMARK    4  A    between atoms: O_4  and  C_37
REMARK    5  A    between atoms: O_7  and  C_33
REMARK    6  A    between atoms: O_7  and  C_38
REMARK    7  A    between atoms: N_10  and  C_23
REMARK    8  A    between atoms: C_15  and  C_26
REMARK    9  A    between atoms: C_16  and  C_24
REMARK   10  A    between atoms: C_31  and  C_34
REMARK   11  A    between atoms: C_32  and  C_35
REMARK   12  A    between atoms: C_36  and  C_39
REMARK   13  A    between atoms: C_39  and  C_40
REMARK   14  A    between atoms: C_41  and  C_42
REMARK                            x       y       z     vdW  Elec       q    Type
REMARK                         _______ _______ _______ _____ _____    ______ ____
ROOT
ATOM      1  O   UNL     1      66.269  40.831  68.826  0.00  0.00    +0.000 OA
ATOM      2  O   UNL     1      64.744  35.883  67.618  0.00  0.00    +0.000 OA
ATOM      3  O   UNL     1      67.422  41.646  73.270  0.00  0.00    +0.000 OA
ATOM      4  O   UNL     1      64.475  38.204  76.052  0.00  0.00    +0.000 OA
ATOM      5  N   UNL     1      63.667  38.525  71.880  0.00  0.00    +0.000 NA
ATOM      6  N   UNL     1      62.324  39.802  69.601  0.00  0.00    +0.000 NA
ATOM      7  C   UNL     1      64.004  39.899  71.423  0.00  0.00    +0.000 C 
ATOM      8  C   UNL     1      63.767  40.072  69.862  0.00  0.00    +0.000 C 
ATOM      9  C   UNL     1      62.039  38.380  69.923  0.00  0.00    +0.000 C 
ATOM     10  C   UNL     1      62.288  38.123  71.457  0.00  0.00    +0.000 C 
ATOM     11  C   UNL     1      63.967  38.214  73.306  0.00  0.00    +0.000 C 
ATOM     12  C   UNL     1      65.449  40.270  71.816  0.00  0.00    +0.000 C 
ATOM     13  C   UNL     1      62.879  37.403  69.055  0.00  0.00    +0.000 C 
ATOM     14  C   UNL     1      64.661  39.140  69.056  0.00  0.00    +0.000 C 
ATOM     15  C   UNL     1      64.257  37.909  68.708  0.00  0.00    +0.000 C 
ATOM     16  C   UNL     1      65.015  39.108  73.950  0.00  0.00    +0.000 C 
ATOM     17  C   UNL     1      65.710  40.029  73.272  0.00  0.00    +0.000 C 
ATOM     18  C   UNL     1      61.883  40.212  68.272  0.00  0.00    +0.000 C 
ATOM     19  C   UNL     1      65.975  39.659  68.613  0.00  0.00    +0.000 C 
ATOM     20  C   UNL     1      65.131  37.002  67.936  0.00  0.00    +0.000 C 
ATOM     21  C   UNL     1      66.760  40.846  73.920  0.00  0.00    +0.000 C 
ATOM     22  C   UNL     1      65.209  38.954  75.416  0.00  0.00    +0.000 C 
ATOM     23  C   UNL     1      66.904  38.714  67.910  0.00  0.00    +0.000 C 
ATOM     24  C   UNL     1      66.491  37.480  67.578  0.00  0.00    +0.000 C 
ATOM     25  C   UNL     1      67.009  40.641  75.369  0.00  0.00    +0.000 C 
ATOM     26  C   UNL     1      66.302  39.743  76.073  0.00  0.00    +0.000 C 
ATOM     27  C   UNL     1      67.332  36.488  66.828  0.00  0.00    +0.000 C 
ATOM     28  C   UNL     1      68.093  41.501  75.952  0.00  0.00    +0.000 C 
ENDROOT
BRANCH  23  29
ATOM     29  O   UNL     1      68.181  39.117  67.537  0.00  0.00    +0.000 OA
ATOM     30  C   UNL     1      69.219  38.809  68.464  0.00  0.00    +0.000 C 
ENDBRANCH  23  29
BRANCH  26  31
ATOM     31  O   UNL     1      66.556  39.604  77.434  0.00  0.00    +0.000 OA
ATOM     32  C   UNL     1      65.695  40.354  78.288  0.00  0.00    +0.000 C 
ENDBRANCH  26  31
BRANCH  10  34
ATOM     33  N   UNL     1      60.318  39.286  72.800  0.00  0.00    +0.000 NA
ATOM     34  C   UNL     1      61.189  38.771  72.231  0.00  0.00    +0.000 C 
ENDBRANCH  10  34
BRANCH  11  35
ATOM     35  C   UNL     1      64.424  36.726  73.373  0.00  0.00    +0.000 C 
BRANCH  35  36
ATOM     36  O   UNL     1      65.588  36.550  72.538  0.00  0.00    +0.000 OA
BRANCH  36  38
ATOM     37  O   UNL     1      66.647  34.533  72.776  0.00  0.00    +0.000 OA
ATOM     38  C   UNL     1      66.529  35.718  73.042  0.00  0.00    +0.000 C 
BRANCH  38  39
ATOM     39  C   UNL     1      67.506  36.475  73.876  0.00  0.00    +0.000 C 
ATOM     40  C   UNL     1      67.450  36.111  75.333  0.00  0.00    +0.000 C 
ATOM     41  C   UNL     1      68.359  37.408  73.409  0.00  0.00    +0.000 C 
ATOM     42  C   UNL     1      68.470  37.953  72.020  0.00  0.00    +0.000 C 
ENDBRANCH  38  39
ENDBRANCH  36  38
ENDBRANCH  35  36
ENDBRANCH  11  35
TORSDOF 7
ENDMDL
