MODEL 1
REMARK VINA RESULT:      -5.5      0.000      0.000
REMARK  Name = Resveratrol.pdbqt.pdb
REMARK  5 active torsions:
REMARK  status: ('A' for Active; 'I' for Inactive)
REMARK    1  A    between atoms: C_1  and  C_11
REMARK    2  A    between atoms: C_4  and  O_7
REMARK    3  A    between atoms: C_5  and  O_9
REMARK    4  A    between atoms: C_12  and  C_13
REMARK    5  A    between atoms: C_18  and  O_19
REMARK                            x       y       z     vdW  Elec       q    Type
REMARK                         _______ _______ _______ _____ _____    ______ ____
ROOT
ATOM      1  C   UNL     1      47.639  36.345  62.230  0.00  0.00    +0.000 A 
ATOM      2  C   UNL     1      46.578  35.455  62.072  0.00  0.00    +0.000 A 
ATOM      3  C   UNL     1      47.565  37.365  63.177  0.00  0.00    +0.000 A 
ATOM      4  C   UNL     1      46.422  37.486  63.965  0.00  0.00    +0.000 A 
ATOM      5  C   UNL     1      45.445  35.593  62.868  0.00  0.00    +0.000 A 
ATOM      6  C   UNL     1      45.356  36.605  63.819  0.00  0.00    +0.000 A 
ENDROOT
BRANCH   4   7
ATOM      7  O   UNL     1      46.322  38.475  64.900  0.00  0.00    +0.000 OA
ATOM      8  H   UNL     1      45.890  39.243  64.486  0.00  0.00    +0.000 HD
ENDBRANCH   4   7
BRANCH   5   9
ATOM      9  O   UNL     1      44.419  34.710  62.697  0.00  0.00    +0.000 OA
ATOM     10  H   UNL     1      43.989  34.910  61.846  0.00  0.00    +0.000 HD
ENDBRANCH   5   9
BRANCH   1  11
ATOM     11  C   UNL     1      48.805  36.214  61.419  0.00  0.00    +0.000 C 
ATOM     12  C   UNL     1      49.787  36.105  60.736  0.00  0.00    +0.000 C 
BRANCH  12  13
ATOM     13  C   UNL     1      50.954  35.975  59.926  0.00  0.00    +0.000 A 
ATOM     14  C   UNL     1      51.990  35.133  60.330  0.00  0.00    +0.000 A 
ATOM     15  C   UNL     1      51.055  36.689  58.732  0.00  0.00    +0.000 A 
ATOM     16  C   UNL     1      53.129  35.004  59.541  0.00  0.00    +0.000 A 
ATOM     17  C   UNL     1      52.193  36.563  57.940  0.00  0.00    +0.000 A 
ATOM     18  C   UNL     1      53.222  35.721  58.351  0.00  0.00    +0.000 A 
BRANCH  18  19
ATOM     19  O   UNL     1      54.327  35.614  57.559  0.00  0.00    +0.000 OA
ATOM     20  H   UNL     1      54.569  34.673  57.498  0.00  0.00    +0.000 HD
ENDBRANCH  18  19
ENDBRANCH  12  13
ENDBRANCH   1  11
TORSDOF 5
ENDMDL
MODEL 2
REMARK VINA RESULT:      -5.3     17.172     18.872
REMARK  Name = Resveratrol.pdbqt.pdb
REMARK  5 active torsions:
REMARK  status: ('A' for Active; 'I' for Inactive)
REMARK    1  A    between atoms: C_1  and  C_11
REMARK    2  A    between atoms: C_4  and  O_7
REMARK    3  A    between atoms: C_5  and  O_9
REMARK    4  A    between atoms: C_12  and  C_13
REMARK    5  A    between atoms: C_18  and  O_19
REMARK                            x       y       z     vdW  Elec       q    Type
REMARK                         _______ _______ _______ _____ _____    ______ ____
ROOT
ATOM      1  C   UNL     1      57.454  51.873  58.904  0.00  0.00    +0.000 A 
ATOM      2  C   UNL     1      56.891  53.092  59.281  0.00  0.00    +0.000 A 
ATOM      3  C   UNL     1      56.642  50.838  58.441  0.00  0.00    +0.000 A 
ATOM      4  C   UNL     1      55.266  51.033  58.358  0.00  0.00    +0.000 A 
ATOM      5  C   UNL     1      55.514  53.265  59.191  0.00  0.00    +0.000 A 
ATOM      6  C   UNL     1      54.691  52.243  58.730  0.00  0.00    +0.000 A 
ENDROOT
BRANCH   4   7
ATOM      7  O   UNL     1      54.447  50.038  57.907  0.00  0.00    +0.000 OA
ATOM      8  H   UNL     1      54.779  49.740  57.042  0.00  0.00    +0.000 HD
ENDBRANCH   4   7
BRANCH   5   9
ATOM      9  O   UNL     1      54.985  54.467  59.566  0.00  0.00    +0.000 OA
ATOM     10  H   UNL     1      54.126  54.297  59.992  0.00  0.00    +0.000 HD
ENDBRANCH   5   9
BRANCH   1  11
ATOM     11  C   UNL     1      58.865  51.682  58.993  0.00  0.00    +0.000 C 
ATOM     12  C   UNL     1      60.053  51.521  59.067  0.00  0.00    +0.000 C 
BRANCH  12  13
ATOM     13  C   UNL     1      61.463  51.329  59.155  0.00  0.00    +0.000 A 
ATOM     14  C   UNL     1      61.987  50.038  59.204  0.00  0.00    +0.000 A 
ATOM     15  C   UNL     1      62.314  52.433  59.192  0.00  0.00    +0.000 A 
ATOM     16  C   UNL     1      63.364  49.848  59.290  0.00  0.00    +0.000 A 
ATOM     17  C   UNL     1      63.691  52.248  59.278  0.00  0.00    +0.000 A 
ATOM     18  C   UNL     1      64.205  50.956  59.327  0.00  0.00    +0.000 A 
BRANCH  18  19
ATOM     19  O   UNL     1      65.558  50.800  59.410  0.00  0.00    +0.000 OA
ATOM     20  H   UNL     1      65.821  50.086  58.803  0.00  0.00    +0.000 HD
ENDBRANCH  18  19
ENDBRANCH  12  13
ENDBRANCH   1  11
TORSDOF 5
ENDMDL
MODEL 3
REMARK VINA RESULT:      -5.1      1.798      2.158
REMARK  Name = Resveratrol.pdbqt.pdb
REMARK  5 active torsions:
REMARK  status: ('A' for Active; 'I' for Inactive)
REMARK    1  A    between atoms: C_1  and  C_11
REMARK    2  A    between atoms: C_4  and  O_7
REMARK    3  A    between atoms: C_5  and  O_9
REMARK    4  A    between atoms: C_12  and  C_13
REMARK    5  A    between atoms: C_18  and  O_19
REMARK                            x       y       z     vdW  Elec       q    Type
REMARK                         _______ _______ _______ _____ _____    ______ ____
ROOT
ATOM      1  C   UNL     1      48.966  36.215  61.944  0.00  0.00    +0.000 A 
ATOM      2  C   UNL     1      47.683  36.654  61.621  0.00  0.00    +0.000 A 
ATOM      3  C   UNL     1      49.380  36.175  63.275  0.00  0.00    +0.000 A 
ATOM      4  C   UNL     1      48.501  36.577  64.278  0.00  0.00    +0.000 A 
ATOM      5  C   UNL     1      46.820  37.051  62.638  0.00  0.00    +0.000 A 
ATOM      6  C   UNL     1      47.218  37.016  63.970  0.00  0.00    +0.000 A 
ENDROOT
BRANCH   4   7
ATOM      7  O   UNL     1      48.879  36.548  65.589  0.00  0.00    +0.000 OA
ATOM      8  H   UNL     1      48.153  36.917  66.122  0.00  0.00    +0.000 HD
ENDBRANCH   4   7
BRANCH   5   9
ATOM      9  O   UNL     1      45.568  37.477  62.298  0.00  0.00    +0.000 OA
ATOM     10  H   UNL     1      45.591  38.448  62.225  0.00  0.00    +0.000 HD
ENDBRANCH   5   9
BRANCH   1  11
ATOM     11  C   UNL     1      49.861  35.806  60.911  0.00  0.00    +0.000 C 
ATOM     12  C   UNL     1      50.614  35.462  60.040  0.00  0.00    +0.000 C 
BRANCH  12  13
ATOM     13  C   UNL     1      51.509  35.054  59.008  0.00  0.00    +0.000 A 
ATOM     14  C   UNL     1      51.183  33.969  58.195  0.00  0.00    +0.000 A 
ATOM     15  C   UNL     1      52.707  35.741  58.814  0.00  0.00    +0.000 A 
ATOM     16  C   UNL     1      52.054  33.569  57.186  0.00  0.00    +0.000 A 
ATOM     17  C   UNL     1      53.581  35.343  57.806  0.00  0.00    +0.000 A 
ATOM     18  C   UNL     1      53.248  34.260  57.000  0.00  0.00    +0.000 A 
BRANCH  18  19
ATOM     19  O   UNL     1      54.121  33.889  56.019  0.00  0.00    +0.000 OA
ATOM     20  H   UNL     1      53.941  32.962  55.784  0.00  0.00    +0.000 HD
ENDBRANCH  18  19
ENDBRANCH  12  13
ENDBRANCH   1  11
TORSDOF 5
ENDMDL
MODEL 4
REMARK VINA RESULT:      -5.0     19.605     23.102
REMARK  Name = Resveratrol.pdbqt.pdb
REMARK  5 active torsions:
REMARK  status: ('A' for Active; 'I' for Inactive)
REMARK    1  A    between atoms: C_1  and  C_11
REMARK    2  A    between atoms: C_4  and  O_7
REMARK    3  A    between atoms: C_5  and  O_9
REMARK    4  A    between atoms: C_12  and  C_13
REMARK    5  A    between atoms: C_18  and  O_19
REMARK                            x       y       z     vdW  Elec       q    Type
REMARK                         _______ _______ _______ _____ _____    ______ ____
ROOT
ATOM      1  C   UNL     1      67.245  50.191  59.139  0.00  0.00    +0.000 A 
ATOM      2  C   UNL     1      67.721  49.469  58.046  0.00  0.00    +0.000 A 
ATOM      3  C   UNL     1      68.104  50.532  60.183  0.00  0.00    +0.000 A 
ATOM      4  C   UNL     1      69.441  50.147  60.123  0.00  0.00    +0.000 A 
ATOM      5  C   UNL     1      69.060  49.094  58.005  0.00  0.00    +0.000 A 
ATOM      6  C   UNL     1      69.930  49.428  59.038  0.00  0.00    +0.000 A 
ENDROOT
BRANCH   4   7
ATOM      7  O   UNL     1      70.305  50.468  61.130  0.00  0.00    +0.000 OA
ATOM      8  H   UNL     1      70.083  49.923  61.905  0.00  0.00    +0.000 HD
ENDBRANCH   4   7
BRANCH   5   9
ATOM      9  O   UNL     1      69.505  48.389  56.924  0.00  0.00    +0.000 OA
ATOM     10  H   UNL     1      70.321  47.924  57.183  0.00  0.00    +0.000 HD
ENDBRANCH   5   9
BRANCH   1  11
ATOM     11  C   UNL     1      65.874  50.580  59.193  0.00  0.00    +0.000 C 
ATOM     12  C   UNL     1      64.719  50.908  59.238  0.00  0.00    +0.000 C 
BRANCH  12  13
ATOM     13  C   UNL     1      63.348  51.297  59.292  0.00  0.00    +0.000 A 
ATOM     14  C   UNL     1      62.347  50.330  59.194  0.00  0.00    +0.000 A 
ATOM     15  C   UNL     1      63.011  52.642  59.442  0.00  0.00    +0.000 A 
ATOM     16  C   UNL     1      61.008  50.707  59.247  0.00  0.00    +0.000 A 
ATOM     17  C   UNL     1      61.673  53.022  59.494  0.00  0.00    +0.000 A 
ATOM     18  C   UNL     1      60.682  52.051  59.396  0.00  0.00    +0.000 A 
BRANCH  18  19
ATOM     19  O   UNL     1      59.378  52.449  59.451  0.00  0.00    +0.000 OA
ATOM     20  H   UNL     1      58.981  52.085  60.261  0.00  0.00    +0.000 HD
ENDBRANCH  18  19
ENDBRANCH  12  13
ENDBRANCH   1  11
TORSDOF 5
ENDMDL
MODEL 5
REMARK VINA RESULT:      -4.9      9.758     12.611
REMARK  Name = Resveratrol.pdbqt.pdb
REMARK  5 active torsions:
REMARK  status: ('A' for Active; 'I' for Inactive)
REMARK    1  A    between atoms: C_1  and  C_11
REMARK    2  A    between atoms: C_4  and  O_7
REMARK    3  A    between atoms: C_5  and  O_9
REMARK    4  A    between atoms: C_12  and  C_13
REMARK    5  A    between atoms: C_18  and  O_19
REMARK                            x       y       z     vdW  Elec       q    Type
REMARK                         _______ _______ _______ _____ _____    ______ ____
ROOT
ATOM      1  C   UNL     1      60.589  37.842  66.503  0.00  0.00    +0.000 A 
ATOM      2  C   UNL     1      61.875  37.346  66.290  0.00  0.00    +0.000 A 
ATOM      3  C   UNL     1      60.380  38.890  67.399  0.00  0.00    +0.000 A 
ATOM      4  C   UNL     1      61.466  39.437  68.078  0.00  0.00    +0.000 A 
ATOM      5  C   UNL     1      62.946  37.906  66.979  0.00  0.00    +0.000 A 
ATOM      6  C   UNL     1      62.754  38.953  67.875  0.00  0.00    +0.000 A 
ENDROOT
BRANCH   4   7
ATOM      7  O   UNL     1      61.291  40.463  68.960  0.00  0.00    +0.000 OA
ATOM      8  H   UNL     1      61.179  41.286  68.451  0.00  0.00    +0.000 HD
ENDBRANCH   4   7
BRANCH   5   9
ATOM      9  O   UNL     1      64.196  37.405  66.754  0.00  0.00    +0.000 OA
ATOM     10  H   UNL     1      64.632  37.288  67.617  0.00  0.00    +0.000 HD
ENDBRANCH   5   9
BRANCH   1  11
ATOM     11  C   UNL     1      59.482  37.276  65.803  0.00  0.00    +0.000 C 
ATOM     12  C   UNL     1      58.550  36.800  65.214  0.00  0.00    +0.000 C 
BRANCH  12  13
ATOM     13  C   UNL     1      57.444  36.233  64.514  0.00  0.00    +0.000 A 
ATOM     14  C   UNL     1      57.354  34.850  64.359  0.00  0.00    +0.000 A 
ATOM     15  C   UNL     1      56.456  37.064  63.986  0.00  0.00    +0.000 A 
ATOM     16  C   UNL     1      56.276  34.295  63.677  0.00  0.00    +0.000 A 
ATOM     17  C   UNL     1      55.376  36.513  63.302  0.00  0.00    +0.000 A 
ATOM     18  C   UNL     1      55.295  35.132  63.153  0.00  0.00    +0.000 A 
BRANCH  18  19
ATOM     19  O   UNL     1      54.227  34.615  62.479  0.00  0.00    +0.000 OA
ATOM     20  H   UNL     1      54.055  35.175  61.702  0.00  0.00    +0.000 HD
ENDBRANCH  18  19
ENDBRANCH  12  13
ENDBRANCH   1  11
TORSDOF 5
ENDMDL
MODEL 6
REMARK VINA RESULT:      -4.9      9.738     12.709
REMARK  Name = Resveratrol.pdbqt.pdb
REMARK  5 active torsions:
REMARK  status: ('A' for Active; 'I' for Inactive)
REMARK    1  A    between atoms: C_1  and  C_11
REMARK    2  A    between atoms: C_4  and  O_7
REMARK    3  A    between atoms: C_5  and  O_9
REMARK    4  A    between atoms: C_12  and  C_13
REMARK    5  A    between atoms: C_18  and  O_19
REMARK                            x       y       z     vdW  Elec       q    Type
REMARK                         _______ _______ _______ _____ _____    ______ ____
ROOT
ATOM      1  C   UNL     1      60.559  37.801  66.508  0.00  0.00    +0.000 A 
ATOM      2  C   UNL     1      60.354  38.854  67.399  0.00  0.00    +0.000 A 
ATOM      3  C   UNL     1      61.844  37.303  66.293  0.00  0.00    +0.000 A 
ATOM      4  C   UNL     1      62.919  37.865  66.977  0.00  0.00    +0.000 A 
ATOM      5  C   UNL     1      61.442  39.402  68.072  0.00  0.00    +0.000 A 
ATOM      6  C   UNL     1      62.730  38.915  67.869  0.00  0.00    +0.000 A 
ENDROOT
BRANCH   4   7
ATOM      7  O   UNL     1      64.187  37.397  66.787  0.00  0.00    +0.000 OA
ATOM      8  H   UNL     1      64.644  37.403  67.646  0.00  0.00    +0.000 HD
ENDBRANCH   4   7
BRANCH   5   9
ATOM      9  O   UNL     1      61.218  40.431  68.940  0.00  0.00    +0.000 OA
ATOM     10  H   UNL     1      61.934  40.429  69.600  0.00  0.00    +0.000 HD
ENDBRANCH   5   9
BRANCH   1  11
ATOM     11  C   UNL     1      59.452  37.232  65.812  0.00  0.00    +0.000 C 
ATOM     12  C   UNL     1      58.520  36.752  65.226  0.00  0.00    +0.000 C 
BRANCH  12  13
ATOM     13  C   UNL     1      57.413  36.182  64.531  0.00  0.00    +0.000 A 
ATOM     14  C   UNL     1      56.414  37.010  64.017  0.00  0.00    +0.000 A 
ATOM     15  C   UNL     1      57.330  34.800  64.367  0.00  0.00    +0.000 A 
ATOM     16  C   UNL     1      55.333  36.457  63.338  0.00  0.00    +0.000 A 
ATOM     17  C   UNL     1      56.250  34.242  63.688  0.00  0.00    +0.000 A 
ATOM     18  C   UNL     1      55.259  35.076  63.179  0.00  0.00    +0.000 A 
BRANCH  18  19
ATOM     19  O   UNL     1      54.210  34.506  62.518  0.00  0.00    +0.000 OA
ATOM     20  H   UNL     1      53.627  35.218  62.201  0.00  0.00    +0.000 HD
ENDBRANCH  18  19
ENDBRANCH  12  13
ENDBRANCH   1  11
TORSDOF 5
ENDMDL
MODEL 7
REMARK VINA RESULT:      -4.9     34.048     34.993
REMARK  Name = Resveratrol.pdbqt.pdb
REMARK  5 active torsions:
REMARK  status: ('A' for Active; 'I' for Inactive)
REMARK    1  A    between atoms: C_1  and  C_11
REMARK    2  A    between atoms: C_4  and  O_7
REMARK    3  A    between atoms: C_5  and  O_9
REMARK    4  A    between atoms: C_12  and  C_13
REMARK    5  A    between atoms: C_18  and  O_19
REMARK                            x       y       z     vdW  Elec       q    Type
REMARK                         _______ _______ _______ _____ _____    ______ ____
ROOT
ATOM      1  C   UNL     1      60.797  67.250  69.031  0.00  0.00    +0.000 A 
ATOM      2  C   UNL     1      60.390  67.813  70.240  0.00  0.00    +0.000 A 
ATOM      3  C   UNL     1      59.942  66.402  68.328  0.00  0.00    +0.000 A 
ATOM      4  C   UNL     1      58.678  66.124  68.844  0.00  0.00    +0.000 A 
ATOM      5  C   UNL     1      59.124  67.521  70.738  0.00  0.00    +0.000 A 
ATOM      6  C   UNL     1      58.259  66.678  70.048  0.00  0.00    +0.000 A 
ENDROOT
BRANCH   4   7
ATOM      7  O   UNL     1      57.820  65.298  68.177  0.00  0.00    +0.000 OA
ATOM      8  H   UNL     1      57.066  65.107  68.763  0.00  0.00    +0.000 HD
ENDBRANCH   4   7
BRANCH   5   9
ATOM      9  O   UNL     1      58.746  68.084  71.923  0.00  0.00    +0.000 OA
ATOM     10  H   UNL     1      59.496  68.605  72.260  0.00  0.00    +0.000 HD
ENDBRANCH   5   9
BRANCH   1  11
ATOM     11  C   UNL     1      62.092  67.541  68.511  0.00  0.00    +0.000 C 
ATOM     12  C   UNL     1      63.184  67.786  68.073  0.00  0.00    +0.000 C 
BRANCH  12  13
ATOM     13  C   UNL     1      64.480  68.076  67.553  0.00  0.00    +0.000 A 
ATOM     14  C   UNL     1      64.830  69.393  67.255  0.00  0.00    +0.000 A 
ATOM     15  C   UNL     1      65.394  67.043  67.345  0.00  0.00    +0.000 A 
ATOM     16  C   UNL     1      66.094  69.679  66.748  0.00  0.00    +0.000 A 
ATOM     17  C   UNL     1      66.659  67.325  66.838  0.00  0.00    +0.000 A 
ATOM     18  C   UNL     1      66.999  68.641  66.543  0.00  0.00    +0.000 A 
BRANCH  18  19
ATOM     19  O   UNL     1      68.246  68.893  66.047  0.00  0.00    +0.000 OA
ATOM     20  H   UNL     1      68.248  69.788  65.667  0.00  0.00    +0.000 HD
ENDBRANCH  18  19
ENDBRANCH  12  13
ENDBRANCH   1  11
TORSDOF 5
ENDMDL
MODEL 8
REMARK VINA RESULT:      -4.9     34.071     34.951
REMARK  Name = Resveratrol.pdbqt.pdb
REMARK  5 active torsions:
REMARK  status: ('A' for Active; 'I' for Inactive)
REMARK    1  A    between atoms: C_1  and  C_11
REMARK    2  A    between atoms: C_4  and  O_7
REMARK    3  A    between atoms: C_5  and  O_9
REMARK    4  A    between atoms: C_12  and  C_13
REMARK    5  A    between atoms: C_18  and  O_19
REMARK                            x       y       z     vdW  Elec       q    Type
REMARK                         _______ _______ _______ _____ _____    ______ ____
ROOT
ATOM      1  C   UNL     1      60.818  67.279  69.019  0.00  0.00    +0.000 A 
ATOM      2  C   UNL     1      59.948  66.450  68.312  0.00  0.00    +0.000 A 
ATOM      3  C   UNL     1      60.425  67.835  70.236  0.00  0.00    +0.000 A 
ATOM      4  C   UNL     1      59.158  67.554  70.739  0.00  0.00    +0.000 A 
ATOM      5  C   UNL     1      58.686  66.182  68.833  0.00  0.00    +0.000 A 
ATOM      6  C   UNL     1      58.279  66.728  70.046  0.00  0.00    +0.000 A 
ENDROOT
BRANCH   4   7
ATOM      7  O   UNL     1      58.747  68.083  71.928  0.00  0.00    +0.000 OA
ATOM      8  H   UNL     1      59.537  68.351  72.430  0.00  0.00    +0.000 HD
ENDBRANCH   4   7
BRANCH   5   9
ATOM      9  O   UNL     1      57.850  65.367  68.124  0.00  0.00    +0.000 OA
ATOM     10  H   UNL     1      58.061  65.471  67.179  0.00  0.00    +0.000 HD
ENDBRANCH   5   9
BRANCH   1  11
ATOM     11  C   UNL     1      62.115  67.562  68.496  0.00  0.00    +0.000 C 
ATOM     12  C   UNL     1      63.206  67.801  68.055  0.00  0.00    +0.000 C 
BRANCH  12  13
ATOM     13  C   UNL     1      64.503  68.084  67.533  0.00  0.00    +0.000 A 
ATOM     14  C   UNL     1      65.406  67.045  67.314  0.00  0.00    +0.000 A 
ATOM     15  C   UNL     1      64.864  69.400  67.242  0.00  0.00    +0.000 A 
ATOM     16  C   UNL     1      66.672  67.319  66.804  0.00  0.00    +0.000 A 
ATOM     17  C   UNL     1      66.129  69.678  66.732  0.00  0.00    +0.000 A 
ATOM     18  C   UNL     1      67.023  68.635  66.518  0.00  0.00    +0.000 A 
BRANCH  18  19
ATOM     19  O   UNL     1      68.257  68.932  66.017  0.00  0.00    +0.000 OA
ATOM     20  H   UNL     1      68.161  69.144  65.072  0.00  0.00    +0.000 HD
ENDBRANCH  18  19
ENDBRANCH  12  13
ENDBRANCH   1  11
TORSDOF 5
ENDMDL
MODEL 9
REMARK VINA RESULT:      -4.8      5.085      7.591
REMARK  Name = Resveratrol.pdbqt.pdb
REMARK  5 active torsions:
REMARK  status: ('A' for Active; 'I' for Inactive)
REMARK    1  A    between atoms: C_1  and  C_11
REMARK    2  A    between atoms: C_4  and  O_7
REMARK    3  A    between atoms: C_5  and  O_9
REMARK    4  A    between atoms: C_12  and  C_13
REMARK    5  A    between atoms: C_18  and  O_19
REMARK                            x       y       z     vdW  Elec       q    Type
REMARK                         _______ _______ _______ _____ _____    ______ ____
ROOT
ATOM      1  C   UNL     1      52.119  34.647  57.004  0.00  0.00    +0.000 A 
ATOM      2  C   UNL     1      51.300  33.957  57.897  0.00  0.00    +0.000 A 
ATOM      3  C   UNL     1      52.353  36.011  57.177  0.00  0.00    +0.000 A 
ATOM      4  C   UNL     1      51.762  36.677  58.247  0.00  0.00    +0.000 A 
ATOM      5  C   UNL     1      50.719  34.641  58.960  0.00  0.00    +0.000 A 
ATOM      6  C   UNL     1      50.943  36.001  59.146  0.00  0.00    +0.000 A 
ENDROOT
BRANCH   4   7
ATOM      7  O   UNL     1      51.973  38.011  58.441  0.00  0.00    +0.000 OA
ATOM      8  H   UNL     1      51.779  38.473  57.606  0.00  0.00    +0.000 HD
ENDBRANCH   4   7
BRANCH   5   9
ATOM      9  O   UNL     1      49.921  33.944  59.821  0.00  0.00    +0.000 OA
ATOM     10  H   UNL     1      50.411  33.824  60.654  0.00  0.00    +0.000 HD
ENDBRANCH   5   9
BRANCH   1  11
ATOM     11  C   UNL     1      52.720  33.958  55.910  0.00  0.00    +0.000 C 
ATOM     12  C   UNL     1      53.226  33.376  54.988  0.00  0.00    +0.000 C 
BRANCH  12  13
ATOM     13  C   UNL     1      53.827  32.687  53.894  0.00  0.00    +0.000 A 
ATOM     14  C   UNL     1      54.757  33.340  53.087  0.00  0.00    +0.000 A 
ATOM     15  C   UNL     1      53.481  31.361  53.633  0.00  0.00    +0.000 A 
ATOM     16  C   UNL     1      55.345  32.669  52.018  0.00  0.00    +0.000 A 
ATOM     17  C   UNL     1      54.066  30.686  52.565  0.00  0.00    +0.000 A 
ATOM     18  C   UNL     1      54.993  31.346  51.765  0.00  0.00    +0.000 A 
BRANCH  18  19
ATOM     19  O   UNL     1      55.553  30.664  50.725  0.00  0.00    +0.000 OA
ATOM     20  H   UNL     1      54.927  29.977  50.437  0.00  0.00    +0.000 HD
ENDBRANCH  18  19
ENDBRANCH  12  13
ENDBRANCH   1  11
TORSDOF 5
ENDMDL
