MODEL 1
REMARK VINA RESULT:      -6.3      0.000      0.000
REMARK  Name = RetinoicAcid.pdbqt.pdb
REMARK  6 active torsions:
REMARK  status: ('A' for Active; 'I' for Inactive)
REMARK    1  A    between atoms: C_1  and  C_3
REMARK    2  A    between atoms: C_1  and  C_5
REMARK    3  A    between atoms: C_3  and  C_15
REMARK    4  A    between atoms: C_4  and  C_9
REMARK    5  A    between atoms: C_16  and  C_17
REMARK    6  A    between atoms: C_21  and  O_22
REMARK                            x       y       z     vdW  Elec       q    Type
REMARK                         _______ _______ _______ _____ _____    ______ ____
ROOT
ATOM      1  C   UNL     1      46.665  43.336  72.754  0.00  0.00    +0.000 C 
ATOM      2  C   UNL     1      46.403  43.880  74.125  0.00  0.00    +0.000 C 
ENDROOT
BRANCH   1   4
ATOM      3  C   UNL     1      44.696  43.045  71.051  0.00  0.00    +0.000 C 
ATOM      4  C   UNL     1      45.596  43.177  71.838  0.00  0.00    +0.000 C 
BRANCH   3   8
ATOM      5  C   UNL     1      42.197  43.443  70.445  0.00  0.00    +0.000 C 
ATOM      6  C   UNL     1      41.298  43.151  69.304  0.00  0.00    +0.000 C 
ATOM      7  C   UNL     1      41.289  42.504  67.933  0.00  0.00    +0.000 C 
ATOM      8  C   UNL     1      43.619  42.886  70.102  0.00  0.00    +0.000 C 
ATOM      9  C   UNL     1      42.754  42.134  68.007  0.00  0.00    +0.000 C 
ATOM     10  C   UNL     1      43.841  42.265  68.917  0.00  0.00    +0.000 C 
ATOM     11  C   UNL     1      41.672  42.735  71.724  0.00  0.00    +0.000 C 
ATOM     12  C   UNL     1      42.301  44.980  70.657  0.00  0.00    +0.000 C 
ATOM     13  C   UNL     1      45.169  41.708  68.485  0.00  0.00    +0.000 C 
ENDBRANCH   3   8
ENDBRANCH   1   4
BRANCH   1  14
ATOM     14  C   UNL     1      47.862  42.965  72.423  0.00  0.00    +0.000 C 
BRANCH  14  15
ATOM     15  C   UNL     1      49.278  42.528  72.029  0.00  0.00    +0.000 C 
ATOM     16  C   UNL     1      50.387  42.187  71.719  0.00  0.00    +0.000 C 
BRANCH  16  17
ATOM     17  C   UNL     1      51.696  41.790  71.354  0.00  0.00    +0.000 C 
ATOM     18  C   UNL     1      51.937  41.165  70.014  0.00  0.00    +0.000 C 
ATOM     19  C   UNL     1      52.671  41.936  72.186  0.00  0.00    +0.000 C 
ATOM     20  O   UNL     1      54.328  43.169  73.250  0.00  0.00    +0.000 OA
ATOM     21  C   UNL     1      53.740  42.114  73.105  0.00  0.00    +0.000 C 
BRANCH  21  22
ATOM     22  O   UNL     1      54.032  41.016  73.821  0.00  0.00    +0.000 OA
ATOM     23  H   UNL     1      54.249  41.362  74.712  0.00  0.00    +0.000 HD
ENDBRANCH  21  22
ENDBRANCH  16  17
ENDBRANCH  14  15
ENDBRANCH   1  14
TORSDOF 6
ENDMDL
MODEL 2
REMARK VINA RESULT:      -6.0      0.564      2.117
REMARK  Name = RetinoicAcid.pdbqt.pdb
REMARK  6 active torsions:
REMARK  status: ('A' for Active; 'I' for Inactive)
REMARK    1  A    between atoms: C_1  and  C_3
REMARK    2  A    between atoms: C_1  and  C_5
REMARK    3  A    between atoms: C_3  and  C_15
REMARK    4  A    between atoms: C_4  and  C_9
REMARK    5  A    between atoms: C_16  and  C_17
REMARK    6  A    between atoms: C_21  and  O_22
REMARK                            x       y       z     vdW  Elec       q    Type
REMARK                         _______ _______ _______ _____ _____    ______ ____
ROOT
ATOM      1  C   UNL     1      46.600  43.272  72.576  0.00  0.00    +0.000 C 
ATOM      2  C   UNL     1      46.296  43.838  73.928  0.00  0.00    +0.000 C 
ENDROOT
BRANCH   1   4
ATOM      3  C   UNL     1      44.664  42.900  70.851  0.00  0.00    +0.000 C 
ATOM      4  C   UNL     1      45.557  43.073  71.639  0.00  0.00    +0.000 C 
BRANCH   3   8
ATOM      5  C   UNL     1      43.731  41.594  68.803  0.00  0.00    +0.000 C 
ATOM      6  C   UNL     1      42.491  41.591  67.992  0.00  0.00    +0.000 C 
ATOM      7  C   UNL     1      41.147  42.284  67.871  0.00  0.00    +0.000 C 
ATOM      8  C   UNL     1      43.588  42.691  69.911  0.00  0.00    +0.000 C 
ATOM      9  C   UNL     1      41.419  43.195  69.048  0.00  0.00    +0.000 C 
ATOM     10  C   UNL     1      42.458  43.436  69.991  0.00  0.00    +0.000 C 
ATOM     11  C   UNL     1      44.949  41.939  67.904  0.00  0.00    +0.000 C 
ATOM     12  C   UNL     1      43.914  40.212  69.491  0.00  0.00    +0.000 C 
ATOM     13  C   UNL     1      42.215  44.503  71.022  0.00  0.00    +0.000 C 
ENDBRANCH   3   8
ENDBRANCH   1   4
BRANCH   1  14
ATOM     14  C   UNL     1      47.812  42.919  72.280  0.00  0.00    +0.000 C 
BRANCH  14  15
ATOM     15  C   UNL     1      49.245  42.502  71.928  0.00  0.00    +0.000 C 
ATOM     16  C   UNL     1      50.367  42.177  71.651  0.00  0.00    +0.000 C 
BRANCH  16  17
ATOM     17  C   UNL     1      51.692  41.799  71.326  0.00  0.00    +0.000 C 
ATOM     18  C   UNL     1      51.978  41.149  70.007  0.00  0.00    +0.000 C 
ATOM     19  C   UNL     1      52.644  41.984  72.177  0.00  0.00    +0.000 C 
ATOM     20  O   UNL     1      54.250  43.274  73.251  0.00  0.00    +0.000 OA
ATOM     21  C   UNL     1      53.686  42.204  73.117  0.00  0.00    +0.000 C 
BRANCH  21  22
ATOM     22  O   UNL     1      53.984  41.129  73.865  0.00  0.00    +0.000 OA
ATOM     23  H   UNL     1      53.157  40.944  74.358  0.00  0.00    +0.000 HD
ENDBRANCH  21  22
ENDBRANCH  16  17
ENDBRANCH  14  15
ENDBRANCH   1  14
TORSDOF 6
ENDMDL
MODEL 3
REMARK VINA RESULT:      -6.0     22.466     25.581
REMARK  Name = RetinoicAcid.pdbqt.pdb
REMARK  6 active torsions:
REMARK  status: ('A' for Active; 'I' for Inactive)
REMARK    1  A    between atoms: C_1  and  C_3
REMARK    2  A    between atoms: C_1  and  C_5
REMARK    3  A    between atoms: C_3  and  C_15
REMARK    4  A    between atoms: C_4  and  C_9
REMARK    5  A    between atoms: C_16  and  C_17
REMARK    6  A    between atoms: C_21  and  O_22
REMARK                            x       y       z     vdW  Elec       q    Type
REMARK                         _______ _______ _______ _____ _____    ______ ____
ROOT
ATOM      1  C   UNL     1      66.334  58.701  60.806  0.00  0.00    +0.000 C 
ATOM      2  C   UNL     1      66.887  59.176  59.497  0.00  0.00    +0.000 C 
ENDROOT
BRANCH   1   4
ATOM      3  C   UNL     1      63.984  57.547  60.886  0.00  0.00    +0.000 C 
ATOM      4  C   UNL     1      65.065  58.074  60.854  0.00  0.00    +0.000 C 
BRANCH   3   8
ATOM      5  C   UNL     1      62.525  55.508  61.581  0.00  0.00    +0.000 C 
ATOM      6  C   UNL     1      61.102  55.108  61.480  0.00  0.00    +0.000 C 
ATOM      7  C   UNL     1      59.765  55.594  60.957  0.00  0.00    +0.000 C 
ATOM      8  C   UNL     1      62.686  56.917  60.918  0.00  0.00    +0.000 C 
ATOM      9  C   UNL     1      60.346  56.891  60.438  0.00  0.00    +0.000 C 
ATOM     10  C   UNL     1      61.610  57.544  60.382  0.00  0.00    +0.000 C 
ATOM     11  C   UNL     1      63.416  54.487  60.821  0.00  0.00    +0.000 C 
ATOM     12  C   UNL     1      62.940  55.611  63.076  0.00  0.00    +0.000 C 
ATOM     13  C   UNL     1      61.652  58.901  59.734  0.00  0.00    +0.000 C 
ENDBRANCH   3   8
ENDBRANCH   1   4
BRANCH   1  14
ATOM     14  C   UNL     1      66.997  58.907  61.901  0.00  0.00    +0.000 C 
BRANCH  14  15
ATOM     15  C   UNL     1      67.782  59.148  63.196  0.00  0.00    +0.000 C 
ATOM     16  C   UNL     1      68.395  59.337  64.210  0.00  0.00    +0.000 C 
BRANCH  16  17
ATOM     17  C   UNL     1      69.117  59.554  65.409  0.00  0.00    +0.000 C 
ATOM     18  C   UNL     1      69.133  60.917  66.031  0.00  0.00    +0.000 C 
ATOM     19  C   UNL     1      69.786  58.590  65.945  0.00  0.00    +0.000 C 
ATOM     20  O   UNL     1      69.992  56.675  67.245  0.00  0.00    +0.000 OA
ATOM     21  C   UNL     1      70.507  57.517  66.533  0.00  0.00    +0.000 C 
BRANCH  21  22
ATOM     22  O   UNL     1      71.812  57.498  66.216  0.00  0.00    +0.000 OA
ATOM     23  H   UNL     1      72.248  57.959  66.963  0.00  0.00    +0.000 HD
ENDBRANCH  21  22
ENDBRANCH  16  17
ENDBRANCH  14  15
ENDBRANCH   1  14
TORSDOF 6
ENDMDL
MODEL 4
REMARK VINA RESULT:      -6.0     22.849     25.851
REMARK  Name = RetinoicAcid.pdbqt.pdb
REMARK  6 active torsions:
REMARK  status: ('A' for Active; 'I' for Inactive)
REMARK    1  A    between atoms: C_1  and  C_3
REMARK    2  A    between atoms: C_1  and  C_5
REMARK    3  A    between atoms: C_3  and  C_15
REMARK    4  A    between atoms: C_4  and  C_9
REMARK    5  A    between atoms: C_16  and  C_17
REMARK    6  A    between atoms: C_21  and  O_22
REMARK                            x       y       z     vdW  Elec       q    Type
REMARK                         _______ _______ _______ _____ _____    ______ ____
ROOT
ATOM      1  C   UNL     1      66.227  58.270  61.174  0.00  0.00    +0.000 C 
ATOM      2  C   UNL     1      67.221  57.905  60.115  0.00  0.00    +0.000 C 
ENDROOT
BRANCH   1   4
ATOM      3  C   UNL     1      63.817  57.246  61.108  0.00  0.00    +0.000 C 
ATOM      4  C   UNL     1      64.924  57.716  61.145  0.00  0.00    +0.000 C 
BRANCH   3   8
ATOM      5  C   UNL     1      61.537  57.045  59.870  0.00  0.00    +0.000 C 
ATOM      6  C   UNL     1      60.256  56.327  60.066  0.00  0.00    +0.000 C 
ATOM      7  C   UNL     1      59.563  55.369  61.016  0.00  0.00    +0.000 C 
ATOM      8  C   UNL     1      62.490  56.680  61.058  0.00  0.00    +0.000 C 
ATOM      9  C   UNL     1      60.758  55.292  61.941  0.00  0.00    +0.000 C 
ATOM     10  C   UNL     1      62.072  55.832  62.030  0.00  0.00    +0.000 C 
ATOM     11  C   UNL     1      61.288  58.578  59.875  0.00  0.00    +0.000 C 
ATOM     12  C   UNL     1      62.202  56.589  58.541  0.00  0.00    +0.000 C 
ATOM     13  C   UNL     1      62.910  55.407  63.204  0.00  0.00    +0.000 C 
ENDBRANCH   3   8
ENDBRANCH   1   4
BRANCH   1  14
ATOM     14  C   UNL     1      66.544  59.130  62.091  0.00  0.00    +0.000 C 
BRANCH  14  15
ATOM     15  C   UNL     1      66.922  60.148  63.174  0.00  0.00    +0.000 C 
ATOM     16  C   UNL     1      67.219  60.945  64.022  0.00  0.00    +0.000 C 
BRANCH  16  17
ATOM     17  C   UNL     1      67.573  61.886  65.018  0.00  0.00    +0.000 C 
ATOM     18  C   UNL     1      66.831  63.184  65.113  0.00  0.00    +0.000 C 
ATOM     19  C   UNL     1      68.554  61.641  65.820  0.00  0.00    +0.000 C 
ATOM     20  O   UNL     1      69.505  60.663  67.701  0.00  0.00    +0.000 OA
ATOM     21  C   UNL     1      69.626  61.354  66.706  0.00  0.00    +0.000 C 
BRANCH  21  22
ATOM     22  O   UNL     1      70.799  61.894  66.337  0.00  0.00    +0.000 OA
ATOM     23  H   UNL     1      71.111  62.360  67.141  0.00  0.00    +0.000 HD
ENDBRANCH  21  22
ENDBRANCH  16  17
ENDBRANCH  14  15
ENDBRANCH   1  14
TORSDOF 6
ENDMDL
MODEL 5
REMARK VINA RESULT:      -6.0      1.591      2.039
REMARK  Name = RetinoicAcid.pdbqt.pdb
REMARK  6 active torsions:
REMARK  status: ('A' for Active; 'I' for Inactive)
REMARK    1  A    between atoms: C_1  and  C_3
REMARK    2  A    between atoms: C_1  and  C_5
REMARK    3  A    between atoms: C_3  and  C_15
REMARK    4  A    between atoms: C_4  and  C_9
REMARK    5  A    between atoms: C_16  and  C_17
REMARK    6  A    between atoms: C_21  and  O_22
REMARK                            x       y       z     vdW  Elec       q    Type
REMARK                         _______ _______ _______ _____ _____    ______ ____
ROOT
ATOM      1  C   UNL     1      46.891  43.343  73.101  0.00  0.00    +0.000 C 
ATOM      2  C   UNL     1      46.548  43.839  74.472  0.00  0.00    +0.000 C 
ENDROOT
BRANCH   1   4
ATOM      3  C   UNL     1      45.002  43.053  71.309  0.00  0.00    +0.000 C 
ATOM      4  C   UNL     1      45.874  43.186  72.128  0.00  0.00    +0.000 C 
BRANCH   3   8
ATOM      5  C   UNL     1      42.560  43.570  70.576  0.00  0.00    +0.000 C 
ATOM      6  C   UNL     1      41.683  43.253  69.425  0.00  0.00    +0.000 C 
ATOM      7  C   UNL     1      41.676  42.505  68.106  0.00  0.00    +0.000 C 
ATOM      8  C   UNL     1      43.951  42.895  70.332  0.00  0.00    +0.000 C 
ATOM      9  C   UNL     1      43.108  42.044  68.266  0.00  0.00    +0.000 C 
ATOM     10  C   UNL     1      44.170  42.171  69.207  0.00  0.00    +0.000 C 
ATOM     11  C   UNL     1      41.943  43.000  71.882  0.00  0.00    +0.000 C 
ATOM     12  C   UNL     1      42.764  45.108  70.677  0.00  0.00    +0.000 C 
ATOM     13  C   UNL     1      45.470  41.494  68.870  0.00  0.00    +0.000 C 
ENDBRANCH   3   8
ENDBRANCH   1   4
BRANCH   1  14
ATOM     14  C   UNL     1      48.112  43.012  72.820  0.00  0.00    +0.000 C 
BRANCH  14  15
ATOM     15  C   UNL     1      49.557  42.620  72.485  0.00  0.00    +0.000 C 
ATOM     16  C   UNL     1      50.687  42.313  72.220  0.00  0.00    +0.000 C 
BRANCH  16  17
ATOM     17  C   UNL     1      52.019  41.954  71.905  0.00  0.00    +0.000 C 
ATOM     18  C   UNL     1      53.154  42.539  72.690  0.00  0.00    +0.000 C 
ATOM     19  C   UNL     1      52.258  41.151  70.923  0.00  0.00    +0.000 C 
ATOM     20  O   UNL     1      52.431  39.046  69.955  0.00  0.00    +0.000 OA
ATOM     21  C   UNL     1      52.508  40.257  69.849  0.00  0.00    +0.000 C 
BRANCH  21  22
ATOM     22  O   UNL     1      52.816  40.865  68.691  0.00  0.00    +0.000 OA
ATOM     23  H   UNL     1      52.028  40.717  68.127  0.00  0.00    +0.000 HD
ENDBRANCH  21  22
ENDBRANCH  16  17
ENDBRANCH  14  15
ENDBRANCH   1  14
TORSDOF 6
ENDMDL
MODEL 6
REMARK VINA RESULT:      -5.9     18.477     20.609
REMARK  Name = RetinoicAcid.pdbqt.pdb
REMARK  6 active torsions:
REMARK  status: ('A' for Active; 'I' for Inactive)
REMARK    1  A    between atoms: C_1  and  C_3
REMARK    2  A    between atoms: C_1  and  C_5
REMARK    3  A    between atoms: C_3  and  C_15
REMARK    4  A    between atoms: C_4  and  C_9
REMARK    5  A    between atoms: C_16  and  C_17
REMARK    6  A    between atoms: C_21  and  O_22
REMARK                            x       y       z     vdW  Elec       q    Type
REMARK                         _______ _______ _______ _____ _____    ______ ____
ROOT
ATOM      1  C   UNL     1      54.302  54.668  84.246  0.00  0.00    +0.000 C 
ATOM      2  C   UNL     1      52.909  54.160  84.457  0.00  0.00    +0.000 C 
ENDROOT
BRANCH   1   4
ATOM      3  C   UNL     1      54.681  57.103  83.357  0.00  0.00    +0.000 C 
ATOM      4  C   UNL     1      54.512  55.983  83.763  0.00  0.00    +0.000 C 
BRANCH   3   8
ATOM      5  C   UNL     1      54.095  59.631  83.538  0.00  0.00    +0.000 C 
ATOM      6  C   UNL     1      54.490  60.888  82.859  0.00  0.00    +0.000 C 
ATOM      7  C   UNL     1      55.385  61.410  81.752  0.00  0.00    +0.000 C 
ATOM      8  C   UNL     1      54.878  58.449  82.875  0.00  0.00    +0.000 C 
ATOM      9  C   UNL     1      55.912  60.032  81.415  0.00  0.00    +0.000 C 
ATOM     10  C   UNL     1      55.742  58.690  81.858  0.00  0.00    +0.000 C 
ATOM     11  C   UNL     1      52.571  59.392  83.358  0.00  0.00    +0.000 C 
ATOM     12  C   UNL     1      54.479  59.701  85.043  0.00  0.00    +0.000 C 
ATOM     13  C   UNL     1      56.552  57.631  81.162  0.00  0.00    +0.000 C 
ENDBRANCH   3   8
ENDBRANCH   1   4
BRANCH   1  14
ATOM     14  C   UNL     1      55.315  53.888  84.460  0.00  0.00    +0.000 C 
BRANCH  14  15
ATOM     15  C   UNL     1      56.512  52.963  84.711  0.00  0.00    +0.000 C 
ATOM     16  C   UNL     1      57.448  52.237  84.909  0.00  0.00    +0.000 C 
BRANCH  16  17
ATOM     17  C   UNL     1      58.549  51.378  85.139  0.00  0.00    +0.000 C 
ATOM     18  C   UNL     1      59.752  51.889  85.870  0.00  0.00    +0.000 C 
ATOM     19  C   UNL     1      58.530  50.168  84.691  0.00  0.00    +0.000 C 
ATOM     20  O   UNL     1      57.931  47.925  84.789  0.00  0.00    +0.000 OA
ATOM     21  C   UNL     1      58.491  48.834  84.205  0.00  0.00    +0.000 C 
BRANCH  21  22
ATOM     22  O   UNL     1      59.111  48.664  83.026  0.00  0.00    +0.000 OA
ATOM     23  H   UNL     1      59.693  49.448  82.946  0.00  0.00    +0.000 HD
ENDBRANCH  21  22
ENDBRANCH  16  17
ENDBRANCH  14  15
ENDBRANCH   1  14
TORSDOF 6
ENDMDL
MODEL 7
REMARK VINA RESULT:      -5.9     18.329     20.792
REMARK  Name = RetinoicAcid.pdbqt.pdb
REMARK  6 active torsions:
REMARK  status: ('A' for Active; 'I' for Inactive)
REMARK    1  A    between atoms: C_1  and  C_3
REMARK    2  A    between atoms: C_1  and  C_5
REMARK    3  A    between atoms: C_3  and  C_15
REMARK    4  A    between atoms: C_4  and  C_9
REMARK    5  A    between atoms: C_16  and  C_17
REMARK    6  A    between atoms: C_21  and  O_22
REMARK                            x       y       z     vdW  Elec       q    Type
REMARK                         _______ _______ _______ _____ _____    ______ ____
ROOT
ATOM      1  C   UNL     1      54.333  54.569  84.286  0.00  0.00    +0.000 C 
ATOM      2  C   UNL     1      52.931  54.046  84.344  0.00  0.00    +0.000 C 
ENDROOT
BRANCH   1   4
ATOM      3  C   UNL     1      54.764  57.090  83.719  0.00  0.00    +0.000 C 
ATOM      4  C   UNL     1      54.570  55.931  83.975  0.00  0.00    +0.000 C 
BRANCH   3   8
ATOM      5  C   UNL     1      55.098  58.944  81.924  0.00  0.00    +0.000 C 
ATOM      6  C   UNL     1      55.325  60.408  81.907  0.00  0.00    +0.000 C 
ATOM      7  C   UNL     1      55.490  61.597  82.834  0.00  0.00    +0.000 C 
ATOM      8  C   UNL     1      54.993  58.483  83.417  0.00  0.00    +0.000 C 
ATOM      9  C   UNL     1      55.331  60.753  84.079  0.00  0.00    +0.000 C 
ATOM     10  C   UNL     1      55.110  59.388  84.420  0.00  0.00    +0.000 C 
ATOM     11  C   UNL     1      56.294  58.216  81.253  0.00  0.00    +0.000 C 
ATOM     12  C   UNL     1      53.761  58.609  81.204  0.00  0.00    +0.000 C 
ATOM     13  C   UNL     1      55.012  59.053  85.882  0.00  0.00    +0.000 C 
ENDBRANCH   3   8
ENDBRANCH   1   4
BRANCH   1  14
ATOM     14  C   UNL     1      55.332  53.764  84.473  0.00  0.00    +0.000 C 
BRANCH  14  15
ATOM     15  C   UNL     1      56.512  52.810  84.693  0.00  0.00    +0.000 C 
ATOM     16  C   UNL     1      57.437  52.065  84.865  0.00  0.00    +0.000 C 
BRANCH  16  17
ATOM     17  C   UNL     1      58.531  51.189  85.071  0.00  0.00    +0.000 C 
ATOM     18  C   UNL     1      59.744  51.673  85.804  0.00  0.00    +0.000 C 
ATOM     19  C   UNL     1      58.495  49.988  84.599  0.00  0.00    +0.000 C 
ATOM     20  O   UNL     1      57.873  47.751  84.657  0.00  0.00    +0.000 OA
ATOM     21  C   UNL     1      58.440  48.665  84.087  0.00  0.00    +0.000 C 
BRANCH  21  22
ATOM     22  O   UNL     1      59.050  48.512  82.901  0.00  0.00    +0.000 OA
ATOM     23  H   UNL     1      59.557  49.342  82.783  0.00  0.00    +0.000 HD
ENDBRANCH  21  22
ENDBRANCH  16  17
ENDBRANCH  14  15
ENDBRANCH   1  14
TORSDOF 6
ENDMDL
MODEL 8
REMARK VINA RESULT:      -5.8     11.423     14.121
REMARK  Name = RetinoicAcid.pdbqt.pdb
REMARK  6 active torsions:
REMARK  status: ('A' for Active; 'I' for Inactive)
REMARK    1  A    between atoms: C_1  and  C_3
REMARK    2  A    between atoms: C_1  and  C_5
REMARK    3  A    between atoms: C_3  and  C_15
REMARK    4  A    between atoms: C_4  and  C_9
REMARK    5  A    between atoms: C_16  and  C_17
REMARK    6  A    between atoms: C_21  and  O_22
REMARK                            x       y       z     vdW  Elec       q    Type
REMARK                         _______ _______ _______ _____ _____    ______ ____
ROOT
ATOM      1  C   UNL     1      49.792  35.583  61.611  0.00  0.00    +0.000 C 
ATOM      2  C   UNL     1      48.319  35.527  61.878  0.00  0.00    +0.000 C 
ENDROOT
BRANCH   1   4
ATOM      3  C   UNL     1      50.736  34.877  59.272  0.00  0.00    +0.000 C 
ATOM      4  C   UNL     1      50.298  35.205  60.343  0.00  0.00    +0.000 C 
BRANCH   3   8
ATOM      5  C   UNL     1      52.229  35.439  57.217  0.00  0.00    +0.000 C 
ATOM      6  C   UNL     1      52.619  34.782  55.947  0.00  0.00    +0.000 C 
ATOM      7  C   UNL     1      52.402  33.510  55.151  0.00  0.00    +0.000 C 
ATOM      8  C   UNL     1      51.264  34.478  57.989  0.00  0.00    +0.000 C 
ATOM      9  C   UNL     1      51.478  32.918  56.193  0.00  0.00    +0.000 C 
ATOM     10  C   UNL     1      50.931  33.276  57.458  0.00  0.00    +0.000 C 
ATOM     11  C   UNL     1      51.485  36.768  56.916  0.00  0.00    +0.000 C 
ATOM     12  C   UNL     1      53.490  35.688  58.092  0.00  0.00    +0.000 C 
ATOM     13  C   UNL     1      50.025  32.275  58.121  0.00  0.00    +0.000 C 
ENDBRANCH   3   8
ENDBRANCH   1   4
BRANCH   1  14
ATOM     14  C   UNL     1      50.608  35.931  62.556  0.00  0.00    +0.000 C 
BRANCH  14  15
ATOM     15  C   UNL     1      51.571  36.345  63.676  0.00  0.00    +0.000 C 
ATOM     16  C   UNL     1      52.324  36.670  64.553  0.00  0.00    +0.000 C 
BRANCH  16  17
ATOM     17  C   UNL     1      53.207  37.053  65.590  0.00  0.00    +0.000 C 
ATOM     18  C   UNL     1      54.400  36.203  65.903  0.00  0.00    +0.000 C 
ATOM     19  C   UNL     1      52.968  38.114  66.285  0.00  0.00    +0.000 C 
ATOM     20  O   UNL     1      53.000  40.407  66.654  0.00  0.00    +0.000 OA
ATOM     21  C   UNL     1      52.701  39.290  67.035  0.00  0.00    +0.000 C 
BRANCH  21  22
ATOM     22  O   UNL     1      52.065  39.066  68.196  0.00  0.00    +0.000 OA
ATOM     23  H   UNL     1      51.513  38.276  68.018  0.00  0.00    +0.000 HD
ENDBRANCH  21  22
ENDBRANCH  16  17
ENDBRANCH  14  15
ENDBRANCH   1  14
TORSDOF 6
ENDMDL
MODEL 9
REMARK VINA RESULT:      -5.8     15.597     19.217
REMARK  Name = RetinoicAcid.pdbqt.pdb
REMARK  6 active torsions:
REMARK  status: ('A' for Active; 'I' for Inactive)
REMARK    1  A    between atoms: C_1  and  C_3
REMARK    2  A    between atoms: C_1  and  C_5
REMARK    3  A    between atoms: C_3  and  C_15
REMARK    4  A    between atoms: C_4  and  C_9
REMARK    5  A    between atoms: C_16  and  C_17
REMARK    6  A    between atoms: C_21  and  O_22
REMARK                            x       y       z     vdW  Elec       q    Type
REMARK                         _______ _______ _______ _____ _____    ______ ____
ROOT
ATOM      1  C   UNL     1      50.604  56.005  81.408  0.00  0.00    +0.000 C 
ATOM      2  C   UNL     1      50.004  56.888  80.357  0.00  0.00    +0.000 C 
ENDROOT
BRANCH   1   4
ATOM      3  C   UNL     1      52.680  56.814  82.785  0.00  0.00    +0.000 C 
ATOM      4  C   UNL     1      51.725  56.448  82.152  0.00  0.00    +0.000 C 
BRANCH   3   8
ATOM      5  C   UNL     1      54.100  56.633  84.957  0.00  0.00    +0.000 C 
ATOM      6  C   UNL     1      55.336  57.245  85.500  0.00  0.00    +0.000 C 
ATOM      7  C   UNL     1      56.415  58.253  85.153  0.00  0.00    +0.000 C 
ATOM      8  C   UNL     1      53.830  57.246  83.543  0.00  0.00    +0.000 C 
ATOM      9  C   UNL     1      55.801  58.569  83.807  0.00  0.00    +0.000 C 
ATOM     10  C   UNL     1      54.676  58.174  83.029  0.00  0.00    +0.000 C 
ATOM     11  C   UNL     1      52.899  56.957  85.887  0.00  0.00    +0.000 C 
ATOM     12  C   UNL     1      54.294  55.098  84.806  0.00  0.00    +0.000 C 
ATOM     13  C   UNL     1      54.516  58.815  81.678  0.00  0.00    +0.000 C 
ENDBRANCH   3   8
ENDBRANCH   1   4
BRANCH   1  14
ATOM     14  C   UNL     1      50.126  54.816  81.603  0.00  0.00    +0.000 C 
BRANCH  14  15
ATOM     15  C   UNL     1      49.561  53.409  81.832  0.00  0.00    +0.000 C 
ATOM     16  C   UNL     1      49.118  52.307  82.009  0.00  0.00    +0.000 C 
BRANCH  16  17
ATOM     17  C   UNL     1      48.596  51.007  82.213  0.00  0.00    +0.000 C 
ATOM     18  C   UNL     1      47.158  50.835  82.599  0.00  0.00    +0.000 C 
ATOM     19  C   UNL     1      49.363  49.976  82.100  0.00  0.00    +0.000 C 
ATOM     20  O   UNL     1      50.483  48.343  80.885  0.00  0.00    +0.000 OA
ATOM     21  C   UNL     1      50.215  48.849  81.959  0.00  0.00    +0.000 C 
BRANCH  21  22
ATOM     22  O   UNL     1      50.722  48.398  83.119  0.00  0.00    +0.000 OA
ATOM     23  H   UNL     1      49.999  48.537  83.766  0.00  0.00    +0.000 HD
ENDBRANCH  21  22
ENDBRANCH  16  17
ENDBRANCH  14  15
ENDBRANCH   1  14
TORSDOF 6
ENDMDL
