MODEL 1
REMARK VINA RESULT:      -7.0      0.000      0.000
REMARK  Name = SB_202190.pdbqt.pdb
REMARK  4 active torsions:
REMARK  status: ('A' for Active; 'I' for Inactive)
REMARK    1  A    between atoms: C_4  and  C_7
REMARK    2  A    between atoms: C_5  and  C_19
REMARK    3  A    between atoms: C_6  and  C_8
REMARK    4  A    between atoms: C_15  and  O_26
REMARK                            x       y       z     vdW  Elec       q    Type
REMARK                         _______ _______ _______ _____ _____    ______ ____
ROOT
ATOM      1  N   UNL     1      59.478  53.109  59.382  0.00  0.00    +0.000 N 
ATOM      2  N   UNL     1      60.400  51.223  58.732  0.00  0.00    +0.000 NA
ATOM      3  C   UNL     1      60.831  53.283  59.600  0.00  0.00    +0.000 A 
ATOM      4  C   UNL     1      61.378  52.069  59.209  0.00  0.00    +0.000 A 
ATOM      5  C   UNL     1      59.256  51.864  58.845  0.00  0.00    +0.000 A 
ATOM      6  H   UNL     1      58.762  53.801  59.553  0.00  0.00    +0.000 HD
ENDROOT
BRANCH   4   7
ATOM      7  C   UNL     1      62.763  51.652  59.271  0.00  0.00    +0.000 A 
ATOM      8  C   UNL     1      63.119  50.303  59.233  0.00  0.00    +0.000 A 
ATOM      9  C   UNL     1      64.458  49.922  59.248  0.00  0.00    +0.000 A 
ATOM     10  C   UNL     1      65.442  50.903  59.285  0.00  0.00    +0.000 A 
ATOM     11  F   UNL     1      66.732  50.541  59.304  0.00  0.00    +0.000 F 
ATOM     12  C   UNL     1      65.111  52.252  59.305  0.00  0.00    +0.000 A 
ATOM     13  C   UNL     1      63.768  52.623  59.291  0.00  0.00    +0.000 A 
ENDBRANCH   4   7
BRANCH   3  15
ATOM     14  N   UNL     1      62.501  56.940  61.027  0.00  0.00    +0.000 NA
ATOM     15  C   UNL     1      61.384  54.541  60.091  0.00  0.00    +0.000 A 
ATOM     16  C   UNL     1      61.569  54.753  61.456  0.00  0.00    +0.000 A 
ATOM     17  C   UNL     1      61.776  55.538  59.198  0.00  0.00    +0.000 A 
ATOM     18  C   UNL     1      62.120  55.955  61.869  0.00  0.00    +0.000 A 
ATOM     19  C   UNL     1      62.316  56.707  59.711  0.00  0.00    +0.000 A 
ENDBRANCH   3  15
BRANCH   5  20
ATOM     20  C   UNL     1      57.941  51.359  58.467  0.00  0.00    +0.000 A 
ATOM     21  C   UNL     1      56.829  51.660  59.258  0.00  0.00    +0.000 A 
ATOM     22  C   UNL     1      57.765  50.574  57.324  0.00  0.00    +0.000 A 
ATOM     23  C   UNL     1      55.563  51.189  58.917  0.00  0.00    +0.000 A 
ATOM     24  C   UNL     1      56.504  50.097  56.974  0.00  0.00    +0.000 A 
ATOM     25  C   UNL     1      55.412  50.410  57.775  0.00  0.00    +0.000 A 
BRANCH  25  26
ATOM     26  O   UNL     1      54.186  49.933  57.414  0.00  0.00    +0.000 OA
ATOM     27  H   UNL     1      53.573  50.077  58.156  0.00  0.00    +0.000 HD
ENDBRANCH  25  26
ENDBRANCH   5  20
TORSDOF 4
ENDMDL
MODEL 2
REMARK VINA RESULT:      -6.5     18.602     20.809
REMARK  Name = SB_202190.pdbqt.pdb
REMARK  4 active torsions:
REMARK  status: ('A' for Active; 'I' for Inactive)
REMARK    1  A    between atoms: C_4  and  C_7
REMARK    2  A    between atoms: C_5  and  C_19
REMARK    3  A    between atoms: C_6  and  C_8
REMARK    4  A    between atoms: C_15  and  O_26
REMARK                            x       y       z     vdW  Elec       q    Type
REMARK                         _______ _______ _______ _____ _____    ______ ____
ROOT
ATOM      1  N   UNL     1      52.315  35.970  61.833  0.00  0.00    +0.000 N 
ATOM      2  N   UNL     1      50.671  36.119  63.285  0.00  0.00    +0.000 NA
ATOM      3  C   UNL     1      51.166  35.799  61.087  0.00  0.00    +0.000 A 
ATOM      4  C   UNL     1      50.154  35.868  62.033  0.00  0.00    +0.000 A 
ATOM      5  C   UNL     1      51.980  36.175  63.150  0.00  0.00    +0.000 A 
ATOM      6  H   UNL     1      53.257  35.983  61.469  0.00  0.00    +0.000 HD
ENDROOT
BRANCH   4   7
ATOM      7  C   UNL     1      48.730  35.697  61.832  0.00  0.00    +0.000 A 
ATOM      8  C   UNL     1      48.142  34.431  61.839  0.00  0.00    +0.000 A 
ATOM      9  C   UNL     1      46.765  34.288  61.690  0.00  0.00    +0.000 A 
ATOM     10  C   UNL     1      45.976  35.424  61.550  0.00  0.00    +0.000 A 
ATOM     11  F   UNL     1      44.651  35.291  61.401  0.00  0.00    +0.000 F 
ATOM     12  C   UNL     1      46.539  36.695  61.558  0.00  0.00    +0.000 A 
ATOM     13  C   UNL     1      47.918  36.827  61.707  0.00  0.00    +0.000 A 
ENDBRANCH   4   7
BRANCH   3  15
ATOM     14  N   UNL     1      51.317  35.330  56.849  0.00  0.00    +0.000 NA
ATOM     15  C   UNL     1      51.199  35.640  59.636  0.00  0.00    +0.000 A 
ATOM     16  C   UNL     1      51.178  36.752  58.796  0.00  0.00    +0.000 A 
ATOM     17  C   UNL     1      51.291  34.371  59.065  0.00  0.00    +0.000 A 
ATOM     18  C   UNL     1      51.235  36.547  57.427  0.00  0.00    +0.000 A 
ATOM     19  C   UNL     1      51.340  34.271  57.684  0.00  0.00    +0.000 A 
ENDBRANCH   3  15
BRANCH   5  20
ATOM     20  C   UNL     1      52.949  36.417  64.213  0.00  0.00    +0.000 A 
ATOM     21  C   UNL     1      52.504  36.793  65.484  0.00  0.00    +0.000 A 
ATOM     22  C   UNL     1      54.322  36.279  63.990  0.00  0.00    +0.000 A 
ATOM     23  C   UNL     1      53.411  37.028  66.515  0.00  0.00    +0.000 A 
ATOM     24  C   UNL     1      55.236  36.513  65.014  0.00  0.00    +0.000 A 
ATOM     25  C   UNL     1      54.772  36.886  66.270  0.00  0.00    +0.000 A 
BRANCH  25  26
ATOM     26  O   UNL     1      55.685  37.109  67.259  0.00  0.00    +0.000 OA
ATOM     27  H   UNL     1      56.114  37.966  67.089  0.00  0.00    +0.000 HD
ENDBRANCH  25  26
ENDBRANCH   5  20
TORSDOF 4
ENDMDL
MODEL 3
REMARK VINA RESULT:      -6.5     18.456     19.837
REMARK  Name = SB_202190.pdbqt.pdb
REMARK  4 active torsions:
REMARK  status: ('A' for Active; 'I' for Inactive)
REMARK    1  A    between atoms: C_4  and  C_7
REMARK    2  A    between atoms: C_5  and  C_19
REMARK    3  A    between atoms: C_6  and  C_8
REMARK    4  A    between atoms: C_15  and  O_26
REMARK                            x       y       z     vdW  Elec       q    Type
REMARK                         _______ _______ _______ _____ _____    ______ ____
ROOT
ATOM      1  N   UNL     1      50.520  35.668  60.843  0.00  0.00    +0.000 N 
ATOM      2  N   UNL     1      51.179  35.660  62.941  0.00  0.00    +0.000 NA
ATOM      3  C   UNL     1      51.838  35.258  60.799  0.00  0.00    +0.000 A 
ATOM      4  C   UNL     1      52.231  35.292  62.130  0.00  0.00    +0.000 A 
ATOM      5  C   UNL     1      50.152  35.887  62.149  0.00  0.00    +0.000 A 
ATOM      6  H   UNL     1      49.905  35.758  60.048  0.00  0.00    +0.000 HD
ENDROOT
BRANCH   4   7
ATOM      7  C   UNL     1      53.540  35.014  62.681  0.00  0.00    +0.000 A 
ATOM      8  C   UNL     1      54.002  33.705  62.832  0.00  0.00    +0.000 A 
ATOM      9  C   UNL     1      55.282  33.457  63.322  0.00  0.00    +0.000 A 
ATOM     10  C   UNL     1      56.105  34.530  63.644  0.00  0.00    +0.000 A 
ATOM     11  F   UNL     1      57.336  34.295  64.119  0.00  0.00    +0.000 F 
ATOM     12  C   UNL     1      55.672  35.841  63.483  0.00  0.00    +0.000 A 
ATOM     13  C   UNL     1      54.390  36.078  62.994  0.00  0.00    +0.000 A 
ENDBRANCH   4   7
BRANCH   3  15
ATOM     14  N   UNL     1      53.696  34.139  57.126  0.00  0.00    +0.000 NA
ATOM     15  C   UNL     1      52.490  34.872  59.551  0.00  0.00    +0.000 A 
ATOM     16  C   UNL     1      52.628  33.530  59.205  0.00  0.00    +0.000 A 
ATOM     17  C   UNL     1      52.952  35.845  58.665  0.00  0.00    +0.000 A 
ATOM     18  C   UNL     1      53.234  33.218  57.998  0.00  0.00    +0.000 A 
ATOM     19  C   UNL     1      53.545  35.431  57.483  0.00  0.00    +0.000 A 
ENDBRANCH   3  15
BRANCH   5  20
ATOM     20  C   UNL     1      48.818  36.306  62.564  0.00  0.00    +0.000 A 
ATOM     21  C   UNL     1      48.601  36.726  63.879  0.00  0.00    +0.000 A 
ATOM     22  C   UNL     1      47.743  36.299  61.671  0.00  0.00    +0.000 A 
ATOM     23  C   UNL     1      47.336  37.131  64.298  0.00  0.00    +0.000 A 
ATOM     24  C   UNL     1      46.474  36.701  62.080  0.00  0.00    +0.000 A 
ATOM     25  C   UNL     1      46.281  37.115  63.392  0.00  0.00    +0.000 A 
BRANCH  25  26
ATOM     26  O   UNL     1      45.030  37.506  63.771  0.00  0.00    +0.000 OA
ATOM     27  H   UNL     1      44.932  37.329  64.723  0.00  0.00    +0.000 HD
ENDBRANCH  25  26
ENDBRANCH   5  20
TORSDOF 4
ENDMDL
MODEL 4
REMARK VINA RESULT:      -6.5     19.059     20.354
REMARK  Name = SB_202190.pdbqt.pdb
REMARK  4 active torsions:
REMARK  status: ('A' for Active; 'I' for Inactive)
REMARK    1  A    between atoms: C_4  and  C_7
REMARK    2  A    between atoms: C_5  and  C_19
REMARK    3  A    between atoms: C_6  and  C_8
REMARK    4  A    between atoms: C_15  and  O_26
REMARK                            x       y       z     vdW  Elec       q    Type
REMARK                         _______ _______ _______ _____ _____    ______ ____
ROOT
ATOM      1  N   UNL     1      50.441  35.358  62.485  0.00  0.00    +0.000 N 
ATOM      2  N   UNL     1      49.622  35.785  60.490  0.00  0.00    +0.000 NA
ATOM      3  C   UNL     1      51.456  35.032  61.608  0.00  0.00    +0.000 A 
ATOM      4  C   UNL     1      50.898  35.283  60.363  0.00  0.00    +0.000 A 
ATOM      5  C   UNL     1      49.357  35.823  61.779  0.00  0.00    +0.000 A 
ATOM      6  H   UNL     1      50.494  35.305  63.493  0.00  0.00    +0.000 HD
ENDROOT
BRANCH   4   7
ATOM      7  C   UNL     1      51.490  35.064  59.059  0.00  0.00    +0.000 A 
ATOM      8  C   UNL     1      51.101  33.991  58.255  0.00  0.00    +0.000 A 
ATOM      9  C   UNL     1      51.647  33.821  56.985  0.00  0.00    +0.000 A 
ATOM     10  C   UNL     1      52.575  34.745  56.517  0.00  0.00    +0.000 A 
ATOM     11  F   UNL     1      53.106  34.583  55.298  0.00  0.00    +0.000 F 
ATOM     12  C   UNL     1      52.962  35.830  57.294  0.00  0.00    +0.000 A 
ATOM     13  C   UNL     1      52.411  35.990  58.563  0.00  0.00    +0.000 A 
ENDBRANCH   4   7
BRANCH   3  15
ATOM     14  N   UNL     1      55.265  33.711  63.004  0.00  0.00    +0.000 NA
ATOM     15  C   UNL     1      52.767  34.584  62.069  0.00  0.00    +0.000 A 
ATOM     16  C   UNL     1      53.711  35.498  62.532  0.00  0.00    +0.000 A 
ATOM     17  C   UNL     1      53.083  33.225  62.090  0.00  0.00    +0.000 A 
ATOM     18  C   UNL     1      54.931  35.018  62.981  0.00  0.00    +0.000 A 
ATOM     19  C   UNL     1      54.332  32.847  62.555  0.00  0.00    +0.000 A 
ENDBRANCH   3  15
BRANCH   5  20
ATOM     20  C   UNL     1      48.116  36.281  62.393  0.00  0.00    +0.000 A 
ATOM     21  C   UNL     1      46.889  35.877  61.861  0.00  0.00    +0.000 A 
ATOM     22  C   UNL     1      48.125  37.121  63.511  0.00  0.00    +0.000 A 
ATOM     23  C   UNL     1      45.690  36.302  62.431  0.00  0.00    +0.000 A 
ATOM     24  C   UNL     1      46.933  37.552  64.087  0.00  0.00    +0.000 A 
ATOM     25  C   UNL     1      45.724  37.138  63.542  0.00  0.00    +0.000 A 
BRANCH  25  26
ATOM     26  O   UNL     1      44.568  37.571  64.123  0.00  0.00    +0.000 OA
ATOM     27  H   UNL     1      44.163  38.234  63.537  0.00  0.00    +0.000 HD
ENDBRANCH  25  26
ENDBRANCH   5  20
TORSDOF 4
ENDMDL
MODEL 5
REMARK VINA RESULT:      -6.4     13.530     15.810
REMARK  Name = SB_202190.pdbqt.pdb
REMARK  4 active torsions:
REMARK  status: ('A' for Active; 'I' for Inactive)
REMARK    1  A    between atoms: C_4  and  C_7
REMARK    2  A    between atoms: C_5  and  C_19
REMARK    3  A    between atoms: C_6  and  C_8
REMARK    4  A    between atoms: C_15  and  O_26
REMARK                            x       y       z     vdW  Elec       q    Type
REMARK                         _______ _______ _______ _____ _____    ______ ____
ROOT
ATOM      1  N   UNL     1      70.832  40.805  63.910  0.00  0.00    +0.000 N 
ATOM      2  N   UNL     1      70.365  40.763  61.763  0.00  0.00    +0.000 NA
ATOM      3  C   UNL     1      71.175  42.060  63.449  0.00  0.00    +0.000 A 
ATOM      4  C   UNL     1      70.897  41.990  62.091  0.00  0.00    +0.000 A 
ATOM      5  C   UNL     1      70.333  40.055  62.872  0.00  0.00    +0.000 A 
ATOM      6  H   UNL     1      70.898  40.492  64.869  0.00  0.00    +0.000 HD
ENDROOT
BRANCH   4   7
ATOM      7  C   UNL     1      71.117  43.005  61.081  0.00  0.00    +0.000 A 
ATOM      8  C   UNL     1      70.366  44.181  61.058  0.00  0.00    +0.000 A 
ATOM      9  C   UNL     1      70.622  45.167  60.108  0.00  0.00    +0.000 A 
ATOM     10  C   UNL     1      71.648  44.975  59.190  0.00  0.00    +0.000 A 
ATOM     11  F   UNL     1      71.894  45.919  58.272  0.00  0.00    +0.000 F 
ATOM     12  C   UNL     1      72.420  43.820  59.208  0.00  0.00    +0.000 A 
ATOM     13  C   UNL     1      72.156  42.839  60.161  0.00  0.00    +0.000 A 
ENDBRANCH   4   7
BRANCH   3  15
ATOM     14  N   UNL     1      72.626  45.090  66.078  0.00  0.00    +0.000 NA
ATOM     15  C   UNL     1      71.661  43.110  64.339  0.00  0.00    +0.000 A 
ATOM     16  C   UNL     1      70.907  43.520  65.437  0.00  0.00    +0.000 A 
ATOM     17  C   UNL     1      72.910  43.694  64.128  0.00  0.00    +0.000 A 
ATOM     18  C   UNL     1      71.425  44.503  66.264  0.00  0.00    +0.000 A 
ATOM     19  C   UNL     1      73.338  44.671  65.012  0.00  0.00    +0.000 A 
ENDBRANCH   3  15
BRANCH   5  20
ATOM     20  C   UNL     1      69.850  38.686  63.010  0.00  0.00    +0.000 A 
ATOM     21  C   UNL     1      70.059  37.769  61.976  0.00  0.00    +0.000 A 
ATOM     22  C   UNL     1      69.178  38.265  64.161  0.00  0.00    +0.000 A 
ATOM     23  C   UNL     1      69.607  36.456  62.086  0.00  0.00    +0.000 A 
ATOM     24  C   UNL     1      68.721  36.954  64.280  0.00  0.00    +0.000 A 
ATOM     25  C   UNL     1      68.941  36.060  63.240  0.00  0.00    +0.000 A 
BRANCH  25  26
ATOM     26  O   UNL     1      68.486  34.781  63.378  0.00  0.00    +0.000 OA
ATOM     27  H   UNL     1      67.650  34.700  62.886  0.00  0.00    +0.000 HD
ENDBRANCH  25  26
ENDBRANCH   5  20
TORSDOF 4
ENDMDL
MODEL 6
REMARK VINA RESULT:      -6.4     16.210     19.741
REMARK  Name = SB_202190.pdbqt.pdb
REMARK  4 active torsions:
REMARK  status: ('A' for Active; 'I' for Inactive)
REMARK    1  A    between atoms: C_4  and  C_7
REMARK    2  A    between atoms: C_5  and  C_19
REMARK    3  A    between atoms: C_6  and  C_8
REMARK    4  A    between atoms: C_15  and  O_26
REMARK                            x       y       z     vdW  Elec       q    Type
REMARK                         _______ _______ _______ _____ _____    ______ ____
ROOT
ATOM      1  N   UNL     1      61.486  69.361  68.662  0.00  0.00    +0.000 N 
ATOM      2  N   UNL     1      63.489  69.879  67.916  0.00  0.00    +0.000 NA
ATOM      3  C   UNL     1      61.990  68.182  68.150  0.00  0.00    +0.000 A 
ATOM      4  C   UNL     1      63.236  68.549  67.663  0.00  0.00    +0.000 A 
ATOM      5  C   UNL     1      62.421  70.359  68.518  0.00  0.00    +0.000 A 
ATOM      6  H   UNL     1      60.588  69.472  69.109  0.00  0.00    +0.000 HD
ENDROOT
BRANCH   4   7
ATOM      7  C   UNL     1      64.198  67.725  66.960  0.00  0.00    +0.000 A 
ATOM      8  C   UNL     1      63.977  67.312  65.644  0.00  0.00    +0.000 A 
ATOM      9  C   UNL     1      64.933  66.558  64.968  0.00  0.00    +0.000 A 
ATOM     10  C   UNL     1      66.122  66.234  65.612  0.00  0.00    +0.000 A 
ATOM     11  F   UNL     1      67.042  65.506  64.966  0.00  0.00    +0.000 F 
ATOM     12  C   UNL     1      66.369  66.651  66.914  0.00  0.00    +0.000 A 
ATOM     13  C   UNL     1      65.407  67.403  67.583  0.00  0.00    +0.000 A 
ENDBRANCH   4   7
BRANCH   3  15
ATOM     14  N   UNL     1      59.892  64.474  68.377  0.00  0.00    +0.000 NA
ATOM     15  C   UNL     1      61.255  66.922  68.232  0.00  0.00    +0.000 A 
ATOM     16  C   UNL     1      60.543  66.441  67.136  0.00  0.00    +0.000 A 
ATOM     17  C   UNL     1      61.288  66.159  69.398  0.00  0.00    +0.000 A 
ATOM     18  C   UNL     1      59.883  65.229  67.258  0.00  0.00    +0.000 A 
ATOM     19  C   UNL     1      60.593  64.961  69.421  0.00  0.00    +0.000 A 
ENDBRANCH   3  15
BRANCH   5  20
ATOM     20  C   UNL     1      62.229  71.731  68.975  0.00  0.00    +0.000 A 
ATOM     21  C   UNL     1      63.258  72.384  69.660  0.00  0.00    +0.000 A 
ATOM     22  C   UNL     1      61.033  72.414  68.740  0.00  0.00    +0.000 A 
ATOM     23  C   UNL     1      63.098  73.694  70.105  0.00  0.00    +0.000 A 
ATOM     24  C   UNL     1      60.863  73.725  69.181  0.00  0.00    +0.000 A 
ATOM     25  C   UNL     1      61.899  74.354  69.860  0.00  0.00    +0.000 A 
BRANCH  25  26
ATOM     26  O   UNL     1      61.712  75.638  70.283  0.00  0.00    +0.000 OA
ATOM     27  H   UNL     1      60.799  75.721  70.610  0.00  0.00    +0.000 HD
ENDBRANCH  25  26
ENDBRANCH   5  20
TORSDOF 4
ENDMDL
MODEL 7
REMARK VINA RESULT:      -6.4     19.150     20.778
REMARK  Name = SB_202190.pdbqt.pdb
REMARK  4 active torsions:
REMARK  status: ('A' for Active; 'I' for Inactive)
REMARK    1  A    between atoms: C_4  and  C_7
REMARK    2  A    between atoms: C_5  and  C_19
REMARK    3  A    between atoms: C_6  and  C_8
REMARK    4  A    between atoms: C_15  and  O_26
REMARK                            x       y       z     vdW  Elec       q    Type
REMARK                         _______ _______ _______ _____ _____    ______ ____
ROOT
ATOM      1  N   UNL     1      51.441  35.740  61.439  0.00  0.00    +0.000 N 
ATOM      2  N   UNL     1      49.419  36.002  60.617  0.00  0.00    +0.000 NA
ATOM      3  C   UNL     1      50.628  35.898  62.543  0.00  0.00    +0.000 A 
ATOM      4  C   UNL     1      49.370  36.090  61.991  0.00  0.00    +0.000 A 
ATOM      5  C   UNL     1      50.679  35.793  60.297  0.00  0.00    +0.000 A 
ATOM      6  H   UNL     1      52.437  35.572  61.460  0.00  0.00    +0.000 HD
ENDROOT
BRANCH   4   7
ATOM      7  C   UNL     1      48.126  36.367  62.679  0.00  0.00    +0.000 A 
ATOM      8  C   UNL     1      48.022  37.411  63.601  0.00  0.00    +0.000 A 
ATOM      9  C   UNL     1      46.806  37.692  64.219  0.00  0.00    +0.000 A 
ATOM     10  C   UNL     1      45.688  36.931  63.896  0.00  0.00    +0.000 A 
ATOM     11  F   UNL     1      44.518  37.196  64.492  0.00  0.00    +0.000 F 
ATOM     12  C   UNL     1      45.765  35.900  62.967  0.00  0.00    +0.000 A 
ATOM     13  C   UNL     1      46.986  35.626  62.355  0.00  0.00    +0.000 A 
ENDBRANCH   4   7
BRANCH   3  15
ATOM     14  N   UNL     1      52.175  35.606  66.508  0.00  0.00    +0.000 NA
ATOM     15  C   UNL     1      51.142  35.807  63.907  0.00  0.00    +0.000 A 
ATOM     16  C   UNL     1      50.710  34.799  64.766  0.00  0.00    +0.000 A 
ATOM     17  C   UNL     1      52.106  36.707  64.360  0.00  0.00    +0.000 A 
ATOM     18  C   UNL     1      51.247  34.743  66.042  0.00  0.00    +0.000 A 
ATOM     19  C   UNL     1      52.580  36.569  65.655  0.00  0.00    +0.000 A 
ENDBRANCH   3  15
BRANCH   5  20
ATOM     20  C   UNL     1      51.213  35.636  58.948  0.00  0.00    +0.000 A 
ATOM     21  C   UNL     1      51.703  34.394  58.536  0.00  0.00    +0.000 A 
ATOM     22  C   UNL     1      51.245  36.708  58.051  0.00  0.00    +0.000 A 
ATOM     23  C   UNL     1      52.217  34.221  57.253  0.00  0.00    +0.000 A 
ATOM     24  C   UNL     1      51.758  36.545  56.766  0.00  0.00    +0.000 A 
ATOM     25  C   UNL     1      52.240  35.301  56.377  0.00  0.00    +0.000 A 
BRANCH  25  26
ATOM     26  O   UNL     1      52.737  35.164  55.114  0.00  0.00    +0.000 OA
ATOM     27  H   UNL     1      53.462  34.516  55.142  0.00  0.00    +0.000 HD
ENDBRANCH  25  26
ENDBRANCH   5  20
TORSDOF 4
ENDMDL
MODEL 8
REMARK VINA RESULT:      -6.3     26.730     29.728
REMARK  Name = SB_202190.pdbqt.pdb
REMARK  4 active torsions:
REMARK  status: ('A' for Active; 'I' for Inactive)
REMARK    1  A    between atoms: C_4  and  C_7
REMARK    2  A    between atoms: C_5  and  C_19
REMARK    3  A    between atoms: C_6  and  C_8
REMARK    4  A    between atoms: C_15  and  O_26
REMARK                            x       y       z     vdW  Elec       q    Type
REMARK                         _______ _______ _______ _____ _____    ______ ____
ROOT
ATOM      1  N   UNL     1      57.934  71.711  81.976  0.00  0.00    +0.000 N 
ATOM      2  N   UNL     1      56.743  69.867  82.087  0.00  0.00    +0.000 NA
ATOM      3  C   UNL     1      57.243  71.663  80.782  0.00  0.00    +0.000 A 
ATOM      4  C   UNL     1      56.527  70.478  80.871  0.00  0.00    +0.000 A 
ATOM      5  C   UNL     1      57.598  70.622  82.744  0.00  0.00    +0.000 A 
ATOM      6  H   UNL     1      58.562  72.448  82.264  0.00  0.00    +0.000 HD
ENDROOT
BRANCH   4   7
ATOM      7  C   UNL     1      55.665  69.879  79.875  0.00  0.00    +0.000 A 
ATOM      8  C   UNL     1      54.858  70.662  79.047  0.00  0.00    +0.000 A 
ATOM      9  C   UNL     1      54.068  70.072  78.063  0.00  0.00    +0.000 A 
ATOM     10  C   UNL     1      54.105  68.692  77.900  0.00  0.00    +0.000 A 
ATOM     11  F   UNL     1      53.343  68.120  76.957  0.00  0.00    +0.000 F 
ATOM     12  C   UNL     1      54.915  67.895  78.701  0.00  0.00    +0.000 A 
ATOM     13  C   UNL     1      55.700  68.495  79.683  0.00  0.00    +0.000 A 
ENDBRANCH   4   7
BRANCH   3  15
ATOM     14  N   UNL     1      57.543  74.806  77.912  0.00  0.00    +0.000 NA
ATOM     15  C   UNL     1      57.333  72.729  79.789  0.00  0.00    +0.000 A 
ATOM     16  C   UNL     1      56.400  73.765  79.768  0.00  0.00    +0.000 A 
ATOM     17  C   UNL     1      58.380  72.751  78.867  0.00  0.00    +0.000 A 
ATOM     18  C   UNL     1      56.545  74.764  78.820  0.00  0.00    +0.000 A 
ATOM     19  C   UNL     1      58.435  73.795  77.958  0.00  0.00    +0.000 A 
ENDBRANCH   3  15
BRANCH   5  20
ATOM     20  C   UNL     1      58.124  70.369  84.081  0.00  0.00    +0.000 A 
ATOM     21  C   UNL     1      58.829  69.189  84.337  0.00  0.00    +0.000 A 
ATOM     22  C   UNL     1      57.941  71.286  85.120  0.00  0.00    +0.000 A 
ATOM     23  C   UNL     1      59.341  68.926  85.605  0.00  0.00    +0.000 A 
ATOM     24  C   UNL     1      58.449  71.032  86.392  0.00  0.00    +0.000 A 
ATOM     25  C   UNL     1      59.146  69.853  86.624  0.00  0.00    +0.000 A 
BRANCH  25  26
ATOM     26  O   UNL     1      59.635  69.625  87.877  0.00  0.00    +0.000 OA
ATOM     27  H   UNL     1      59.223  70.262  88.485  0.00  0.00    +0.000 HD
ENDBRANCH  25  26
ENDBRANCH   5  20
TORSDOF 4
ENDMDL
MODEL 9
REMARK VINA RESULT:      -6.2     16.338     19.919
REMARK  Name = SB_202190.pdbqt.pdb
REMARK  4 active torsions:
REMARK  status: ('A' for Active; 'I' for Inactive)
REMARK    1  A    between atoms: C_4  and  C_7
REMARK    2  A    between atoms: C_5  and  C_19
REMARK    3  A    between atoms: C_6  and  C_8
REMARK    4  A    between atoms: C_15  and  O_26
REMARK                            x       y       z     vdW  Elec       q    Type
REMARK                         _______ _______ _______ _____ _____    ______ ____
ROOT
ATOM      1  N   UNL     1      63.620  69.921  67.965  0.00  0.00    +0.000 N 
ATOM      2  N   UNL     1      61.530  69.508  68.505  0.00  0.00    +0.000 NA
ATOM      3  C   UNL     1      63.402  68.618  67.564  0.00  0.00    +0.000 A 
ATOM      4  C   UNL     1      62.089  68.380  67.945  0.00  0.00    +0.000 A 
ATOM      5  C   UNL     1      62.468  70.431  68.513  0.00  0.00    +0.000 A 
ATOM      6  H   UNL     1      64.479  70.439  67.843  0.00  0.00    +0.000 HD
ENDROOT
BRANCH   4   7
ATOM      7  C   UNL     1      61.335  67.150  67.827  0.00  0.00    +0.000 A 
ATOM      8  C   UNL     1      61.105  66.329  68.933  0.00  0.00    +0.000 A 
ATOM      9  C   UNL     1      60.338  65.173  68.810  0.00  0.00    +0.000 A 
ATOM     10  C   UNL     1      59.787  64.851  67.575  0.00  0.00    +0.000 A 
ATOM     11  F   UNL     1      59.053  63.738  67.452  0.00  0.00    +0.000 F 
ATOM     12  C   UNL     1      59.988  65.664  66.466  0.00  0.00    +0.000 A 
ATOM     13  C   UNL     1      60.757  66.818  66.598  0.00  0.00    +0.000 A 
ENDBRANCH   4   7
BRANCH   3  15
ATOM     14  N   UNL     1      66.351  66.288  65.546  0.00  0.00    +0.000 NA
ATOM     15  C   UNL     1      64.422  67.837  66.872  0.00  0.00    +0.000 A 
ATOM     16  C   UNL     1      65.515  67.318  67.564  0.00  0.00    +0.000 A 
ATOM     17  C   UNL     1      64.299  67.562  65.510  0.00  0.00    +0.000 A 
ATOM     18  C   UNL     1      66.442  66.563  66.865  0.00  0.00    +0.000 A 
ATOM     19  C   UNL     1      65.282  66.798  64.901  0.00  0.00    +0.000 A 
ENDBRANCH   3  15
BRANCH   5  20
ATOM     20  C   UNL     1      62.335  71.793  69.018  0.00  0.00    +0.000 A 
ATOM     21  C   UNL     1      61.148  72.500  68.804  0.00  0.00    +0.000 A 
ATOM     22  C   UNL     1      63.374  72.414  69.718  0.00  0.00    +0.000 A 
ATOM     23  C   UNL     1      60.998  73.801  69.277  0.00  0.00    +0.000 A 
ATOM     24  C   UNL     1      63.234  73.715  70.195  0.00  0.00    +0.000 A 
ATOM     25  C   UNL     1      62.045  74.398  69.971  0.00  0.00    +0.000 A 
BRANCH  25  26
ATOM     26  O   UNL     1      61.929  75.671  70.447  0.00  0.00    +0.000 OA
ATOM     27  H   UNL     1      61.856  75.628  71.417  0.00  0.00    +0.000 HD
ENDBRANCH  25  26
ENDBRANCH   5  20
TORSDOF 4
ENDMDL
