MODEL 1
REMARK VINA RESULT:      -6.4      0.000      0.000
REMARK  Name = Simvastatin.pdbqt.pdb
REMARK  7 active torsions:
REMARK  status: ('A' for Active; 'I' for Inactive)
REMARK    1  A    between atoms: C_2  and  C_13
REMARK    2  A    between atoms: C_3  and  O_24
REMARK    3  A    between atoms: C_14  and  C_15
REMARK    4  A    between atoms: C_20  and  O_22
REMARK    5  A    between atoms: O_24  and  C_25
REMARK    6  A    between atoms: C_25  and  C_27
REMARK    7  A    between atoms: C_27  and  C_30
REMARK                            x       y       z     vdW  Elec       q    Type
REMARK                         _______ _______ _______ _____ _____    ______ ____
ROOT
ATOM      1  C   UNL     1      58.805  66.405  69.233  0.00  0.00    +0.000 A 
ATOM      2  C   UNL     1      57.345  66.367  69.631  0.00  0.00    +0.000 A 
ATOM      3  C   UNL     1      59.390  65.769  68.000  0.00  0.00    +0.000 A 
ATOM      4  C   UNL     1      56.846  67.271  70.702  0.00  0.00    +0.000 A 
ATOM      5  C   UNL     1      59.748  67.234  70.132  0.00  0.00    +0.000 A 
ATOM      6  C   UNL     1      60.787  66.077  67.855  0.00  0.00    +0.000 A 
ATOM      7  C   UNL     1      61.710  66.877  68.600  0.00  0.00    +0.000 A 
ATOM      8  C   UNL     1      60.971  67.378  69.714  0.00  0.00    +0.000 A 
ATOM      9  C   UNL     1      57.894  68.026  71.303  0.00  0.00    +0.000 A 
ATOM     10  C   UNL     1      59.074  68.026  71.087  0.00  0.00    +0.000 A 
ATOM     11  C   UNL     1      55.435  67.381  71.192  0.00  0.00    +0.000 C 
ATOM     12  C   UNL     1      62.682  67.756  67.881  0.00  0.00    +0.000 C 
ENDROOT
BRANCH   2  13
ATOM     13  C   UNL     1      56.516  65.320  69.131  0.00  0.00    +0.000 C 
ATOM     14  C   UNL     1      55.657  64.202  68.527  0.00  0.00    +0.000 C 
BRANCH  14  15
ATOM     15  C   UNL     1      54.906  63.166  67.923  0.00  0.00    +0.000 C 
ATOM     16  O   UNL     1      55.309  61.805  68.180  0.00  0.00    +0.000 OA
ATOM     17  C   UNL     1      54.640  60.740  67.568  0.00  0.00    +0.000 C 
ATOM     18  O   UNL     1      54.925  59.564  67.739  0.00  0.00    +0.000 OA
ATOM     19  C   UNL     1      53.567  61.145  66.694  0.00  0.00    +0.000 C 
ATOM     20  C   UNL     1      53.045  62.401  66.317  0.00  0.00    +0.000 C 
ATOM     21  C   UNL     1      53.824  63.346  67.021  0.00  0.00    +0.000 C 
BRANCH  20  22
ATOM     22  O   UNL     1      52.565  62.623  65.060  0.00  0.00    +0.000 OA
ATOM     23  H   UNL     1      52.151  61.828  64.672  0.00  0.00    +0.000 HD
ENDBRANCH  20  22
ENDBRANCH  14  15
ENDBRANCH   2  13
BRANCH   3  24
ATOM     24  O   UNL     1      58.579  65.827  66.863  0.00  0.00    +0.000 OA
BRANCH  24  25
ATOM     25  C   UNL     1      58.380  64.583  66.292  0.00  0.00    +0.000 C 
ATOM     26  O   UNL     1      58.837  63.538  66.759  0.00  0.00    +0.000 OA
BRANCH  25  27
ATOM     27  C   UNL     1      57.526  64.698  64.981  0.00  0.00    +0.000 C 
ATOM     28  C   UNL     1      58.452  65.156  63.793  0.00  0.00    +0.000 C 
ATOM     29  C   UNL     1      56.363  65.756  65.153  0.00  0.00    +0.000 C 
BRANCH  27  30
ATOM     30  C   UNL     1      56.939  63.354  64.717  0.00  0.00    +0.000 C 
ATOM     31  C   UNL     1      56.366  61.929  64.462  0.00  0.00    +0.000 C 
ENDBRANCH  27  30
ENDBRANCH  25  27
ENDBRANCH  24  25
ENDBRANCH   3  24
TORSDOF 7
ENDMDL
MODEL 2
REMARK VINA RESULT:      -6.1      1.148      1.772
REMARK  Name = Simvastatin.pdbqt.pdb
REMARK  7 active torsions:
REMARK  status: ('A' for Active; 'I' for Inactive)
REMARK    1  A    between atoms: C_2  and  C_13
REMARK    2  A    between atoms: C_3  and  O_24
REMARK    3  A    between atoms: C_14  and  C_15
REMARK    4  A    between atoms: C_20  and  O_22
REMARK    5  A    between atoms: O_24  and  C_25
REMARK    6  A    between atoms: C_25  and  C_27
REMARK    7  A    between atoms: C_27  and  C_30
REMARK                            x       y       z     vdW  Elec       q    Type
REMARK                         _______ _______ _______ _____ _____    ______ ____
ROOT
ATOM      1  C   UNL     1      58.798  66.306  69.172  0.00  0.00    +0.000 A 
ATOM      2  C   UNL     1      57.338  66.154  69.540  0.00  0.00    +0.000 A 
ATOM      3  C   UNL     1      59.447  65.752  67.931  0.00  0.00    +0.000 A 
ATOM      4  C   UNL     1      56.760  66.987  70.629  0.00  0.00    +0.000 A 
ATOM      5  C   UNL     1      59.666  67.169  70.113  0.00  0.00    +0.000 A 
ATOM      6  C   UNL     1      60.821  66.161  67.822  0.00  0.00    +0.000 A 
ATOM      7  C   UNL     1      61.673  66.998  68.609  0.00  0.00    +0.000 A 
ATOM      8  C   UNL     1      60.883  67.411  69.723  0.00  0.00    +0.000 A 
ATOM      9  C   UNL     1      57.742  67.793  71.273  0.00  0.00    +0.000 A 
ATOM     10  C   UNL     1      58.922  67.881  71.080  0.00  0.00    +0.000 A 
ATOM     11  C   UNL     1      55.336  66.983  71.095  0.00  0.00    +0.000 C 
ATOM     12  C   UNL     1      62.594  67.965  67.936  0.00  0.00    +0.000 C 
ENDROOT
BRANCH   2  13
ATOM     13  C   UNL     1      56.594  65.069  68.993  0.00  0.00    +0.000 C 
ATOM     14  C   UNL     1      55.813  63.923  68.337  0.00  0.00    +0.000 C 
BRANCH  14  15
ATOM     15  C   UNL     1      55.127  62.874  67.679  0.00  0.00    +0.000 C 
ATOM     16  O   UNL     1      55.685  62.376  66.444  0.00  0.00    +0.000 OA
ATOM     17  C   UNL     1      55.025  61.378  65.720  0.00  0.00    +0.000 C 
ATOM     18  O   UNL     1      55.437  60.909  64.670  0.00  0.00    +0.000 OA
ATOM     19  C   UNL     1      53.789  60.939  66.318  0.00  0.00    +0.000 C 
ATOM     20  C   UNL     1      53.093  61.308  67.489  0.00  0.00    +0.000 C 
ATOM     21  C   UNL     1      53.892  62.307  68.088  0.00  0.00    +0.000 C 
BRANCH  20  22
ATOM     22  O   UNL     1      51.730  61.323  67.532  0.00  0.00    +0.000 OA
ATOM     23  H   UNL     1      51.375  60.852  68.310  0.00  0.00    +0.000 HD
ENDBRANCH  20  22
ENDBRANCH  14  15
ENDBRANCH   2  13
BRANCH   3  24
ATOM     24  O   UNL     1      58.653  65.789  66.781  0.00  0.00    +0.000 OA
BRANCH  24  25
ATOM     25  C   UNL     1      58.596  64.566  66.138  0.00  0.00    +0.000 C 
ATOM     26  O   UNL     1      58.857  63.495  66.689  0.00  0.00    +0.000 OA
BRANCH  25  27
ATOM     27  C   UNL     1      58.184  64.742  64.635  0.00  0.00    +0.000 C 
ATOM     28  C   UNL     1      56.861  65.592  64.552  0.00  0.00    +0.000 C 
ATOM     29  C   UNL     1      57.928  63.339  63.950  0.00  0.00    +0.000 C 
BRANCH  27  30
ATOM     30  C   UNL     1      59.310  65.433  63.946  0.00  0.00    +0.000 C 
ATOM     31  C   UNL     1      60.490  66.186  63.263  0.00  0.00    +0.000 C 
ENDBRANCH  27  30
ENDBRANCH  25  27
ENDBRANCH  24  25
ENDBRANCH   3  24
TORSDOF 7
ENDMDL
MODEL 3
REMARK VINA RESULT:      -5.9     23.318     26.665
REMARK  Name = Simvastatin.pdbqt.pdb
REMARK  7 active torsions:
REMARK  status: ('A' for Active; 'I' for Inactive)
REMARK    1  A    between atoms: C_2  and  C_13
REMARK    2  A    between atoms: C_3  and  O_24
REMARK    3  A    between atoms: C_14  and  C_15
REMARK    4  A    between atoms: C_20  and  O_22
REMARK    5  A    between atoms: O_24  and  C_25
REMARK    6  A    between atoms: C_25  and  C_27
REMARK    7  A    between atoms: C_27  and  C_30
REMARK                            x       y       z     vdW  Elec       q    Type
REMARK                         _______ _______ _______ _____ _____    ______ ____
ROOT
ATOM      1  C   UNL     1      65.044  45.547  54.762  0.00  0.00    +0.000 A 
ATOM      2  C   UNL     1      63.572  45.359  54.461  0.00  0.00    +0.000 A 
ATOM      3  C   UNL     1      66.122  44.526  54.509  0.00  0.00    +0.000 A 
ATOM      4  C   UNL     1      62.658  46.533  54.479  0.00  0.00    +0.000 A 
ATOM      5  C   UNL     1      65.473  46.930  55.296  0.00  0.00    +0.000 A 
ATOM      6  C   UNL     1      67.429  45.050  54.803  0.00  0.00    +0.000 A 
ATOM      7  C   UNL     1      67.912  46.324  55.239  0.00  0.00    +0.000 A 
ATOM      8  C   UNL     1      66.751  47.133  55.423  0.00  0.00    +0.000 A 
ATOM      9  C   UNL     1      63.319  47.726  54.892  0.00  0.00    +0.000 A 
ATOM     10  C   UNL     1      64.456  47.907  55.226  0.00  0.00    +0.000 A 
ATOM     11  C   UNL     1      61.191  46.527  54.176  0.00  0.00    +0.000 C 
ATOM     12  C   UNL     1      69.146  46.902  54.624  0.00  0.00    +0.000 C 
ENDROOT
BRANCH   2  13
ATOM     13  C   UNL     1      63.043  44.038  54.380  0.00  0.00    +0.000 C 
ATOM     14  C   UNL     1      62.530  42.593  54.334  0.00  0.00    +0.000 C 
BRANCH  14  15
ATOM     15  C   UNL     1      62.092  41.247  54.344  0.00  0.00    +0.000 C 
ATOM     16  O   UNL     1      61.711  40.654  53.085  0.00  0.00    +0.000 OA
ATOM     17  C   UNL     1      61.220  39.346  53.038  0.00  0.00    +0.000 C 
ATOM     18  O   UNL     1      60.878  38.780  52.010  0.00  0.00    +0.000 OA
ATOM     19  C   UNL     1      61.138  38.702  54.325  0.00  0.00    +0.000 C 
ATOM     20  C   UNL     1      61.448  39.117  55.638  0.00  0.00    +0.000 C 
ATOM     21  C   UNL     1      61.926  40.439  55.499  0.00  0.00    +0.000 C 
BRANCH  20  22
ATOM     22  O   UNL     1      60.709  38.703  56.708  0.00  0.00    +0.000 OA
ATOM     23  H   UNL     1      59.950  39.291  56.888  0.00  0.00    +0.000 HD
ENDBRANCH  20  22
ENDBRANCH  14  15
ENDBRANCH   2  13
BRANCH   3  24
ATOM     24  O   UNL     1      65.961  43.769  53.345  0.00  0.00    +0.000 OA
BRANCH  24  25
ATOM     25  C   UNL     1      66.247  42.431  53.541  0.00  0.00    +0.000 C 
ATOM     26  O   UNL     1      66.766  41.989  54.568  0.00  0.00    +0.000 OA
BRANCH  25  27
ATOM     27  C   UNL     1      65.847  41.581  52.285  0.00  0.00    +0.000 C 
ATOM     28  C   UNL     1      67.103  41.403  51.352  0.00  0.00    +0.000 C 
ATOM     29  C   UNL     1      64.701  42.296  51.460  0.00  0.00    +0.000 C 
BRANCH  27  30
ATOM     30  C   UNL     1      65.354  40.265  52.780  0.00  0.00    +0.000 C 
ATOM     31  C   UNL     1      64.836  38.875  53.252  0.00  0.00    +0.000 C 
ENDBRANCH  27  30
ENDBRANCH  25  27
ENDBRANCH  24  25
ENDBRANCH   3  24
TORSDOF 7
ENDMDL
MODEL 4
REMARK VINA RESULT:      -5.8     23.236     26.181
REMARK  Name = Simvastatin.pdbqt.pdb
REMARK  7 active torsions:
REMARK  status: ('A' for Active; 'I' for Inactive)
REMARK    1  A    between atoms: C_2  and  C_13
REMARK    2  A    between atoms: C_3  and  O_24
REMARK    3  A    between atoms: C_14  and  C_15
REMARK    4  A    between atoms: C_20  and  O_22
REMARK    5  A    between atoms: O_24  and  C_25
REMARK    6  A    between atoms: C_25  and  C_27
REMARK    7  A    between atoms: C_27  and  C_30
REMARK                            x       y       z     vdW  Elec       q    Type
REMARK                         _______ _______ _______ _____ _____    ______ ____
ROOT
ATOM      1  C   UNL     1      65.019  45.716  54.902  0.00  0.00    +0.000 A 
ATOM      2  C   UNL     1      63.695  45.307  54.291  0.00  0.00    +0.000 A 
ATOM      3  C   UNL     1      66.255  44.859  54.958  0.00  0.00    +0.000 A 
ATOM      4  C   UNL     1      62.650  46.334  54.034  0.00  0.00    +0.000 A 
ATOM      5  C   UNL     1      65.121  47.161  55.435  0.00  0.00    +0.000 A 
ATOM      6  C   UNL     1      67.375  45.576  55.505  0.00  0.00    +0.000 A 
ATOM      7  C   UNL     1      67.567  46.918  55.962  0.00  0.00    +0.000 A 
ATOM      8  C   UNL     1      66.295  47.553  55.832  0.00  0.00    +0.000 A 
ATOM      9  C   UNL     1      63.029  47.622  54.513  0.00  0.00    +0.000 A 
ATOM     10  C   UNL     1      64.023  47.977  55.081  0.00  0.00    +0.000 A 
ATOM     11  C   UNL     1      61.307  46.105  53.412  0.00  0.00    +0.000 C 
ATOM     12  C   UNL     1      68.818  47.654  55.604  0.00  0.00    +0.000 C 
ENDROOT
BRANCH   2  13
ATOM     13  C   UNL     1      63.385  43.920  54.173  0.00  0.00    +0.000 C 
ATOM     14  C   UNL     1      63.052  42.424  54.119  0.00  0.00    +0.000 C 
BRANCH  14  15
ATOM     15  C   UNL     1      62.726  41.047  54.130  0.00  0.00    +0.000 C 
ATOM     16  O   UNL     1      61.370  40.679  54.460  0.00  0.00    +0.000 OA
ATOM     17  C   UNL     1      61.001  39.333  54.540  0.00  0.00    +0.000 C 
ATOM     18  O   UNL     1      59.874  38.947  54.813  0.00  0.00    +0.000 OA
ATOM     19  C   UNL     1      62.078  38.411  54.275  0.00  0.00    +0.000 C 
ATOM     20  C   UNL     1      63.442  38.581  53.954  0.00  0.00    +0.000 C 
ATOM     21  C   UNL     1      63.636  39.979  53.912  0.00  0.00    +0.000 C 
BRANCH  20  22
ATOM     22  O   UNL     1      64.392  37.712  54.405  0.00  0.00    +0.000 OA
ATOM     23  H   UNL     1      64.064  37.141  55.126  0.00  0.00    +0.000 HD
ENDBRANCH  20  22
ENDBRANCH  14  15
ENDBRANCH   2  13
BRANCH   3  24
ATOM     24  O   UNL     1      66.471  44.055  53.835  0.00  0.00    +0.000 OA
BRANCH  24  25
ATOM     25  C   UNL     1      67.540  44.487  53.072  0.00  0.00    +0.000 C 
ATOM     26  O   UNL     1      68.716  44.385  53.429  0.00  0.00    +0.000 OA
BRANCH  25  27
ATOM     27  C   UNL     1      67.048  45.132  51.730  0.00  0.00    +0.000 C 
ATOM     28  C   UNL     1      65.662  44.501  51.326  0.00  0.00    +0.000 C 
ATOM     29  C   UNL     1      68.083  44.870  50.562  0.00  0.00    +0.000 C 
BRANCH  27  30
ATOM     30  C   UNL     1      66.923  46.598  51.964  0.00  0.00    +0.000 C 
ATOM     31  C   UNL     1      66.764  48.121  52.247  0.00  0.00    +0.000 C 
ENDBRANCH  27  30
ENDBRANCH  25  27
ENDBRANCH  24  25
ENDBRANCH   3  24
TORSDOF 7
ENDMDL
MODEL 5
REMARK VINA RESULT:      -5.6      4.431      7.844
REMARK  Name = Simvastatin.pdbqt.pdb
REMARK  7 active torsions:
REMARK  status: ('A' for Active; 'I' for Inactive)
REMARK    1  A    between atoms: C_2  and  C_13
REMARK    2  A    between atoms: C_3  and  O_24
REMARK    3  A    between atoms: C_14  and  C_15
REMARK    4  A    between atoms: C_20  and  O_22
REMARK    5  A    between atoms: O_24  and  C_25
REMARK    6  A    between atoms: C_25  and  C_27
REMARK    7  A    between atoms: C_27  and  C_30
REMARK                            x       y       z     vdW  Elec       q    Type
REMARK                         _______ _______ _______ _____ _____    ______ ____
ROOT
ATOM      1  C   UNL     1      64.075  71.657  68.601  0.00  0.00    +0.000 A 
ATOM      2  C   UNL     1      62.571  71.753  68.743  0.00  0.00    +0.000 A 
ATOM      3  C   UNL     1      64.824  70.483  68.026  0.00  0.00    +0.000 A 
ATOM      4  C   UNL     1      61.939  73.065  69.047  0.00  0.00    +0.000 A 
ATOM      5  C   UNL     1      64.893  72.902  69.007  0.00  0.00    +0.000 A 
ATOM      6  C   UNL     1      66.234  70.747  67.931  0.00  0.00    +0.000 A 
ATOM      7  C   UNL     1      67.054  71.882  68.226  0.00  0.00    +0.000 A 
ATOM      8  C   UNL     1      66.168  72.868  68.756  0.00  0.00    +0.000 A 
ATOM      9  C   UNL     1      62.903  74.091  69.266  0.00  0.00    +0.000 A 
ATOM     10  C   UNL     1      64.102  74.046  69.254  0.00  0.00    +0.000 A 
ATOM     11  C   UNL     1      60.473  73.338  69.190  0.00  0.00    +0.000 C 
ATOM     12  C   UNL     1      68.146  72.276  67.284  0.00  0.00    +0.000 C 
ENDROOT
BRANCH   2  13
ATOM     13  C   UNL     1      61.802  70.554  68.800  0.00  0.00    +0.000 C 
ATOM     14  C   UNL     1      61.028  69.230  68.827  0.00  0.00    +0.000 C 
BRANCH  14  15
ATOM     15  C   UNL     1      60.370  67.977  68.842  0.00  0.00    +0.000 C 
ATOM     16  O   UNL     1      58.927  67.974  68.830  0.00  0.00    +0.000 OA
ATOM     17  C   UNL     1      58.220  66.770  68.897  0.00  0.00    +0.000 C 
ATOM     18  O   UNL     1      57.001  66.691  68.891  0.00  0.00    +0.000 OA
ATOM     19  C   UNL     1      59.059  65.600  68.982  0.00  0.00    +0.000 C 
ATOM     20  C   UNL     1      60.457  65.410  69.017  0.00  0.00    +0.000 C 
ATOM     21  C   UNL     1      61.004  66.710  68.938  0.00  0.00    +0.000 C 
BRANCH  20  22
ATOM     22  O   UNL     1      61.021  64.411  69.756  0.00  0.00    +0.000 OA
ATOM     23  H   UNL     1      61.610  64.751  70.456  0.00  0.00    +0.000 HD
ENDBRANCH  20  22
ENDBRANCH  14  15
ENDBRANCH   2  13
BRANCH   3  24
ATOM     24  O   UNL     1      64.196  69.850  66.949  0.00  0.00    +0.000 OA
BRANCH  24  25
ATOM     25  C   UNL     1      64.303  68.473  67.011  0.00  0.00    +0.000 C 
ATOM     26  O   UNL     1      64.163  67.825  68.050  0.00  0.00    +0.000 OA
BRANCH  25  27
ATOM     27  C   UNL     1      64.643  67.873  65.602  0.00  0.00    +0.000 C 
ATOM     28  C   UNL     1      65.111  69.030  64.641  0.00  0.00    +0.000 C 
ATOM     29  C   UNL     1      63.378  67.167  64.966  0.00  0.00    +0.000 C 
BRANCH  27  30
ATOM     30  C   UNL     1      65.725  66.868  65.800  0.00  0.00    +0.000 C 
ATOM     31  C   UNL     1      66.839  65.809  66.051  0.00  0.00    +0.000 C 
ENDBRANCH  27  30
ENDBRANCH  25  27
ENDBRANCH  24  25
ENDBRANCH   3  24
TORSDOF 7
ENDMDL
MODEL 6
REMARK VINA RESULT:      -5.6     23.435     25.997
REMARK  Name = Simvastatin.pdbqt.pdb
REMARK  7 active torsions:
REMARK  status: ('A' for Active; 'I' for Inactive)
REMARK    1  A    between atoms: C_2  and  C_13
REMARK    2  A    between atoms: C_3  and  O_24
REMARK    3  A    between atoms: C_14  and  C_15
REMARK    4  A    between atoms: C_20  and  O_22
REMARK    5  A    between atoms: O_24  and  C_25
REMARK    6  A    between atoms: C_25  and  C_27
REMARK    7  A    between atoms: C_27  and  C_30
REMARK                            x       y       z     vdW  Elec       q    Type
REMARK                         _______ _______ _______ _____ _____    ______ ____
ROOT
ATOM      1  C   UNL     1      50.018  40.615  70.822  0.00  0.00    +0.000 A 
ATOM      2  C   UNL     1      48.950  39.626  70.406  0.00  0.00    +0.000 A 
ATOM      3  C   UNL     1      49.769  42.028  71.279  0.00  0.00    +0.000 A 
ATOM      4  C   UNL     1      49.292  38.186  70.260  0.00  0.00    +0.000 A 
ATOM      5  C   UNL     1      51.472  40.095  70.851  0.00  0.00    +0.000 A 
ATOM      6  C   UNL     1      50.983  42.671  71.704  0.00  0.00    +0.000 A 
ATOM      7  C   UNL     1      52.344  42.246  71.818  0.00  0.00    +0.000 A 
ATOM      8  C   UNL     1      52.368  40.902  71.338  0.00  0.00    +0.000 A 
ATOM      9  C   UNL     1      50.682  37.938  70.452  0.00  0.00    +0.000 A 
ATOM     10  C   UNL     1      51.579  38.696  70.692  0.00  0.00    +0.000 A 
ATOM     11  C   UNL     1      48.353  37.079  69.888  0.00  0.00    +0.000 C 
ATOM     12  C   UNL     1      53.147  42.633  73.019  0.00  0.00    +0.000 C 
ENDROOT
BRANCH   2  13
ATOM     13  C   UNL     1      47.691  40.116  69.952  0.00  0.00    +0.000 C 
ATOM     14  C   UNL     1      46.306  40.580  69.483  0.00  0.00    +0.000 C 
BRANCH  14  15
ATOM     15  C   UNL     1      45.002  40.961  69.087  0.00  0.00    +0.000 C 
ATOM     16  O   UNL     1      43.946  40.864  70.065  0.00  0.00    +0.000 OA
ATOM     17  C   UNL     1      42.627  41.176  69.718  0.00  0.00    +0.000 C 
ATOM     18  O   UNL     1      41.684  41.117  70.492  0.00  0.00    +0.000 OA
ATOM     19  C   UNL     1      42.461  41.575  68.343  0.00  0.00    +0.000 C 
ATOM     20  C   UNL     1      43.353  41.716  67.259  0.00  0.00    +0.000 C 
ATOM     21  C   UNL     1      44.619  41.370  67.782  0.00  0.00    +0.000 C 
BRANCH  20  22
ATOM     22  O   UNL     1      42.973  41.425  65.982  0.00  0.00    +0.000 OA
ATOM     23  H   UNL     1      43.349  42.047  65.329  0.00  0.00    +0.000 HD
ENDBRANCH  20  22
ENDBRANCH  14  15
ENDBRANCH   2  13
BRANCH   3  24
ATOM     24  O   UNL     1      48.620  42.205  72.056  0.00  0.00    +0.000 OA
BRANCH  24  25
ATOM     25  C   UNL     1      47.707  43.058  71.463  0.00  0.00    +0.000 C 
ATOM     26  O   UNL     1      47.881  43.581  70.360  0.00  0.00    +0.000 OA
BRANCH  25  27
ATOM     27  C   UNL     1      46.460  43.275  72.388  0.00  0.00    +0.000 C 
ATOM     28  C   UNL     1      46.849  44.236  73.573  0.00  0.00    +0.000 C 
ATOM     29  C   UNL     1      45.958  41.902  72.994  0.00  0.00    +0.000 C 
BRANCH  27  30
ATOM     30  C   UNL     1      45.384  43.869  71.546  0.00  0.00    +0.000 C 
ATOM     31  C   UNL     1      44.235  44.447  70.667  0.00  0.00    +0.000 C 
ENDBRANCH  27  30
ENDBRANCH  25  27
ENDBRANCH  24  25
ENDBRANCH   3  24
TORSDOF 7
ENDMDL
MODEL 7
REMARK VINA RESULT:      -5.6     22.300     26.047
REMARK  Name = Simvastatin.pdbqt.pdb
REMARK  7 active torsions:
REMARK  status: ('A' for Active; 'I' for Inactive)
REMARK    1  A    between atoms: C_2  and  C_13
REMARK    2  A    between atoms: C_3  and  O_24
REMARK    3  A    between atoms: C_14  and  C_15
REMARK    4  A    between atoms: C_20  and  O_22
REMARK    5  A    between atoms: O_24  and  C_25
REMARK    6  A    between atoms: C_25  and  C_27
REMARK    7  A    between atoms: C_27  and  C_30
REMARK                            x       y       z     vdW  Elec       q    Type
REMARK                         _______ _______ _______ _____ _____    ______ ____
ROOT
ATOM      1  C   UNL     1      76.932  63.006  79.930  0.00  0.00    +0.000 A 
ATOM      2  C   UNL     1      77.165  63.150  81.419  0.00  0.00    +0.000 A 
ATOM      3  C   UNL     1      77.732  63.688  78.852  0.00  0.00    +0.000 A 
ATOM      4  C   UNL     1      76.508  62.208  82.364  0.00  0.00    +0.000 A 
ATOM      5  C   UNL     1      75.833  62.014  79.491  0.00  0.00    +0.000 A 
ATOM      6  C   UNL     1      77.329  63.260  77.540  0.00  0.00    +0.000 A 
ATOM      7  C   UNL     1      76.374  62.312  77.054  0.00  0.00    +0.000 A 
ATOM      8  C   UNL     1      75.729  61.789  78.215  0.00  0.00    +0.000 A 
ATOM      9  C   UNL     1      75.627  61.305  81.703  0.00  0.00    +0.000 A 
ATOM     10  C   UNL     1      75.340  61.210  80.542  0.00  0.00    +0.000 A 
ATOM     11  C   UNL     1      76.655  62.192  83.855  0.00  0.00    +0.000 C 
ATOM     12  C   UNL     1      76.732  61.409  75.918  0.00  0.00    +0.000 C 
ENDROOT
BRANCH   2  13
ATOM     13  C   UNL     1      77.830  64.313  81.907  0.00  0.00    +0.000 C 
ATOM     14  C   UNL     1      78.607  65.525  82.433  0.00  0.00    +0.000 C 
BRANCH  14  15
ATOM     15  C   UNL     1      79.379  66.617  82.896  0.00  0.00    +0.000 C 
ATOM     16  O   UNL     1      79.337  66.922  84.306  0.00  0.00    +0.000 OA
ATOM     17  C   UNL     1      80.036  68.021  84.815  0.00  0.00    +0.000 C 
ATOM     18  O   UNL     1      80.046  68.338  85.995  0.00  0.00    +0.000 OA
ATOM     19  C   UNL     1      80.755  68.773  83.817  0.00  0.00    +0.000 C 
ATOM     20  C   UNL     1      80.903  68.637  82.420  0.00  0.00    +0.000 C 
ATOM     21  C   UNL     1      80.146  67.493  82.083  0.00  0.00    +0.000 C 
BRANCH  20  22
ATOM     22  O   UNL     1      81.003  69.728  81.606  0.00  0.00    +0.000 OA
ATOM     23  H   UNL     1      80.271  70.361  81.738  0.00  0.00    +0.000 HD
ENDBRANCH  20  22
ENDBRANCH  14  15
ENDBRANCH   2  13
BRANCH   3  24
ATOM     24  O   UNL     1      79.099  63.810  79.117  0.00  0.00    +0.000 OA
BRANCH  24  25
ATOM     25  C   UNL     1      79.576  65.083  78.862  0.00  0.00    +0.000 C 
ATOM     26  O   UNL     1      78.848  66.042  78.598  0.00  0.00    +0.000 OA
BRANCH  25  27
ATOM     27  C   UNL     1      81.142  65.121  78.934  0.00  0.00    +0.000 C 
ATOM     28  C   UNL     1      81.635  66.611  78.808  0.00  0.00    +0.000 C 
ATOM     29  C   UNL     1      81.784  64.274  77.762  0.00  0.00    +0.000 C 
BRANCH  27  30
ATOM     30  C   UNL     1      81.538  64.533  80.245  0.00  0.00    +0.000 C 
ATOM     31  C   UNL     1      81.904  63.915  81.627  0.00  0.00    +0.000 C 
ENDBRANCH  27  30
ENDBRANCH  25  27
ENDBRANCH  24  25
ENDBRANCH   3  24
TORSDOF 7
ENDMDL
MODEL 8
REMARK VINA RESULT:      -5.5     24.382     26.431
REMARK  Name = Simvastatin.pdbqt.pdb
REMARK  7 active torsions:
REMARK  status: ('A' for Active; 'I' for Inactive)
REMARK    1  A    between atoms: C_2  and  C_13
REMARK    2  A    between atoms: C_3  and  O_24
REMARK    3  A    between atoms: C_14  and  C_15
REMARK    4  A    between atoms: C_20  and  O_22
REMARK    5  A    between atoms: O_24  and  C_25
REMARK    6  A    between atoms: C_25  and  C_27
REMARK    7  A    between atoms: C_27  and  C_30
REMARK                            x       y       z     vdW  Elec       q    Type
REMARK                         _______ _______ _______ _____ _____    ______ ____
ROOT
ATOM      1  C   UNL     1      60.071  39.113  68.586  0.00  0.00    +0.000 A 
ATOM      2  C   UNL     1      58.728  38.489  68.275  0.00  0.00    +0.000 A 
ATOM      3  C   UNL     1      60.394  39.921  69.816  0.00  0.00    +0.000 A 
ATOM      4  C   UNL     1      58.615  37.479  67.189  0.00  0.00    +0.000 A 
ATOM      5  C   UNL     1      61.218  38.823  67.595  0.00  0.00    +0.000 A 
ATOM      6  C   UNL     1      61.786  40.280  69.865  0.00  0.00    +0.000 A 
ATOM      7  C   UNL     1      62.913  40.003  69.028  0.00  0.00    +0.000 A 
ATOM      8  C   UNL     1      62.401  39.243  67.934  0.00  0.00    +0.000 A 
ATOM      9  C   UNL     1      59.843  37.297  66.491  0.00  0.00    +0.000 A 
ATOM     10  C   UNL     1      60.907  37.830  66.640  0.00  0.00    +0.000 A 
ATOM     11  C   UNL     1      57.374  36.747  66.776  0.00  0.00    +0.000 C 
ATOM     12  C   UNL     1      64.228  39.649  69.644  0.00  0.00    +0.000 C 
ENDROOT
BRANCH   2  13
ATOM     13  C   UNL     1      57.554  39.034  68.875  0.00  0.00    +0.000 C 
ATOM     14  C   UNL     1      56.291  39.563  69.565  0.00  0.00    +0.000 C 
BRANCH  14  15
ATOM     15  C   UNL     1      55.138  40.012  70.252  0.00  0.00    +0.000 C 
ATOM     16  O   UNL     1      53.864  39.876  69.590  0.00  0.00    +0.000 OA
ATOM     17  C   UNL     1      52.696  40.351  70.195  0.00  0.00    +0.000 C 
ATOM     18  O   UNL     1      51.584  40.270  69.695  0.00  0.00    +0.000 OA
ATOM     19  C   UNL     1      52.909  40.964  71.483  0.00  0.00    +0.000 C 
ATOM     20  C   UNL     1      54.058  41.193  72.269  0.00  0.00    +0.000 C 
ATOM     21  C   UNL     1      55.127  40.655  71.518  0.00  0.00    +0.000 C 
BRANCH  20  22
ATOM     22  O   UNL     1      54.181  42.312  73.040  0.00  0.00    +0.000 OA
ATOM     23  H   UNL     1      53.348  42.549  73.490  0.00  0.00    +0.000 HD
ENDBRANCH  20  22
ENDBRANCH  14  15
ENDBRANCH   2  13
BRANCH   3  24
ATOM     24  O   UNL     1      59.784  39.478  70.993  0.00  0.00    +0.000 OA
BRANCH  24  25
ATOM     25  C   UNL     1      60.683  38.893  71.867  0.00  0.00    +0.000 C 
ATOM     26  O   UNL     1      61.516  39.531  72.515  0.00  0.00    +0.000 OA
BRANCH  25  27
ATOM     27  C   UNL     1      60.507  37.335  71.894  0.00  0.00    +0.000 C 
ATOM     28  C   UNL     1      59.016  36.972  71.538  0.00  0.00    +0.000 C 
ATOM     29  C   UNL     1      60.842  36.751  73.325  0.00  0.00    +0.000 C 
BRANCH  27  30
ATOM     30  C   UNL     1      61.452  36.766  70.892  0.00  0.00    +0.000 C 
ATOM     31  C   UNL     1      62.428  36.127  69.861  0.00  0.00    +0.000 C 
ENDBRANCH  27  30
ENDBRANCH  25  27
ENDBRANCH  24  25
ENDBRANCH   3  24
TORSDOF 7
ENDMDL
MODEL 9
REMARK VINA RESULT:      -5.5     22.224     25.825
REMARK  Name = Simvastatin.pdbqt.pdb
REMARK  7 active torsions:
REMARK  status: ('A' for Active; 'I' for Inactive)
REMARK    1  A    between atoms: C_2  and  C_13
REMARK    2  A    between atoms: C_3  and  O_24
REMARK    3  A    between atoms: C_14  and  C_15
REMARK    4  A    between atoms: C_20  and  O_22
REMARK    5  A    between atoms: O_24  and  C_25
REMARK    6  A    between atoms: C_25  and  C_27
REMARK    7  A    between atoms: C_27  and  C_30
REMARK                            x       y       z     vdW  Elec       q    Type
REMARK                         _______ _______ _______ _____ _____    ______ ____
ROOT
ATOM      1  C   UNL     1      76.873  62.990  80.013  0.00  0.00    +0.000 A 
ATOM      2  C   UNL     1      77.162  63.108  81.494  0.00  0.00    +0.000 A 
ATOM      3  C   UNL     1      77.614  63.713  78.919  0.00  0.00    +0.000 A 
ATOM      4  C   UNL     1      76.565  62.132  82.444  0.00  0.00    +0.000 A 
ATOM      5  C   UNL     1      75.781  61.982  79.596  0.00  0.00    +0.000 A 
ATOM      6  C   UNL     1      77.169  63.303  77.615  0.00  0.00    +0.000 A 
ATOM      7  C   UNL     1      76.216  62.343  77.147  0.00  0.00    +0.000 A 
ATOM      8  C   UNL     1      75.630  61.781  78.321  0.00  0.00    +0.000 A 
ATOM      9  C   UNL     1      75.679  61.223  81.799  0.00  0.00    +0.000 A 
ATOM     10  C   UNL     1      75.348  61.145  80.649  0.00  0.00    +0.000 A 
ATOM     11  C   UNL     1      76.773  62.089  83.927  0.00  0.00    +0.000 C 
ATOM     12  C   UNL     1      76.549  61.473  75.978  0.00  0.00    +0.000 C 
ENDROOT
BRANCH   2  13
ATOM     13  C   UNL     1      77.820  64.276  81.981  0.00  0.00    +0.000 C 
ATOM     14  C   UNL     1      78.590  65.494  82.506  0.00  0.00    +0.000 C 
BRANCH  14  15
ATOM     15  C   UNL     1      79.355  66.590  82.969  0.00  0.00    +0.000 C 
ATOM     16  O   UNL     1      79.306  66.898  84.378  0.00  0.00    +0.000 OA
ATOM     17  C   UNL     1      79.998  68.002  84.887  0.00  0.00    +0.000 C 
ATOM     18  O   UNL     1      80.001  68.323  86.066  0.00  0.00    +0.000 OA
ATOM     19  C   UNL     1      80.718  68.754  83.890  0.00  0.00    +0.000 C 
ATOM     20  C   UNL     1      80.872  68.615  82.494  0.00  0.00    +0.000 C 
ATOM     21  C   UNL     1      80.122  67.467  82.157  0.00  0.00    +0.000 C 
BRANCH  20  22
ATOM     22  O   UNL     1      80.971  69.704  81.678  0.00  0.00    +0.000 OA
ATOM     23  H   UNL     1      81.859  69.794  81.281  0.00  0.00    +0.000 HD
ENDBRANCH  20  22
ENDBRANCH  14  15
ENDBRANCH   2  13
BRANCH   3  24
ATOM     24  O   UNL     1      78.988  63.861  79.132  0.00  0.00    +0.000 OA
BRANCH  24  25
ATOM     25  C   UNL     1      79.742  63.044  78.309  0.00  0.00    +0.000 C 
ATOM     26  O   UNL     1      79.879  63.236  77.099  0.00  0.00    +0.000 OA
BRANCH  25  27
ATOM     27  C   UNL     1      80.362  61.852  79.119  0.00  0.00    +0.000 C 
ATOM     28  C   UNL     1      80.578  62.294  80.615  0.00  0.00    +0.000 C 
ATOM     29  C   UNL     1      81.758  61.421  78.512  0.00  0.00    +0.000 C 
BRANCH  27  30
ATOM     30  C   UNL     1      79.408  60.712  79.028  0.00  0.00    +0.000 C 
ATOM     31  C   UNL     1      78.442  59.497  78.902  0.00  0.00    +0.000 C 
ENDBRANCH  27  30
ENDBRANCH  25  27
ENDBRANCH  24  25
ENDBRANCH   3  24
TORSDOF 7
ENDMDL
