MODEL 1
REMARK VINA RESULT:      -7.6      0.000      0.000
REMARK  Name = Staurosporine.pdbqt.pdb
REMARK  2 active torsions:
REMARK  status: ('A' for Active; 'I' for Inactive)
REMARK    1  A    between atoms: C_3  and  O_11
REMARK    2  A    between atoms: C_5  and  N_8
REMARK                            x       y       z     vdW  Elec       q    Type
REMARK                         _______ _______ _______ _____ _____    ______ ____
ROOT
ATOM      1  O   UNL     1      61.110  51.648  59.875  0.00  0.00    +0.000 OA
ATOM      2  C   UNL     1      62.083  50.998  59.012  0.00  0.00    +0.000 C 
ATOM      3  C   UNL     1      61.691  50.935  57.522  0.00  0.00    +0.000 C 
ATOM      4  C   UNL     1      60.686  52.876  59.395  0.00  0.00    +0.000 C 
ATOM      5  C   UNL     1      60.724  51.904  57.012  0.00  0.00    +0.000 C 
ATOM      6  C   UNL     1      60.298  52.761  58.043  0.00  0.00    +0.000 C 
ATOM      7  C   UNL     1      62.101  49.523  59.541  0.00  0.00    +0.000 C 
ATOM      8  N   UNL     1      63.384  51.672  59.227  0.00  0.00    +0.000 N 
ATOM      9  C   UNL     1      63.693  52.933  59.672  0.00  0.00    +0.000 A 
ATOM     10  C   UNL     1      62.814  53.989  59.932  0.00  0.00    +0.000 A 
ATOM     11  C   UNL     1      65.040  53.280  59.835  0.00  0.00    +0.000 A 
ATOM     12  N   UNL     1      61.466  53.959  59.742  0.00  0.00    +0.000 N 
ATOM     13  C   UNL     1      63.427  55.204  60.271  0.00  0.00    +0.000 A 
ATOM     14  C   UNL     1      61.160  55.327  59.891  0.00  0.00    +0.000 A 
ATOM     15  C   UNL     1      62.330  56.092  60.251  0.00  0.00    +0.000 A 
ATOM     16  C   UNL     1      59.908  55.949  59.761  0.00  0.00    +0.000 A 
ATOM     17  C   UNL     1      62.175  57.478  60.453  0.00  0.00    +0.000 A 
ATOM     18  C   UNL     1      60.924  58.077  60.319  0.00  0.00    +0.000 A 
ATOM     19  C   UNL     1      59.811  57.323  59.977  0.00  0.00    +0.000 A 
ATOM     20  C   UNL     1      64.779  55.560  60.448  0.00  0.00    +0.000 A 
ATOM     21  C   UNL     1      65.668  54.476  60.211  0.00  0.00    +0.000 A 
ATOM     22  C   UNL     1      65.518  56.759  60.772  0.00  0.00    +0.000 C 
ATOM     23  C   UNL     1      67.046  55.004  60.393  0.00  0.00    +0.000 C 
ATOM     24  N   UNL     1      66.841  56.302  60.707  0.00  0.00    +0.000 N 
ATOM     25  H   UNL     1      67.603  56.938  60.898  0.00  0.00    +0.000 HD
ATOM     26  O   UNL     1      65.197  57.906  61.045  0.00  0.00    +0.000 OA
ATOM     27  C   UNL     1      65.704  52.114  59.422  0.00  0.00    +0.000 A 
ATOM     28  C   UNL     1      64.695  51.154  59.040  0.00  0.00    +0.000 A 
ATOM     29  C   UNL     1      67.060  51.749  59.298  0.00  0.00    +0.000 A 
ATOM     30  C   UNL     1      65.083  49.890  58.563  0.00  0.00    +0.000 A 
ATOM     31  C   UNL     1      66.438  49.575  58.462  0.00  0.00    +0.000 A 
ATOM     32  C   UNL     1      67.414  50.488  58.824  0.00  0.00    +0.000 A 
ENDROOT
BRANCH   5  33
ATOM     33  N   UNL     1      60.434  52.090  55.633  0.00  0.00    +0.000 N 
ATOM     34  C   UNL     1      59.245  51.415  55.160  0.00  0.00    +0.000 C 
ATOM     35  H   UNL     1      61.245  52.049  55.012  0.00  0.00    +0.000 HD
ENDBRANCH   5  33
BRANCH   3  36
ATOM     36  O   UNL     1      62.625  50.368  56.681  0.00  0.00    +0.000 OA
ATOM     37  C   UNL     1      62.150  49.186  56.094  0.00  0.00    +0.000 C 
ENDBRANCH   3  36
TORSDOF 2
ENDMDL
MODEL 2
REMARK VINA RESULT:      -7.4      2.153      6.383
REMARK  Name = Staurosporine.pdbqt.pdb
REMARK  2 active torsions:
REMARK  status: ('A' for Active; 'I' for Inactive)
REMARK    1  A    between atoms: C_3  and  O_11
REMARK    2  A    between atoms: C_5  and  N_8
REMARK                            x       y       z     vdW  Elec       q    Type
REMARK                         _______ _______ _______ _____ _____    ______ ____
ROOT
ATOM      1  O   UNL     1      62.249  56.270  61.710  0.00  0.00    +0.000 OA
ATOM      2  C   UNL     1      61.133  56.098  60.794  0.00  0.00    +0.000 C 
ATOM      3  C   UNL     1      61.008  57.187  59.710  0.00  0.00    +0.000 C 
ATOM      4  C   UNL     1      63.454  56.508  61.068  0.00  0.00    +0.000 C 
ATOM      5  C   UNL     1      62.197  57.956  59.351  0.00  0.00    +0.000 C 
ATOM      6  C   UNL     1      63.301  57.539  60.116  0.00  0.00    +0.000 C 
ATOM      7  C   UNL     1      59.882  56.237  61.726  0.00  0.00    +0.000 C 
ATOM      8  N   UNL     1      61.240  54.737  60.220  0.00  0.00    +0.000 N 
ATOM      9  C   UNL     1      62.315  53.902  60.052  0.00  0.00    +0.000 A 
ATOM     10  C   UNL     1      63.665  54.186  60.283  0.00  0.00    +0.000 A 
ATOM     11  C   UNL     1      62.101  52.622  59.524  0.00  0.00    +0.000 A 
ATOM     12  N   UNL     1      64.161  55.388  60.684  0.00  0.00    +0.000 N 
ATOM     13  C   UNL     1      64.559  53.168  59.916  0.00  0.00    +0.000 A 
ATOM     14  C   UNL     1      65.539  55.173  60.481  0.00  0.00    +0.000 A 
ATOM     15  C   UNL     1      65.804  53.820  60.054  0.00  0.00    +0.000 A 
ATOM     16  C   UNL     1      66.592  56.082  60.677  0.00  0.00    +0.000 A 
ATOM     17  C   UNL     1      67.145  53.450  59.828  0.00  0.00    +0.000 A 
ATOM     18  C   UNL     1      68.175  54.366  60.027  0.00  0.00    +0.000 A 
ATOM     19  C   UNL     1      67.900  55.661  60.443  0.00  0.00    +0.000 A 
ATOM     20  C   UNL     1      64.353  51.876  59.395  0.00  0.00    +0.000 A 
ATOM     21  C   UNL     1      62.976  51.580  59.189  0.00  0.00    +0.000 A 
ATOM     22  C   UNL     1      65.177  50.769  58.969  0.00  0.00    +0.000 C 
ATOM     23  C   UNL     1      62.915  50.214  58.604  0.00  0.00    +0.000 C 
ATOM     24  N   UNL     1      64.214  49.853  58.523  0.00  0.00    +0.000 N 
ATOM     25  H   UNL     1      64.503  48.955  58.162  0.00  0.00    +0.000 HD
ATOM     26  O   UNL     1      66.382  50.565  58.951  0.00  0.00    +0.000 OA
ATOM     27  C   UNL     1      60.717  52.622  59.289  0.00  0.00    +0.000 A 
ATOM     28  C   UNL     1      60.209  53.910  59.696  0.00  0.00    +0.000 A 
ATOM     29  C   UNL     1      59.814  51.682  58.749  0.00  0.00    +0.000 A 
ATOM     30  C   UNL     1      58.839  54.194  59.552  0.00  0.00    +0.000 A 
ATOM     31  C   UNL     1      57.985  53.231  59.015  0.00  0.00    +0.000 A 
ATOM     32  C   UNL     1      58.462  51.992  58.620  0.00  0.00    +0.000 A 
ENDROOT
BRANCH   5  33
ATOM     33  N   UNL     1      62.270  58.836  58.236  0.00  0.00    +0.000 N 
ATOM     34  C   UNL     1      62.196  60.244  58.559  0.00  0.00    +0.000 C 
ATOM     35  H   UNL     1      61.736  58.539  57.416  0.00  0.00    +0.000 HD
ENDBRANCH   5  33
BRANCH   3  36
ATOM     36  O   UNL     1      59.987  57.011  58.801  0.00  0.00    +0.000 OA
ATOM     37  C   UNL     1      59.088  58.088  58.810  0.00  0.00    +0.000 C 
ENDBRANCH   3  36
TORSDOF 2
ENDMDL
MODEL 3
REMARK VINA RESULT:      -7.3      2.850      6.453
REMARK  Name = Staurosporine.pdbqt.pdb
REMARK  2 active torsions:
REMARK  status: ('A' for Active; 'I' for Inactive)
REMARK    1  A    between atoms: C_3  and  O_11
REMARK    2  A    between atoms: C_5  and  N_8
REMARK                            x       y       z     vdW  Elec       q    Type
REMARK                         _______ _______ _______ _____ _____    ______ ____
ROOT
ATOM      1  O   UNL     1      69.043  53.915  59.346  0.00  0.00    +0.000 OA
ATOM      2  C   UNL     1      68.512  52.614  59.720  0.00  0.00    +0.000 C 
ATOM      3  C   UNL     1      69.022  52.067  61.068  0.00  0.00    +0.000 C 
ATOM      4  C   UNL     1      68.952  54.856  60.359  0.00  0.00    +0.000 C 
ATOM      5  C   UNL     1      69.532  53.012  62.059  0.00  0.00    +0.000 C 
ATOM      6  C   UNL     1      69.468  54.326  61.560  0.00  0.00    +0.000 C 
ATOM      7  C   UNL     1      69.069  51.666  58.604  0.00  0.00    +0.000 C 
ATOM      8  N   UNL     1      67.035  52.709  59.670  0.00  0.00    +0.000 N 
ATOM      9  C   UNL     1      66.188  53.782  59.785  0.00  0.00    +0.000 A 
ATOM     10  C   UNL     1      66.516  55.102  60.115  0.00  0.00    +0.000 A 
ATOM     11  C   UNL     1      64.811  53.576  59.633  0.00  0.00    +0.000 A 
ATOM     12  N   UNL     1      67.763  55.550  60.428  0.00  0.00    +0.000 N 
ATOM     13  C   UNL     1      65.422  55.966  60.269  0.00  0.00    +0.000 A 
ATOM     14  C   UNL     1      67.452  56.831  60.926  0.00  0.00    +0.000 A 
ATOM     15  C   UNL     1      66.043  57.118  60.801  0.00  0.00    +0.000 A 
ATOM     16  C   UNL     1      68.333  57.786  61.459  0.00  0.00    +0.000 A 
ATOM     17  C   UNL     1      65.583  58.374  61.243  0.00  0.00    +0.000 A 
ATOM     18  C   UNL     1      66.473  59.309  61.769  0.00  0.00    +0.000 A 
ATOM     19  C   UNL     1      67.825  59.015  61.876  0.00  0.00    +0.000 A 
ATOM     20  C   UNL     1      64.036  55.771  60.108  0.00  0.00    +0.000 A 
ATOM     21  C   UNL     1      63.709  54.435  59.744  0.00  0.00    +0.000 A 
ATOM     22  C   UNL     1      62.838  56.563  60.254  0.00  0.00    +0.000 C 
ATOM     23  C   UNL     1      62.226  54.368  59.650  0.00  0.00    +0.000 C 
ATOM     24  N   UNL     1      61.839  55.625  59.959  0.00  0.00    +0.000 N 
ATOM     25  H   UNL     1      60.868  55.901  59.976  0.00  0.00    +0.000 HD
ATOM     26  O   UNL     1      62.621  57.730  60.547  0.00  0.00    +0.000 OA
ATOM     27  C   UNL     1      64.737  52.190  59.417  0.00  0.00    +0.000 A 
ATOM     28  C   UNL     1      66.084  51.673  59.458  0.00  0.00    +0.000 A 
ATOM     29  C   UNL     1      63.675  51.285  59.210  0.00  0.00    +0.000 A 
ATOM     30  C   UNL     1      66.306  50.296  59.288  0.00  0.00    +0.000 A 
ATOM     31  C   UNL     1      65.223  49.440  59.084  0.00  0.00    +0.000 A 
ATOM     32  C   UNL     1      63.926  49.925  59.043  0.00  0.00    +0.000 A 
ENDROOT
BRANCH   5  33
ATOM     33  N   UNL     1      69.836  52.670  63.405  0.00  0.00    +0.000 N 
ATOM     34  C   UNL     1      71.241  52.475  63.686  0.00  0.00    +0.000 C 
ATOM     35  H   UNL     1      69.199  51.995  63.832  0.00  0.00    +0.000 HD
ENDBRANCH   5  33
BRANCH   3  36
ATOM     36  O   UNL     1      68.489  50.859  61.464  0.00  0.00    +0.000 OA
ATOM     37  C   UNL     1      69.469  49.860  61.555  0.00  0.00    +0.000 C 
ENDBRANCH   3  36
TORSDOF 2
ENDMDL
MODEL 4
REMARK VINA RESULT:      -7.2     19.521     21.720
REMARK  Name = Staurosporine.pdbqt.pdb
REMARK  2 active torsions:
REMARK  status: ('A' for Active; 'I' for Inactive)
REMARK    1  A    between atoms: C_3  and  O_11
REMARK    2  A    between atoms: C_5  and  N_8
REMARK                            x       y       z     vdW  Elec       q    Type
REMARK                         _______ _______ _______ _____ _____    ______ ____
ROOT
ATOM      1  O   UNL     1      50.783  33.498  61.714  0.00  0.00    +0.000 OA
ATOM      2  C   UNL     1      52.060  34.144  61.457  0.00  0.00    +0.000 C 
ATOM      3  C   UNL     1      52.189  34.801  60.068  0.00  0.00    +0.000 C 
ATOM      4  C   UNL     1      49.693  34.299  61.413  0.00  0.00    +0.000 C 
ATOM      5  C   UNL     1      50.969  35.180  59.358  0.00  0.00    +0.000 C 
ATOM      6  C   UNL     1      49.835  34.844  60.119  0.00  0.00    +0.000 C 
ATOM      7  C   UNL     1      53.077  32.953  61.493  0.00  0.00    +0.000 C 
ATOM      8  N   UNL     1      52.300  35.102  62.561  0.00  0.00    +0.000 N 
ATOM      9  C   UNL     1      51.436  35.749  63.408  0.00  0.00    +0.000 A 
ATOM     10  C   UNL     1      50.039  35.760  63.363  0.00  0.00    +0.000 A 
ATOM     11  C   UNL     1      51.964  36.567  64.416  0.00  0.00    +0.000 A 
ATOM     12  N   UNL     1      49.275  35.147  62.417  0.00  0.00    +0.000 N 
ATOM     13  C   UNL     1      49.419  36.604  64.297  0.00  0.00    +0.000 A 
ATOM     14  C   UNL     1      48.016  35.713  62.704  0.00  0.00    +0.000 A 
ATOM     15  C   UNL     1      48.075  36.568  63.865  0.00  0.00    +0.000 A 
ATOM     16  C   UNL     1      46.803  35.504  62.028  0.00  0.00    +0.000 A 
ATOM     17  C   UNL     1      46.884  37.193  64.285  0.00  0.00    +0.000 A 
ATOM     18  C   UNL     1      45.690  36.973  63.601  0.00  0.00    +0.000 A 
ATOM     19  C   UNL     1      45.654  36.143  62.490  0.00  0.00    +0.000 A 
ATOM     20  C   UNL     1      49.940  37.421  65.319  0.00  0.00    +0.000 A 
ATOM     21  C   UNL     1      51.361  37.385  65.381  0.00  0.00    +0.000 A 
ATOM     22  C   UNL     1      49.414  38.330  66.311  0.00  0.00    +0.000 C 
ATOM     23  C   UNL     1      51.766  38.316  66.468  0.00  0.00    +0.000 C 
ATOM     24  N   UNL     1      50.587  38.794  66.922  0.00  0.00    +0.000 N 
ATOM     25  H   UNL     1      50.531  39.459  67.680  0.00  0.00    +0.000 HD
ATOM     26  O   UNL     1      48.287  38.682  66.627  0.00  0.00    +0.000 OA
ATOM     27  C   UNL     1      53.346  36.470  64.188  0.00  0.00    +0.000 A 
ATOM     28  C   UNL     1      53.538  35.596  63.055  0.00  0.00    +0.000 A 
ATOM     29  C   UNL     1      54.483  37.041  64.798  0.00  0.00    +0.000 A 
ATOM     30  C   UNL     1      54.839  35.334  62.593  0.00  0.00    +0.000 A 
ATOM     31  C   UNL     1      55.933  35.921  63.230  0.00  0.00    +0.000 A 
ATOM     32  C   UNL     1      55.760  36.761  64.318  0.00  0.00    +0.000 A 
ENDROOT
BRANCH   5  33
ATOM     33  N   UNL     1      50.947  35.972  58.178  0.00  0.00    +0.000 N 
ATOM     34  C   UNL     1      51.024  37.400  58.396  0.00  0.00    +0.000 C 
ATOM     35  H   UNL     1      50.281  35.666  57.465  0.00  0.00    +0.000 HD
ENDBRANCH   5  33
BRANCH   3  36
ATOM     36  O   UNL     1      53.373  35.463  59.827  0.00  0.00    +0.000 OA
ATOM     37  C   UNL     1      53.872  35.191  58.544  0.00  0.00    +0.000 C 
ENDBRANCH   3  36
TORSDOF 2
ENDMDL
MODEL 5
REMARK VINA RESULT:      -7.2     23.803     25.843
REMARK  Name = Staurosporine.pdbqt.pdb
REMARK  2 active torsions:
REMARK  status: ('A' for Active; 'I' for Inactive)
REMARK    1  A    between atoms: C_3  and  O_11
REMARK    2  A    between atoms: C_5  and  N_8
REMARK                            x       y       z     vdW  Elec       q    Type
REMARK                         _______ _______ _______ _____ _____    ______ ____
ROOT
ATOM      1  O   UNL     1      48.555  57.014  80.954  0.00  0.00    +0.000 OA
ATOM      2  C   UNL     1      48.440  55.608  80.599  0.00  0.00    +0.000 C 
ATOM      3  C   UNL     1      48.642  55.296  79.103  0.00  0.00    +0.000 C 
ATOM      4  C   UNL     1      49.694  57.616  80.444  0.00  0.00    +0.000 C 
ATOM      5  C   UNL     1      49.396  56.244  78.286  0.00  0.00    +0.000 C 
ATOM      6  C   UNL     1      49.815  57.338  79.066  0.00  0.00    +0.000 C 
ATOM      7  C   UNL     1      46.947  55.276  80.936  0.00  0.00    +0.000 C 
ATOM      8  N   UNL     1      49.377  54.857  81.466  0.00  0.00    +0.000 N 
ATOM      9  C   UNL     1      50.522  55.242  82.117  0.00  0.00    +0.000 A 
ATOM     10  C   UNL     1      51.190  56.468  82.025  0.00  0.00    +0.000 A 
ATOM     11  C   UNL     1      51.182  54.312  82.931  0.00  0.00    +0.000 A 
ATOM     12  N   UNL     1      50.830  57.503  81.217  0.00  0.00    +0.000 N 
ATOM     13  C   UNL     1      52.404  56.538  82.723  0.00  0.00    +0.000 A 
ATOM     14  C   UNL     1      51.975  58.318  81.327  0.00  0.00    +0.000 A 
ATOM     15  C   UNL     1      52.924  57.770  82.267  0.00  0.00    +0.000 A 
ATOM     16  C   UNL     1      52.232  59.536  80.677  0.00  0.00    +0.000 A 
ATOM     17  C   UNL     1      54.115  58.486  82.497  0.00  0.00    +0.000 A 
ATOM     18  C   UNL     1      54.352  59.693  81.841  0.00  0.00    +0.000 A 
ATOM     19  C   UNL     1      53.425  60.205  80.945  0.00  0.00    +0.000 A 
ATOM     20  C   UNL     1      53.070  55.614  83.552  0.00  0.00    +0.000 A 
ATOM     21  C   UNL     1      52.373  54.379  83.667  0.00  0.00    +0.000 A 
ATOM     22  C   UNL     1      54.307  55.567  84.295  0.00  0.00    +0.000 C 
ATOM     23  C   UNL     1      53.205  53.496  84.528  0.00  0.00    +0.000 C 
ATOM     24  N   UNL     1      54.272  54.270  84.825  0.00  0.00    +0.000 N 
ATOM     25  H   UNL     1      55.028  53.944  85.410  0.00  0.00    +0.000 HD
ATOM     26  O   UNL     1      55.213  56.365  84.488  0.00  0.00    +0.000 OA
ATOM     27  C   UNL     1      50.390  53.163  82.777  0.00  0.00    +0.000 A 
ATOM     28  C   UNL     1      49.312  53.497  81.876  0.00  0.00    +0.000 A 
ATOM     29  C   UNL     1      50.464  51.847  83.278  0.00  0.00    +0.000 A 
ATOM     30  C   UNL     1      48.368  52.516  81.528  0.00  0.00    +0.000 A 
ATOM     31  C   UNL     1      48.482  51.228  82.052  0.00  0.00    +0.000 A 
ATOM     32  C   UNL     1      49.512  50.896  82.916  0.00  0.00    +0.000 A 
ENDROOT
BRANCH   5  33
ATOM     33  N   UNL     1      49.830  55.984  76.958  0.00  0.00    +0.000 N 
ATOM     34  C   UNL     1      48.925  56.426  75.919  0.00  0.00    +0.000 C 
ATOM     35  H   UNL     1      50.256  55.065  76.816  0.00  0.00    +0.000 HD
ENDBRANCH   5  33
BRANCH   3  36
ATOM     36  O   UNL     1      48.589  53.963  78.758  0.00  0.00    +0.000 OA
ATOM     37  C   UNL     1      47.494  53.682  77.928  0.00  0.00    +0.000 C 
ENDBRANCH   3  36
TORSDOF 2
ENDMDL
MODEL 6
REMARK VINA RESULT:      -7.1     25.266     27.123
REMARK  Name = Staurosporine.pdbqt.pdb
REMARK  2 active torsions:
REMARK  status: ('A' for Active; 'I' for Inactive)
REMARK    1  A    between atoms: C_3  and  O_11
REMARK    2  A    between atoms: C_5  and  N_8
REMARK                            x       y       z     vdW  Elec       q    Type
REMARK                         _______ _______ _______ _____ _____    ______ ____
ROOT
ATOM      1  O   UNL     1      52.226  53.507  85.892  0.00  0.00    +0.000 OA
ATOM      2  C   UNL     1      53.532  54.091  85.633  0.00  0.00    +0.000 C 
ATOM      3  C   UNL     1      54.628  53.082  85.233  0.00  0.00    +0.000 C 
ATOM      4  C   UNL     1      51.803  52.646  84.893  0.00  0.00    +0.000 C 
ATOM      5  C   UNL     1      54.223  51.799  84.663  0.00  0.00    +0.000 C 
ATOM      6  C   UNL     1      52.820  51.717  84.590  0.00  0.00    +0.000 C 
ATOM      7  C   UNL     1      53.943  54.680  87.025  0.00  0.00    +0.000 C 
ATOM      8  N   UNL     1      53.347  55.156  84.621  0.00  0.00    +0.000 N 
ATOM      9  C   UNL     1      52.382  55.343  83.664  0.00  0.00    +0.000 A 
ATOM     10  C   UNL     1      51.348  54.472  83.307  0.00  0.00    +0.000 A 
ATOM     11  C   UNL     1      52.431  56.498  82.872  0.00  0.00    +0.000 A 
ATOM     12  N   UNL     1      51.143  53.234  83.834  0.00  0.00    +0.000 N 
ATOM     13  C   UNL     1      50.576  54.883  82.210  0.00  0.00    +0.000 A 
ATOM     14  C   UNL     1      50.181  52.733  82.933  0.00  0.00    +0.000 A 
ATOM     15  C   UNL     1      49.795  53.732  81.965  0.00  0.00    +0.000 A 
ATOM     16  C   UNL     1      49.592  51.458  82.922  0.00  0.00    +0.000 A 
ATOM     17  C   UNL     1      48.823  53.381  81.007  0.00  0.00    +0.000 A 
ATOM     18  C   UNL     1      48.251  52.110  81.012  0.00  0.00    +0.000 A 
ATOM     19  C   UNL     1      48.632  51.166  81.954  0.00  0.00    +0.000 A 
ATOM     20  C   UNL     1      50.611  56.045  81.415  0.00  0.00    +0.000 A 
ATOM     21  C   UNL     1      51.645  56.943  81.801  0.00  0.00    +0.000 A 
ATOM     22  C   UNL     1      49.894  56.561  80.272  0.00  0.00    +0.000 C 
ATOM     23  C   UNL     1      51.587  58.092  80.858  0.00  0.00    +0.000 C 
ATOM     24  N   UNL     1      50.563  57.770  80.039  0.00  0.00    +0.000 N 
ATOM     25  H   UNL     1      50.270  58.369  79.281  0.00  0.00    +0.000 HD
ATOM     26  O   UNL     1      48.953  56.154  79.606  0.00  0.00    +0.000 OA
ATOM     27  C   UNL     1      53.587  57.139  83.347  0.00  0.00    +0.000 A 
ATOM     28  C   UNL     1      54.142  56.312  84.392  0.00  0.00    +0.000 A 
ATOM     29  C   UNL     1      54.260  58.329  83.001  0.00  0.00    +0.000 A 
ATOM     30  C   UNL     1      55.326  56.709  85.037  0.00  0.00    +0.000 A 
ATOM     31  C   UNL     1      55.955  57.897  84.662  0.00  0.00    +0.000 A 
ATOM     32  C   UNL     1      55.431  58.697  83.661  0.00  0.00    +0.000 A 
ENDROOT
BRANCH   5  33
ATOM     33  N   UNL     1      55.121  50.873  84.066  0.00  0.00    +0.000 N 
ATOM     34  C   UNL     1      55.564  49.803  84.932  0.00  0.00    +0.000 C 
ATOM     35  H   UNL     1      55.840  51.291  83.471  0.00  0.00    +0.000 HD
ENDBRANCH   5  33
BRANCH   3  36
ATOM     36  O   UNL     1      55.859  53.623  84.933  0.00  0.00    +0.000 OA
ATOM     37  C   UNL     1      56.854  53.183  85.819  0.00  0.00    +0.000 C 
ENDBRANCH   3  36
TORSDOF 2
ENDMDL
MODEL 7
REMARK VINA RESULT:      -7.0     24.337     26.873
REMARK  Name = Staurosporine.pdbqt.pdb
REMARK  2 active torsions:
REMARK  status: ('A' for Active; 'I' for Inactive)
REMARK    1  A    between atoms: C_3  and  O_11
REMARK    2  A    between atoms: C_5  and  N_8
REMARK                            x       y       z     vdW  Elec       q    Type
REMARK                         _______ _______ _______ _____ _____    ______ ____
ROOT
ATOM      1  O   UNL     1      51.343  55.723  84.891  0.00  0.00    +0.000 OA
ATOM      2  C   UNL     1      52.260  56.545  84.118  0.00  0.00    +0.000 C 
ATOM      3  C   UNL     1      53.718  56.044  84.090  0.00  0.00    +0.000 C 
ATOM      4  C   UNL     1      51.426  54.374  84.585  0.00  0.00    +0.000 C 
ATOM      5  C   UNL     1      53.977  54.631  84.355  0.00  0.00    +0.000 C 
ATOM      6  C   UNL     1      52.771  53.951  84.612  0.00  0.00    +0.000 C 
ATOM      7  C   UNL     1      52.261  57.905  84.895  0.00  0.00    +0.000 C 
ATOM      8  N   UNL     1      51.685  56.690  82.761  0.00  0.00    +0.000 N 
ATOM      9  C   UNL     1      50.809  55.905  82.055  0.00  0.00    +0.000 A 
ATOM     10  C   UNL     1      50.308  54.648  82.409  0.00  0.00    +0.000 A 
ATOM     11  C   UNL     1      50.387  56.333  80.789  0.00  0.00    +0.000 A 
ATOM     12  N   UNL     1      50.647  53.950  83.528  0.00  0.00    +0.000 N 
ATOM     13  C   UNL     1      49.512  54.028  81.435  0.00  0.00    +0.000 A 
ATOM     14  C   UNL     1      50.081  52.696  83.223  0.00  0.00    +0.000 A 
ATOM     15  C   UNL     1      49.354  52.734  81.977  0.00  0.00    +0.000 A 
ATOM     16  C   UNL     1      50.134  51.518  83.987  0.00  0.00    +0.000 A 
ATOM     17  C   UNL     1      48.716  51.553  81.549  0.00  0.00    +0.000 A 
ATOM     18  C   UNL     1      48.780  50.394  82.321  0.00  0.00    +0.000 A 
ATOM     19  C   UNL     1      49.479  50.380  83.518  0.00  0.00    +0.000 A 
ATOM     20  C   UNL     1      49.074  54.454  80.165  0.00  0.00    +0.000 A 
ATOM     21  C   UNL     1      49.561  55.745  79.821  0.00  0.00    +0.000 A 
ATOM     22  C   UNL     1      48.284  53.908  79.086  0.00  0.00    +0.000 C 
ATOM     23  C   UNL     1      49.058  56.043  78.453  0.00  0.00    +0.000 C 
ATOM     24  N   UNL     1      48.349  54.937  78.137  0.00  0.00    +0.000 N 
ATOM     25  H   UNL     1      47.871  54.837  77.253  0.00  0.00    +0.000 HD
ATOM     26  O   UNL     1      47.677  52.859  78.925  0.00  0.00    +0.000 OA
ATOM     27  C   UNL     1      51.093  57.536  80.628  0.00  0.00    +0.000 A 
ATOM     28  C   UNL     1      51.887  57.735  81.817  0.00  0.00    +0.000 A 
ATOM     29  C   UNL     1      51.178  58.491  79.594  0.00  0.00    +0.000 A 
ATOM     30  C   UNL     1      52.715  58.866  81.919  0.00  0.00    +0.000 A 
ATOM     31  C   UNL     1      52.764  59.785  80.870  0.00  0.00    +0.000 A 
ATOM     32  C   UNL     1      52.007  59.603  79.725  0.00  0.00    +0.000 A 
ENDROOT
BRANCH   5  33
ATOM     33  N   UNL     1      55.235  54.000  84.159  0.00  0.00    +0.000 N 
ATOM     34  C   UNL     1      55.234  52.563  84.323  0.00  0.00    +0.000 C 
ATOM     35  H   UNL     1      56.033  54.494  84.565  0.00  0.00    +0.000 HD
ENDBRANCH   5  33
BRANCH   3  36
ATOM     36  O   UNL     1      54.589  56.782  83.319  0.00  0.00    +0.000 OA
ATOM     37  C   UNL     1      55.528  57.469  84.103  0.00  0.00    +0.000 C 
ENDBRANCH   3  36
TORSDOF 2
ENDMDL
MODEL 8
REMARK VINA RESULT:      -7.0     17.138     21.604
REMARK  Name = Staurosporine.pdbqt.pdb
REMARK  2 active torsions:
REMARK  status: ('A' for Active; 'I' for Inactive)
REMARK    1  A    between atoms: C_3  and  O_11
REMARK    2  A    between atoms: C_5  and  N_8
REMARK                            x       y       z     vdW  Elec       q    Type
REMARK                         _______ _______ _______ _____ _____    ______ ____
ROOT
ATOM      1  O   UNL     1      64.158  73.581  66.573  0.00  0.00    +0.000 OA
ATOM      2  C   UNL     1      65.121  74.322  67.372  0.00  0.00    +0.000 C 
ATOM      3  C   UNL     1      64.581  74.847  68.717  0.00  0.00    +0.000 C 
ATOM      4  C   UNL     1      63.494  72.598  67.288  0.00  0.00    +0.000 C 
ATOM      5  C   UNL     1      63.422  74.186  69.313  0.00  0.00    +0.000 C 
ATOM      6  C   UNL     1      62.982  73.133  68.489  0.00  0.00    +0.000 C 
ATOM      7  C   UNL     1      65.431  75.575  66.485  0.00  0.00    +0.000 C 
ATOM      8  N   UNL     1      66.313  73.460  67.538  0.00  0.00    +0.000 N 
ATOM      9  C   UNL     1      66.465  72.097  67.489  0.00  0.00    +0.000 A 
ATOM     10  C   UNL     1      65.464  71.127  67.386  0.00  0.00    +0.000 A 
ATOM     11  C   UNL     1      67.750  71.555  67.626  0.00  0.00    +0.000 A 
ATOM     12  N   UNL     1      64.125  71.373  67.357  0.00  0.00    +0.000 N 
ATOM     13  C   UNL     1      65.910  69.800  67.472  0.00  0.00    +0.000 A 
ATOM     14  C   UNL     1      63.624  70.067  67.527  0.00  0.00    +0.000 A 
ATOM     15  C   UNL     1      64.690  69.094  67.558  0.00  0.00    +0.000 A 
ATOM     16  C   UNL     1      62.282  69.665  67.625  0.00  0.00    +0.000 A 
ATOM     17  C   UNL     1      64.340  67.737  67.705  0.00  0.00    +0.000 A 
ATOM     18  C   UNL     1      63.002  67.358  67.802  0.00  0.00    +0.000 A 
ATOM     19  C   UNL     1      61.993  68.308  67.764  0.00  0.00    +0.000 A 
ATOM     20  C   UNL     1      67.199  69.245  67.598  0.00  0.00    +0.000 A 
ATOM     21  C   UNL     1      68.218  70.235  67.673  0.00  0.00    +0.000 A 
ATOM     22  C   UNL     1      67.769  67.923  67.713  0.00  0.00    +0.000 C 
ATOM     23  C   UNL     1      69.506  69.511  67.844  0.00  0.00    +0.000 C 
ATOM     24  N   UNL     1      69.133  68.213  67.853  0.00  0.00    +0.000 N 
ATOM     25  H   UNL     1      69.801  67.461  67.952  0.00  0.00    +0.000 HD
ATOM     26  O   UNL     1      67.303  66.793  67.704  0.00  0.00    +0.000 OA
ATOM     27  C   UNL     1      68.541  72.700  67.815  0.00  0.00    +0.000 A 
ATOM     28  C   UNL     1      67.661  73.845  67.777  0.00  0.00    +0.000 A 
ATOM     29  C   UNL     1      69.916  72.916  68.040  0.00  0.00    +0.000 A 
ATOM     30  C   UNL     1      68.191  75.134  67.959  0.00  0.00    +0.000 A 
ATOM     31  C   UNL     1      69.559  75.297  68.177  0.00  0.00    +0.000 A 
ATOM     32  C   UNL     1      70.411  74.206  68.216  0.00  0.00    +0.000 A 
ENDROOT
BRANCH   5  33
ATOM     33  N   UNL     1      62.956  74.431  70.633  0.00  0.00    +0.000 N 
ATOM     34  C   UNL     1      61.813  75.313  70.726  0.00  0.00    +0.000 C 
ATOM     35  H   UNL     1      63.689  74.579  71.329  0.00  0.00    +0.000 HD
ENDBRANCH   5  33
BRANCH   3  36
ATOM     36  O   UNL     1      65.495  75.508  69.511  0.00  0.00    +0.000 OA
ATOM     37  C   UNL     1      65.119  76.839  69.744  0.00  0.00    +0.000 C 
ENDBRANCH   3  36
TORSDOF 2
ENDMDL
MODEL 9
REMARK VINA RESULT:      -6.9      7.572     12.218
REMARK  Name = Staurosporine.pdbqt.pdb
REMARK  2 active torsions:
REMARK  status: ('A' for Active; 'I' for Inactive)
REMARK    1  A    between atoms: C_3  and  O_11
REMARK    2  A    between atoms: C_5  and  N_8
REMARK                            x       y       z     vdW  Elec       q    Type
REMARK                         _______ _______ _______ _____ _____    ______ ____
ROOT
ATOM      1  O   UNL     1      67.021  62.198  65.421  0.00  0.00    +0.000 OA
ATOM      2  C   UNL     1      67.165  63.089  64.281  0.00  0.00    +0.000 C 
ATOM      3  C   UNL     1      68.377  64.039  64.347  0.00  0.00    +0.000 C 
ATOM      4  C   UNL     1      68.191  61.529  65.744  0.00  0.00    +0.000 C 
ATOM      5  C   UNL     1      69.511  63.669  65.191  0.00  0.00    +0.000 C 
ATOM      6  C   UNL     1      69.263  62.442  65.834  0.00  0.00    +0.000 C 
ATOM      7  C   UNL     1      65.881  63.983  64.363  0.00  0.00    +0.000 C 
ATOM      8  N   UNL     1      67.169  62.249  63.062  0.00  0.00    +0.000 N 
ATOM      9  C   UNL     1      67.499  60.932  62.865  0.00  0.00    +0.000 A 
ATOM     10  C   UNL     1      68.056  60.041  63.788  0.00  0.00    +0.000 A 
ATOM     11  C   UNL     1      67.346  60.380  61.586  0.00  0.00    +0.000 A 
ATOM     12  N   UNL     1      68.416  60.350  65.065  0.00  0.00    +0.000 N 
ATOM     13  C   UNL     1      68.393  58.781  63.272  0.00  0.00    +0.000 A 
ATOM     14  C   UNL     1      69.147  59.195  65.407  0.00  0.00    +0.000 A 
ATOM     15  C   UNL     1      69.111  58.215  64.348  0.00  0.00    +0.000 A 
ATOM     16  C   UNL     1      69.823  58.927  66.608  0.00  0.00    +0.000 A 
ATOM     17  C   UNL     1      69.786  56.995  64.554  0.00  0.00    +0.000 A 
ATOM     18  C   UNL     1      70.452  56.749  65.753  0.00  0.00    +0.000 A 
ATOM     19  C   UNL     1      70.470  57.702  66.761  0.00  0.00    +0.000 A 
ATOM     20  C   UNL     1      68.233  58.214  61.992  0.00  0.00    +0.000 A 
ATOM     21  C   UNL     1      67.639  59.113  61.063  0.00  0.00    +0.000 A 
ATOM     22  C   UNL     1      68.551  56.960  61.349  0.00  0.00    +0.000 C 
ATOM     23  C   UNL     1      67.572  58.400  59.760  0.00  0.00    +0.000 C 
ATOM     24  N   UNL     1      68.114  57.194  60.038  0.00  0.00    +0.000 N 
ATOM     25  H   UNL     1      68.205  56.470  59.340  0.00  0.00    +0.000 HD
ATOM     26  O   UNL     1      69.057  55.915  61.730  0.00  0.00    +0.000 OA
ATOM     27  C   UNL     1      66.882  61.476  60.840  0.00  0.00    +0.000 A 
ATOM     28  C   UNL     1      66.795  62.604  61.736  0.00  0.00    +0.000 A 
ATOM     29  C   UNL     1      66.540  61.664  59.485  0.00  0.00    +0.000 A 
ATOM     30  C   UNL     1      66.371  63.851  61.245  0.00  0.00    +0.000 A 
ATOM     31  C   UNL     1      66.041  63.987  59.896  0.00  0.00    +0.000 A 
ATOM     32  C   UNL     1      66.121  62.912  59.028  0.00  0.00    +0.000 A 
ENDROOT
BRANCH   5  33
ATOM     33  N   UNL     1      70.764  64.340  65.183  0.00  0.00    +0.000 N 
ATOM     34  C   UNL     1      71.890  63.542  65.615  0.00  0.00    +0.000 C 
ATOM     35  H   UNL     1      70.740  65.301  65.530  0.00  0.00    +0.000 HD
ENDBRANCH   5  33
BRANCH   3  36
ATOM     36  O   UNL     1      68.558  64.855  63.251  0.00  0.00    +0.000 OA
ATOM     37  C   UNL     1      68.400  66.210  63.576  0.00  0.00    +0.000 C 
ENDBRANCH   3  36
TORSDOF 2
ENDMDL
