MODEL 1
REMARK VINA RESULT:      -6.0      0.000      0.000
REMARK  Name = Testosterone.pdbqt.pdb
REMARK  1 active torsions:
REMARK  status: ('A' for Active; 'I' for Inactive)
REMARK    1  A    between atoms: C_9  and  O_21
REMARK                            x       y       z     vdW  Elec       q    Type
REMARK                         _______ _______ _______ _____ _____    ______ ____
ROOT
ATOM      1  O   UNL     1      40.754  42.928  66.422  0.00  0.00    +0.000 OA
ATOM      2  C   UNL     1      46.234  42.417  71.744  0.00  0.00    +0.000 C 
ATOM      3  C   UNL     1      45.908  42.027  73.263  0.00  0.00    +0.000 C 
ATOM      4  C   UNL     1      45.377  41.967  70.629  0.00  0.00    +0.000 C 
ATOM      5  C   UNL     1      43.992  41.395  70.753  0.00  0.00    +0.000 C 
ATOM      6  C   UNL     1      43.172  40.854  69.560  0.00  0.00    +0.000 C 
ATOM      7  C   UNL     1      44.496  41.638  73.281  0.00  0.00    +0.000 C 
ATOM      8  C   UNL     1      43.593  41.313  72.116  0.00  0.00    +0.000 C 
ATOM      9  C   UNL     1      46.163  43.340  74.040  0.00  0.00    +0.000 C 
ATOM     10  C   UNL     1      46.718  43.766  71.763  0.00  0.00    +0.000 C 
ATOM     11  C   UNL     1      45.755  42.186  69.284  0.00  0.00    +0.000 C 
ATOM     12  C   UNL     1      46.625  44.350  73.151  0.00  0.00    +0.000 C 
ATOM     13  C   UNL     1      43.654  41.394  68.071  0.00  0.00    +0.000 C 
ATOM     14  C   UNL     1      44.966  41.927  68.036  0.00  0.00    +0.000 C 
ATOM     15  C   UNL     1      46.863  40.907  73.747  0.00  0.00    +0.000 C 
ATOM     16  C   UNL     1      41.752  41.333  69.644  0.00  0.00    +0.000 C 
ATOM     17  C   UNL     1      43.254  39.304  69.528  0.00  0.00    +0.000 C 
ATOM     18  C   UNL     1      40.820  42.032  68.628  0.00  0.00    +0.000 C 
ATOM     19  C   UNL     1      42.743  41.946  67.296  0.00  0.00    +0.000 C 
ATOM     20  C   UNL     1      41.349  42.364  67.320  0.00  0.00    +0.000 C 
ENDROOT
BRANCH   9  21
ATOM     21  O   UNL     1      46.556  43.348  75.366  0.00  0.00    +0.000 OA
ATOM     22  H   UNL     1      46.058  44.013  75.881  0.00  0.00    +0.000 HD
ENDBRANCH   9  21
TORSDOF 1
ENDMDL
MODEL 2
REMARK VINA RESULT:      -5.9     16.337     18.448
REMARK  Name = Testosterone.pdbqt.pdb
REMARK  1 active torsions:
REMARK  status: ('A' for Active; 'I' for Inactive)
REMARK    1  A    between atoms: C_9  and  O_21
REMARK                            x       y       z     vdW  Elec       q    Type
REMARK                         _______ _______ _______ _____ _____    ______ ____
ROOT
ATOM      1  O   UNL     1      54.939  28.933  54.616  0.00  0.00    +0.000 OA
ATOM      2  C   UNL     1      51.126  34.088  58.800  0.00  0.00    +0.000 C 
ATOM      3  C   UNL     1      51.823  35.426  59.339  0.00  0.00    +0.000 C 
ATOM      4  C   UNL     1      51.595  33.413  57.573  0.00  0.00    +0.000 C 
ATOM      5  C   UNL     1      52.901  33.661  56.871  0.00  0.00    +0.000 C 
ATOM      6  C   UNL     1      53.304  32.992  55.538  0.00  0.00    +0.000 C 
ATOM      7  C   UNL     1      53.142  35.473  58.705  0.00  0.00    +0.000 C 
ATOM      8  C   UNL     1      53.652  34.672  57.532  0.00  0.00    +0.000 C 
ATOM      9  C   UNL     1      51.916  35.199  60.867  0.00  0.00    +0.000 C 
ATOM     10  C   UNL     1      50.794  33.307  59.954  0.00  0.00    +0.000 C 
ATOM     11  C   UNL     1      50.881  32.324  57.022  0.00  0.00    +0.000 C 
ATOM     12  C   UNL     1      51.322  33.954  61.211  0.00  0.00    +0.000 C 
ATOM     13  C   UNL     1      52.481  31.603  55.169  0.00  0.00    +0.000 C 
ATOM     14  C   UNL     1      51.266  31.436  55.878  0.00  0.00    +0.000 C 
ATOM     15  C   UNL     1      50.941  36.658  59.020  0.00  0.00    +0.000 C 
ATOM     16  C   UNL     1      54.730  32.527  55.599  0.00  0.00    +0.000 C 
ATOM     17  C   UNL     1      53.073  33.982  54.364  0.00  0.00    +0.000 C 
ATOM     18  C   UNL     1      55.404  31.171  55.284  0.00  0.00    +0.000 C 
ATOM     19  C   UNL     1      53.188  30.527  54.893  0.00  0.00    +0.000 C 
ATOM     20  C   UNL     1      54.566  30.061  54.878  0.00  0.00    +0.000 C 
ENDROOT
BRANCH   9  21
ATOM     21  O   UNL     1      51.909  36.246  61.770  0.00  0.00    +0.000 OA
ATOM     22  H   UNL     1      51.486  37.041  61.389  0.00  0.00    +0.000 HD
ENDBRANCH   9  21
TORSDOF 1
ENDMDL
MODEL 3
REMARK VINA RESULT:      -5.7     15.251     16.840
REMARK  Name = Testosterone.pdbqt.pdb
REMARK  1 active torsions:
REMARK  status: ('A' for Active; 'I' for Inactive)
REMARK    1  A    between atoms: C_9  and  O_21
REMARK                            x       y       z     vdW  Elec       q    Type
REMARK                         _______ _______ _______ _____ _____    ______ ____
ROOT
ATOM      1  O   UNL     1      58.191  32.025  66.385  0.00  0.00    +0.000 OA
ATOM      2  C   UNL     1      59.711  39.294  68.248  0.00  0.00    +0.000 C 
ATOM      3  C   UNL     1      61.001  40.061  67.688  0.00  0.00    +0.000 C 
ATOM      4  C   UNL     1      59.085  38.186  67.499  0.00  0.00    +0.000 C 
ATOM      5  C   UNL     1      59.698  37.439  66.346  0.00  0.00    +0.000 C 
ATOM      6  C   UNL     1      58.963  36.347  65.538  0.00  0.00    +0.000 C 
ATOM      7  C   UNL     1      61.593  39.169  66.689  0.00  0.00    +0.000 C 
ATOM      8  C   UNL     1      60.986  37.954  66.033  0.00  0.00    +0.000 C 
ATOM      9  C   UNL     1      61.900  40.222  68.937  0.00  0.00    +0.000 C 
ATOM     10  C   UNL     1      59.888  39.178  69.666  0.00  0.00    +0.000 C 
ATOM     11  C   UNL     1      57.862  37.617  67.924  0.00  0.00    +0.000 C 
ATOM     12  C   UNL     1      61.243  39.693  70.081  0.00  0.00    +0.000 C 
ATOM     13  C   UNL     1      57.665  35.658  66.301  0.00  0.00    +0.000 C 
ATOM     14  C   UNL     1      57.150  36.415  67.382  0.00  0.00    +0.000 C 
ATOM     15  C   UNL     1      60.598  41.445  67.118  0.00  0.00    +0.000 C 
ATOM     16  C   UNL     1      59.870  35.175  65.300  0.00  0.00    +0.000 C 
ATOM     17  C   UNL     1      58.438  36.946  64.204  0.00  0.00    +0.000 C 
ATOM     18  C   UNL     1      59.702  33.656  65.531  0.00  0.00    +0.000 C 
ATOM     19  C   UNL     1      57.640  34.345  66.401  0.00  0.00    +0.000 C 
ATOM     20  C   UNL     1      58.468  33.180  66.124  0.00  0.00    +0.000 C 
ENDROOT
BRANCH   9  21
ATOM     21  O   UNL     1      62.796  41.268  69.070  0.00  0.00    +0.000 OA
ATOM     22  H   UNL     1      63.661  40.954  69.400  0.00  0.00    +0.000 HD
ENDBRANCH   9  21
TORSDOF 1
ENDMDL
MODEL 4
REMARK VINA RESULT:      -5.7     15.083     19.562
REMARK  Name = Testosterone.pdbqt.pdb
REMARK  1 active torsions:
REMARK  status: ('A' for Active; 'I' for Inactive)
REMARK    1  A    between atoms: C_9  and  O_21
REMARK                            x       y       z     vdW  Elec       q    Type
REMARK                         _______ _______ _______ _____ _____    ______ ____
ROOT
ATOM      1  O   UNL     1      55.493  58.382  82.470  0.00  0.00    +0.000 OA
ATOM      2  C   UNL     1      49.252  56.206  78.607  0.00  0.00    +0.000 C 
ATOM      3  C   UNL     1      48.355  54.962  79.074  0.00  0.00    +0.000 C 
ATOM      4  C   UNL     1      50.047  56.991  79.573  0.00  0.00    +0.000 C 
ATOM      5  C   UNL     1      50.380  56.585  80.982  0.00  0.00    +0.000 C 
ATOM      6  C   UNL     1      51.140  57.485  81.981  0.00  0.00    +0.000 C 
ATOM      7  C   UNL     1      48.877  54.564  80.383  0.00  0.00    +0.000 C 
ATOM      8  C   UNL     1      49.804  55.324  81.299  0.00  0.00    +0.000 C 
ATOM      9  C   UNL     1      48.622  53.893  77.987  0.00  0.00    +0.000 C 
ATOM     10  C   UNL     1      49.827  55.844  77.345  0.00  0.00    +0.000 C 
ATOM     11  C   UNL     1      50.711  58.175  79.178  0.00  0.00    +0.000 C 
ATOM     12  C   UNL     1      49.490  54.417  76.991  0.00  0.00    +0.000 C 
ATOM     13  C   UNL     1      52.029  58.704  81.299  0.00  0.00    +0.000 C 
ATOM     14  C   UNL     1      51.662  59.022  79.968  0.00  0.00    +0.000 C 
ATOM     15  C   UNL     1      46.858  55.359  79.100  0.00  0.00    +0.000 C 
ATOM     16  C   UNL     1      52.178  56.687  82.716  0.00  0.00    +0.000 C 
ATOM     17  C   UNL     1      50.132  58.151  82.957  0.00  0.00    +0.000 C 
ATOM     18  C   UNL     1      53.687  56.910  82.966  0.00  0.00    +0.000 C 
ATOM     19  C   UNL     1      53.301  58.790  81.626  0.00  0.00    +0.000 C 
ATOM     20  C   UNL     1      54.319  58.077  82.383  0.00  0.00    +0.000 C 
ENDROOT
BRANCH   9  21
ATOM     21  O   UNL     1      47.687  52.929  77.658  0.00  0.00    +0.000 OA
ATOM     22  H   UNL     1      47.730  52.168  78.270  0.00  0.00    +0.000 HD
ENDBRANCH   9  21
TORSDOF 1
ENDMDL
MODEL 5
REMARK VINA RESULT:      -5.6     31.875     35.922
REMARK  Name = Testosterone.pdbqt.pdb
REMARK  1 active torsions:
REMARK  status: ('A' for Active; 'I' for Inactive)
REMARK    1  A    between atoms: C_9  and  O_21
REMARK                            x       y       z     vdW  Elec       q    Type
REMARK                         _______ _______ _______ _____ _____    ______ ____
ROOT
ATOM      1  O   UNL     1      76.921  61.963  83.885  0.00  0.00    +0.000 OA
ATOM      2  C   UNL     1      72.289  55.874  84.165  0.00  0.00    +0.000 C 
ATOM      3  C   UNL     1      71.370  55.449  82.922  0.00  0.00    +0.000 C 
ATOM      4  C   UNL     1      73.555  56.610  83.973  0.00  0.00    +0.000 C 
ATOM      5  C   UNL     1      73.988  57.314  82.717  0.00  0.00    +0.000 C 
ATOM      6  C   UNL     1      75.364  57.993  82.540  0.00  0.00    +0.000 C 
ATOM      7  C   UNL     1      71.781  56.307  81.810  0.00  0.00    +0.000 C 
ATOM      8  C   UNL     1      73.017  57.165  81.688  0.00  0.00    +0.000 C 
ATOM      9  C   UNL     1      69.935  55.764  83.407  0.00  0.00    +0.000 C 
ATOM     10  C   UNL     1      71.398  56.260  85.219  0.00  0.00    +0.000 C 
ATOM     11  C   UNL     1      74.432  56.846  85.057  0.00  0.00    +0.000 C 
ATOM     12  C   UNL     1      69.967  56.247  84.743  0.00  0.00    +0.000 C 
ATOM     13  C   UNL     1      76.149  58.375  83.947  0.00  0.00    +0.000 C 
ATOM     14  C   UNL     1      75.678  57.679  85.088  0.00  0.00    +0.000 C 
ATOM     15  C   UNL     1      71.531  53.937  82.627  0.00  0.00    +0.000 C 
ATOM     16  C   UNL     1      75.203  59.330  81.876  0.00  0.00    +0.000 C 
ATOM     17  C   UNL     1      76.309  57.062  81.732  0.00  0.00    +0.000 C 
ATOM     18  C   UNL     1      75.711  60.745  82.234  0.00  0.00    +0.000 C 
ATOM     19  C   UNL     1      76.552  59.618  84.106  0.00  0.00    +0.000 C 
ATOM     20  C   UNL     1      76.471  60.918  83.456  0.00  0.00    +0.000 C 
ENDROOT
BRANCH   9  21
ATOM     21  O   UNL     1      68.832  55.070  82.943  0.00  0.00    +0.000 OA
ATOM     22  H   UNL     1      68.830  55.015  81.968  0.00  0.00    +0.000 HD
ENDBRANCH   9  21
TORSDOF 1
ENDMDL
MODEL 6
REMARK VINA RESULT:      -5.5     24.656     26.391
REMARK  Name = Testosterone.pdbqt.pdb
REMARK  1 active torsions:
REMARK  status: ('A' for Active; 'I' for Inactive)
REMARK    1  A    between atoms: C_9  and  O_21
REMARK                            x       y       z     vdW  Elec       q    Type
REMARK                         _______ _______ _______ _____ _____    ______ ____
ROOT
ATOM      1  O   UNL     1      68.544  48.585  52.269  0.00  0.00    +0.000 OA
ATOM      2  C   UNL     1      64.518  50.062  58.611  0.00  0.00    +0.000 C 
ATOM      3  C   UNL     1      62.973  50.487  58.556  0.00  0.00    +0.000 C 
ATOM      4  C   UNL     1      65.129  49.234  57.552  0.00  0.00    +0.000 C 
ATOM      5  C   UNL     1      64.541  48.954  56.197  0.00  0.00    +0.000 C 
ATOM      6  C   UNL     1      65.180  48.007  55.158  0.00  0.00    +0.000 C 
ATOM      7  C   UNL     1      62.563  50.319  57.161  0.00  0.00    +0.000 C 
ATOM      8  C   UNL     1      63.272  49.582  56.052  0.00  0.00    +0.000 C 
ATOM      9  C   UNL     1      62.989  51.973  58.987  0.00  0.00    +0.000 C 
ATOM     10  C   UNL     1      65.234  51.190  59.129  0.00  0.00    +0.000 C 
ATOM     11  C   UNL     1      66.446  48.737  57.685  0.00  0.00    +0.000 C 
ATOM     12  C   UNL     1      64.315  52.373  59.308  0.00  0.00    +0.000 C 
ATOM     13  C   UNL     1      66.794  47.708  55.375  0.00  0.00    +0.000 C 
ATOM     14  C   UNL     1      67.276  48.005  56.674  0.00  0.00    +0.000 C 
ATOM     15  C   UNL     1      62.146  49.635  59.551  0.00  0.00    +0.000 C 
ATOM     16  C   UNL     1      65.137  48.626  53.792  0.00  0.00    +0.000 C 
ATOM     17  C   UNL     1      64.457  46.632  55.188  0.00  0.00    +0.000 C 
ATOM     18  C   UNL     1      66.219  48.855  52.711  0.00  0.00    +0.000 C 
ATOM     19  C   UNL     1      67.599  47.921  54.355  0.00  0.00    +0.000 C 
ATOM     20  C   UNL     1      67.582  48.456  53.002  0.00  0.00    +0.000 C 
ENDROOT
BRANCH   9  21
ATOM     21  O   UNL     1      61.911  52.570  59.616  0.00  0.00    +0.000 OA
ATOM     22  H   UNL     1      61.767  53.479  59.287  0.00  0.00    +0.000 HD
ENDBRANCH   9  21
TORSDOF 1
ENDMDL
MODEL 7
REMARK VINA RESULT:      -5.4     23.567     25.315
REMARK  Name = Testosterone.pdbqt.pdb
REMARK  1 active torsions:
REMARK  status: ('A' for Active; 'I' for Inactive)
REMARK    1  A    between atoms: C_9  and  O_21
REMARK                            x       y       z     vdW  Elec       q    Type
REMARK                         _______ _______ _______ _____ _____    ______ ____
ROOT
ATOM      1  O   UNL     1      58.697  52.179  56.544  0.00  0.00    +0.000 OA
ATOM      2  C   UNL     1      65.736  50.376  58.954  0.00  0.00    +0.000 C 
ATOM      3  C   UNL     1      66.976  51.374  58.774  0.00  0.00    +0.000 C 
ATOM      4  C   UNL     1      64.351  50.876  59.060  0.00  0.00    +0.000 C 
ATOM      5  C   UNL     1      63.881  52.262  58.712  0.00  0.00    +0.000 C 
ATOM      6  C   UNL     1      62.435  52.761  58.926  0.00  0.00    +0.000 C 
ATOM      7  C   UNL     1      66.408  52.633  58.287  0.00  0.00    +0.000 C 
ATOM      8  C   UNL     1      64.965  53.073  58.276  0.00  0.00    +0.000 C 
ATOM      9  C   UNL     1      67.854  50.676  57.707  0.00  0.00    +0.000 C 
ATOM     10  C   UNL     1      66.014  49.228  58.142  0.00  0.00    +0.000 C 
ATOM     11  C   UNL     1      63.282  50.004  59.371  0.00  0.00    +0.000 C 
ATOM     12  C   UNL     1      67.275  49.431  57.340  0.00  0.00    +0.000 C 
ATOM     13  C   UNL     1      61.292  51.572  59.069  0.00  0.00    +0.000 C 
ATOM     14  C   UNL     1      61.812  50.293  59.388  0.00  0.00    +0.000 C 
ATOM     15  C   UNL     1      67.747  51.521  60.109  0.00  0.00    +0.000 C 
ATOM     16  C   UNL     1      61.967  53.532  57.727  0.00  0.00    +0.000 C 
ATOM     17  C   UNL     1      62.363  53.616  60.221  0.00  0.00    +0.000 C 
ATOM     18  C   UNL     1      60.698  53.434  56.849  0.00  0.00    +0.000 C 
ATOM     19  C   UNL     1      60.245  51.631  58.272  0.00  0.00    +0.000 C 
ATOM     20  C   UNL     1      59.729  52.398  57.148  0.00  0.00    +0.000 C 
ENDROOT
BRANCH   9  21
ATOM     21  O   UNL     1      69.225  50.850  57.652  0.00  0.00    +0.000 OA
ATOM     22  H   UNL     1      69.694  49.994  57.699  0.00  0.00    +0.000 HD
ENDBRANCH   9  21
TORSDOF 1
ENDMDL
MODEL 8
REMARK VINA RESULT:      -5.4     23.534     25.377
REMARK  Name = Testosterone.pdbqt.pdb
REMARK  1 active torsions:
REMARK  status: ('A' for Active; 'I' for Inactive)
REMARK    1  A    between atoms: C_9  and  O_21
REMARK                            x       y       z     vdW  Elec       q    Type
REMARK                         _______ _______ _______ _____ _____    ______ ____
ROOT
ATOM      1  O   UNL     1      66.157  50.941  55.161  0.00  0.00    +0.000 OA
ATOM      2  C   UNL     1      63.087  55.254  60.690  0.00  0.00    +0.000 C 
ATOM      3  C   UNL     1      61.512  55.544  60.765  0.00  0.00    +0.000 C 
ATOM      4  C   UNL     1      63.617  54.029  60.060  0.00  0.00    +0.000 C 
ATOM      5  C   UNL     1      62.854  53.090  59.167  0.00  0.00    +0.000 C 
ATOM      6  C   UNL     1      63.432  51.772  58.606  0.00  0.00    +0.000 C 
ATOM      7  C   UNL     1      60.901  54.688  59.747  0.00  0.00    +0.000 C 
ATOM      8  C   UNL     1      61.507  53.520  59.009  0.00  0.00    +0.000 C 
ATOM      9  C   UNL     1      61.402  57.047  60.411  0.00  0.00    +0.000 C 
ATOM     10  C   UNL     1      63.723  56.513  60.436  0.00  0.00    +0.000 C 
ATOM     11  C   UNL     1      64.993  53.708  60.134  0.00  0.00    +0.000 C 
ATOM     12  C   UNL     1      62.697  57.596  60.211  0.00  0.00    +0.000 C 
ATOM     13  C   UNL     1      65.084  51.675  58.594  0.00  0.00    +0.000 C 
ATOM     14  C   UNL     1      65.732  52.597  59.453  0.00  0.00    +0.000 C 
ATOM     15  C   UNL     1      60.983  55.276  62.196  0.00  0.00    +0.000 C 
ATOM     16  C   UNL     1      63.079  51.625  57.155  0.00  0.00    +0.000 C 
ATOM     17  C   UNL     1      62.914  50.573  59.447  0.00  0.00    +0.000 C 
ATOM     18  C   UNL     1      63.924  51.318  55.897  0.00  0.00    +0.000 C 
ATOM     19  C   UNL     1      65.672  51.377  57.454  0.00  0.00    +0.000 C 
ATOM     20  C   UNL     1      65.357  51.163  56.049  0.00  0.00    +0.000 C 
ENDROOT
BRANCH   9  21
ATOM     21  O   UNL     1      60.374  57.841  60.885  0.00  0.00    +0.000 OA
ATOM     22  H   UNL     1      59.661  57.932  60.223  0.00  0.00    +0.000 HD
ENDBRANCH   9  21
TORSDOF 1
ENDMDL
MODEL 9
REMARK VINA RESULT:      -5.4     24.674     26.743
REMARK  Name = Testosterone.pdbqt.pdb
REMARK  1 active torsions:
REMARK  status: ('A' for Active; 'I' for Inactive)
REMARK    1  A    between atoms: C_9  and  O_21
REMARK                            x       y       z     vdW  Elec       q    Type
REMARK                         _______ _______ _______ _____ _____    ______ ____
ROOT
ATOM      1  O   UNL     1      67.589  55.935  55.488  0.00  0.00    +0.000 OA
ATOM      2  C   UNL     1      62.513  56.690  61.169  0.00  0.00    +0.000 C 
ATOM      3  C   UNL     1      61.599  55.467  61.659  0.00  0.00    +0.000 C 
ATOM      4  C   UNL     1      63.834  56.466  60.549  0.00  0.00    +0.000 C 
ATOM      5  C   UNL     1      64.353  55.159  60.017  0.00  0.00    +0.000 C 
ATOM      6  C   UNL     1      65.779  54.960  59.459  0.00  0.00    +0.000 C 
ATOM      7  C   UNL     1      62.103  54.286  60.956  0.00  0.00    +0.000 C 
ATOM      8  C   UNL     1      63.401  54.118  60.205  0.00  0.00    +0.000 C 
ATOM      9  C   UNL     1      60.178  55.865  61.192  0.00  0.00    +0.000 C 
ATOM     10  C   UNL     1      61.625  57.665  60.610  0.00  0.00    +0.000 C 
ATOM     11  C   UNL     1      64.697  57.549  60.261  0.00  0.00    +0.000 C 
ATOM     12  C   UNL     1      60.209  57.144  60.573  0.00  0.00    +0.000 C 
ATOM     13  C   UNL     1      66.551  56.346  58.986  0.00  0.00    +0.000 C 
ATOM     14  C   UNL     1      65.999  57.536  59.520  0.00  0.00    +0.000 C 
ATOM     15  C   UNL     1      61.655  55.339  63.201  0.00  0.00    +0.000 C 
ATOM     16  C   UNL     1      65.736  54.154  58.194  0.00  0.00    +0.000 C 
ATOM     17  C   UNL     1      66.674  54.288  60.537  0.00  0.00    +0.000 C 
ATOM     18  C   UNL     1      66.338  54.380  56.787  0.00  0.00    +0.000 C 
ATOM     19  C   UNL     1      67.041  56.387  57.764  0.00  0.00    +0.000 C 
ATOM     20  C   UNL     1      67.075  55.602  56.539  0.00  0.00    +0.000 C 
ENDROOT
BRANCH   9  21
ATOM     21  O   UNL     1      59.040  55.439  61.852  0.00  0.00    +0.000 OA
ATOM     22  H   UNL     1      59.182  55.401  62.818  0.00  0.00    +0.000 HD
ENDBRANCH   9  21
TORSDOF 1
ENDMDL
