MODEL 1
REMARK VINA RESULT:      -3.0      0.000      0.000
REMARK  Name = Tetrachloroethylene.pdbqt.pdb
REMARK  0 active torsions:
REMARK  status: ('A' for Active; 'I' for Inactive)
REMARK                            x       y       z     vdW  Elec       q    Type
REMARK                         _______ _______ _______ _____ _____    ______ ____
ROOT
ATOM      1 CL   UNL     1      70.824  47.488  76.368  0.00  0.00    +0.000 Cl
ATOM      2 CL   UNL     1      68.989  49.749  76.062  0.00  0.00    +0.000 Cl
ATOM      3 CL   UNL     1      66.914  48.338  78.077  0.00  0.00    +0.000 Cl
ATOM      4 CL   UNL     1      68.749  46.077  78.383  0.00  0.00    +0.000 Cl
ATOM      5  C   UNL     1      69.302  48.208  76.802  0.00  0.00    +0.000 C 
ATOM      6  C   UNL     1      68.436  47.619  77.643  0.00  0.00    +0.000 C 
ENDROOT
TORSDOF 0
ENDMDL
MODEL 2
REMARK VINA RESULT:      -3.0      0.604      2.654
REMARK  Name = Tetrachloroethylene.pdbqt.pdb
REMARK  0 active torsions:
REMARK  status: ('A' for Active; 'I' for Inactive)
REMARK                            x       y       z     vdW  Elec       q    Type
REMARK                         _______ _______ _______ _____ _____    ______ ____
ROOT
ATOM      1 CL   UNL     1      68.663  45.856  78.412  0.00  0.00    +0.000 Cl
ATOM      2 CL   UNL     1      70.647  47.003  76.589  0.00  0.00    +0.000 Cl
ATOM      3 CL   UNL     1      68.821  49.632  76.256  0.00  0.00    +0.000 Cl
ATOM      4 CL   UNL     1      66.838  48.485  78.079  0.00  0.00    +0.000 Cl
ATOM      5  C   UNL     1      69.124  47.195  77.403  0.00  0.00    +0.000 C 
ATOM      6  C   UNL     1      68.361  48.293  77.264  0.00  0.00    +0.000 C 
ENDROOT
TORSDOF 0
ENDMDL
MODEL 3
REMARK VINA RESULT:      -2.9     27.445     27.815
REMARK  Name = Tetrachloroethylene.pdbqt.pdb
REMARK  0 active torsions:
REMARK  status: ('A' for Active; 'I' for Inactive)
REMARK                            x       y       z     vdW  Elec       q    Type
REMARK                         _______ _______ _______ _____ _____    ______ ____
ROOT
ATOM      1 CL   UNL     1      51.130  37.461  57.900  0.00  0.00    +0.000 Cl
ATOM      2 CL   UNL     1      50.195  35.971  60.240  0.00  0.00    +0.000 Cl
ATOM      3 CL   UNL     1      52.805  34.095  60.090  0.00  0.00    +0.000 Cl
ATOM      4 CL   UNL     1      53.741  35.585  57.749  0.00  0.00    +0.000 Cl
ATOM      5  C   UNL     1      51.423  36.170  59.026  0.00  0.00    +0.000 C 
ATOM      6  C   UNL     1      52.513  35.387  58.963  0.00  0.00    +0.000 C 
ENDROOT
TORSDOF 0
ENDMDL
MODEL 4
REMARK VINA RESULT:      -2.7      8.854      9.499
REMARK  Name = Tetrachloroethylene.pdbqt.pdb
REMARK  0 active torsions:
REMARK  status: ('A' for Active; 'I' for Inactive)
REMARK                            x       y       z     vdW  Elec       q    Type
REMARK                         _______ _______ _______ _____ _____    ______ ____
ROOT
ATOM      1 CL   UNL     1      72.675  57.554  81.501  0.00  0.00    +0.000 Cl
ATOM      2 CL   UNL     1      72.206  55.567  79.402  0.00  0.00    +0.000 Cl
ATOM      3 CL   UNL     1      69.930  54.190  81.214  0.00  0.00    +0.000 Cl
ATOM      4 CL   UNL     1      70.399  56.177  83.313  0.00  0.00    +0.000 Cl
ATOM      5  C   UNL     1      71.778  56.160  80.979  0.00  0.00    +0.000 C 
ATOM      6  C   UNL     1      70.827  55.585  81.736  0.00  0.00    +0.000 C 
ENDROOT
TORSDOF 0
ENDMDL
MODEL 5
REMARK VINA RESULT:      -2.7      7.658      8.788
REMARK  Name = Tetrachloroethylene.pdbqt.pdb
REMARK  0 active torsions:
REMARK  status: ('A' for Active; 'I' for Inactive)
REMARK                            x       y       z     vdW  Elec       q    Type
REMARK                         _______ _______ _______ _____ _____    ______ ____
ROOT
ATOM      1 CL   UNL     1      69.785  54.698  82.204  0.00  0.00    +0.000 Cl
ATOM      2 CL   UNL     1      70.738  52.780  80.208  0.00  0.00    +0.000 Cl
ATOM      3 CL   UNL     1      72.703  55.021  78.994  0.00  0.00    +0.000 Cl
ATOM      4 CL   UNL     1      71.749  56.939  80.990  0.00  0.00    +0.000 Cl
ATOM      5  C   UNL     1      70.834  54.391  80.853  0.00  0.00    +0.000 C 
ATOM      6  C   UNL     1      71.654  55.327  80.346  0.00  0.00    +0.000 C 
ENDROOT
TORSDOF 0
ENDMDL
MODEL 6
REMARK VINA RESULT:      -2.7      8.627      9.557
REMARK  Name = Tetrachloroethylene.pdbqt.pdb
REMARK  0 active torsions:
REMARK  status: ('A' for Active; 'I' for Inactive)
REMARK                            x       y       z     vdW  Elec       q    Type
REMARK                         _______ _______ _______ _____ _____    ______ ____
ROOT
ATOM      1 CL   UNL     1      70.172  53.837  81.044  0.00  0.00    +0.000 Cl
ATOM      2 CL   UNL     1      70.397  55.840  83.168  0.00  0.00    +0.000 Cl
ATOM      3 CL   UNL     1      72.487  57.506  81.376  0.00  0.00    +0.000 Cl
ATOM      4 CL   UNL     1      72.262  55.503  79.252  0.00  0.00    +0.000 Cl
ATOM      5  C   UNL     1      70.893  55.324  81.584  0.00  0.00    +0.000 C 
ATOM      6  C   UNL     1      71.766  56.019  80.836  0.00  0.00    +0.000 C 
ENDROOT
TORSDOF 0
ENDMDL
MODEL 7
REMARK VINA RESULT:      -2.6     21.290     22.751
REMARK  Name = Tetrachloroethylene.pdbqt.pdb
REMARK  0 active torsions:
REMARK  status: ('A' for Active; 'I' for Inactive)
REMARK                            x       y       z     vdW  Elec       q    Type
REMARK                         _______ _______ _______ _____ _____    ______ ____
ROOT
ATOM      1 CL   UNL     1      60.904  69.771  69.324  0.00  0.00    +0.000 Cl
ATOM      2 CL   UNL     1      59.407  67.855  70.955  0.00  0.00    +0.000 Cl
ATOM      3 CL   UNL     1      61.100  65.438  69.671  0.00  0.00    +0.000 Cl
ATOM      4 CL   UNL     1      62.597  67.354  68.040  0.00  0.00    +0.000 Cl
ATOM      5  C   UNL     1      60.649  68.109  69.766  0.00  0.00    +0.000 C 
ATOM      6  C   UNL     1      61.356  67.100  69.229  0.00  0.00    +0.000 C 
ENDROOT
TORSDOF 0
ENDMDL
MODEL 8
REMARK VINA RESULT:      -2.6     28.466     28.796
REMARK  Name = Tetrachloroethylene.pdbqt.pdb
REMARK  0 active torsions:
REMARK  status: ('A' for Active; 'I' for Inactive)
REMARK                            x       y       z     vdW  Elec       q    Type
REMARK                         _______ _______ _______ _____ _____    ______ ____
ROOT
ATOM      1 CL   UNL     1      50.960  33.285  58.736  0.00  0.00    +0.000 Cl
ATOM      2 CL   UNL     1      51.999  34.852  56.492  0.00  0.00    +0.000 Cl
ATOM      3 CL   UNL     1      51.344  37.569  58.086  0.00  0.00    +0.000 Cl
ATOM      4 CL   UNL     1      50.305  36.002  60.331  0.00  0.00    +0.000 Cl
ATOM      5  C   UNL     1      51.289  34.860  58.078  0.00  0.00    +0.000 C 
ATOM      6  C   UNL     1      51.015  35.994  58.744  0.00  0.00    +0.000 C 
ENDROOT
TORSDOF 0
ENDMDL
MODEL 9
REMARK VINA RESULT:      -2.5     21.288     22.852
REMARK  Name = Tetrachloroethylene.pdbqt.pdb
REMARK  0 active torsions:
REMARK  status: ('A' for Active; 'I' for Inactive)
REMARK                            x       y       z     vdW  Elec       q    Type
REMARK                         _______ _______ _______ _____ _____    ______ ____
ROOT
ATOM      1 CL   UNL     1      59.488  67.676  70.901  0.00  0.00    +0.000 Cl
ATOM      2 CL   UNL     1      61.149  65.494  69.874  0.00  0.00    +0.000 Cl
ATOM      3 CL   UNL     1      62.716  67.574  67.985  0.00  0.00    +0.000 Cl
ATOM      4 CL   UNL     1      61.055  69.757  69.011  0.00  0.00    +0.000 Cl
ATOM      5  C   UNL     1      60.775  67.191  69.837  0.00  0.00    +0.000 C 
ATOM      6  C   UNL     1      61.429  68.060  69.048  0.00  0.00    +0.000 C 
ENDROOT
TORSDOF 0
ENDMDL
