MODEL 1
REMARK VINA RESULT:      -5.8      0.000      0.000
REMARK  Name = Thalidomide.pdbqt.pdb
REMARK  1 active torsions:
REMARK  status: ('A' for Active; 'I' for Inactive)
REMARK    1  A    between atoms: N_3  and  C_12
REMARK                            x       y       z     vdW  Elec       q    Type
REMARK                         _______ _______ _______ _____ _____    ______ ____
ROOT
ATOM      1  O   UNL     1      43.671  40.636  71.406  0.00  0.00    +0.000 OA
ATOM      2  O   UNL     1      45.392  44.628  69.900  0.00  0.00    +0.000 OA
ATOM      3  N   UNL     1      44.149  42.670  70.316  0.00  0.00    +0.000 N 
ATOM      4  C   UNL     1      44.188  41.734  71.325  0.00  0.00    +0.000 C 
ATOM      5  C   UNL     1      44.970  43.737  70.612  0.00  0.00    +0.000 C 
ATOM      6  C   UNL     1      44.996  42.303  72.398  0.00  0.00    +0.000 A 
ATOM      7  C   UNL     1      45.456  43.531  71.971  0.00  0.00    +0.000 A 
ATOM      8  C   UNL     1      45.322  41.785  73.635  0.00  0.00    +0.000 A 
ATOM      9  C   UNL     1      46.283  44.317  72.746  0.00  0.00    +0.000 A 
ATOM     10  C   UNL     1      46.146  42.569  74.444  0.00  0.00    +0.000 A 
ATOM     11  C   UNL     1      46.621  43.818  74.006  0.00  0.00    +0.000 A 
ENDROOT
BRANCH   3  12
ATOM     12  C   UNL     1      43.489  42.506  69.124  0.00  0.00    +0.000 C 
ATOM     13  C   UNL     1      42.136  42.866  68.932  0.00  0.00    +0.000 C 
ATOM     14  C   UNL     1      41.391  42.527  67.678  0.00  0.00    +0.000 C 
ATOM     15  C   UNL     1      42.017  41.863  66.573  0.00  0.00    +0.000 C 
ATOM     16  O   UNL     1      41.430  41.656  65.524  0.00  0.00    +0.000 OA
ATOM     17  N   UNL     1      43.352  41.549  66.814  0.00  0.00    +0.000 N 
ATOM     18  C   UNL     1      44.172  41.950  67.878  0.00  0.00    +0.000 C 
ATOM     19  H   UNL     1      43.851  41.205  66.007  0.00  0.00    +0.000 HD
ATOM     20  O   UNL     1      45.392  41.969  67.738  0.00  0.00    +0.000 OA
ENDBRANCH   3  12
TORSDOF 1
ENDMDL
MODEL 2
REMARK VINA RESULT:      -5.8     29.968     31.402
REMARK  Name = Thalidomide.pdbqt.pdb
REMARK  1 active torsions:
REMARK  status: ('A' for Active; 'I' for Inactive)
REMARK    1  A    between atoms: N_3  and  C_12
REMARK                            x       y       z     vdW  Elec       q    Type
REMARK                         _______ _______ _______ _____ _____    ______ ____
ROOT
ATOM      1  O   UNL     1      68.783  60.060  62.903  0.00  0.00    +0.000 OA
ATOM      2  O   UNL     1      69.721  60.620  67.372  0.00  0.00    +0.000 OA
ATOM      3  N   UNL     1      68.956  60.757  65.147  0.00  0.00    +0.000 N 
ATOM      4  C   UNL     1      69.008  59.882  64.086  0.00  0.00    +0.000 C 
ATOM      5  C   UNL     1      69.392  60.144  66.302  0.00  0.00    +0.000 C 
ATOM      6  C   UNL     1      69.386  58.582  64.627  0.00  0.00    +0.000 A 
ATOM      7  C   UNL     1      69.601  58.738  65.981  0.00  0.00    +0.000 A 
ATOM      8  C   UNL     1      69.551  57.369  63.992  0.00  0.00    +0.000 A 
ATOM      9  C   UNL     1      70.008  57.695  66.786  0.00  0.00    +0.000 A 
ATOM     10  C   UNL     1      69.948  56.293  64.788  0.00  0.00    +0.000 A 
ATOM     11  C   UNL     1      70.174  56.453  66.167  0.00  0.00    +0.000 A 
ENDROOT
BRANCH   3  12
ATOM     12  C   UNL     1      68.641  62.090  65.048  0.00  0.00    +0.000 C 
ATOM     13  C   UNL     1      69.593  63.089  64.748  0.00  0.00    +0.000 C 
ATOM     14  C   UNL     1      69.262  64.549  64.808  0.00  0.00    +0.000 C 
ATOM     15  C   UNL     1      67.946  65.022  65.122  0.00  0.00    +0.000 C 
ATOM     16  O   UNL     1      67.660  66.207  65.097  0.00  0.00    +0.000 OA
ATOM     17  N   UNL     1      67.049  63.991  65.393  0.00  0.00    +0.000 N 
ATOM     18  C   UNL     1      67.217  62.610  65.218  0.00  0.00    +0.000 C 
ATOM     19  H   UNL     1      66.089  64.288  65.483  0.00  0.00    +0.000 HD
ATOM     20  O   UNL     1      66.235  61.887  65.078  0.00  0.00    +0.000 OA
ENDBRANCH   3  12
TORSDOF 1
ENDMDL
MODEL 3
REMARK VINA RESULT:      -5.8     49.360     50.996
REMARK  Name = Thalidomide.pdbqt.pdb
REMARK  1 active torsions:
REMARK  status: ('A' for Active; 'I' for Inactive)
REMARK    1  A    between atoms: N_3  and  C_12
REMARK                            x       y       z     vdW  Elec       q    Type
REMARK                         _______ _______ _______ _____ _____    ______ ____
ROOT
ATOM      1  O   UNL     1      77.918  79.395  82.402  0.00  0.00    +0.000 OA
ATOM      2  O   UNL     1      74.996  82.375  80.466  0.00  0.00    +0.000 OA
ATOM      3  N   UNL     1      76.471  80.617  81.000  0.00  0.00    +0.000 N 
ATOM      4  C   UNL     1      77.009  80.176  82.187  0.00  0.00    +0.000 C 
ATOM      5  C   UNL     1      75.516  81.583  81.229  0.00  0.00    +0.000 C 
ATOM      6  C   UNL     1      76.255  80.819  83.258  0.00  0.00    +0.000 A 
ATOM      7  C   UNL     1      75.333  81.661  82.673  0.00  0.00    +0.000 A 
ATOM      8  C   UNL     1      76.376  80.697  84.626  0.00  0.00    +0.000 A 
ATOM      9  C   UNL     1      74.480  82.448  83.418  0.00  0.00    +0.000 A 
ATOM     10  C   UNL     1      75.513  81.472  85.403  0.00  0.00    +0.000 A 
ATOM     11  C   UNL     1      74.577  82.336  84.807  0.00  0.00    +0.000 A 
ENDROOT
BRANCH   3  12
ATOM     12  C   UNL     1      76.913  80.243  79.755  0.00  0.00    +0.000 C 
ATOM     13  C   UNL     1      77.767  81.045  78.965  0.00  0.00    +0.000 C 
ATOM     14  C   UNL     1      78.102  80.696  77.547  0.00  0.00    +0.000 C 
ATOM     15  C   UNL     1      77.621  79.501  76.920  0.00  0.00    +0.000 C 
ATOM     16  O   UNL     1      77.956  79.180  75.792  0.00  0.00    +0.000 OA
ATOM     17  N   UNL     1      76.799  78.745  77.752  0.00  0.00    +0.000 N 
ATOM     18  C   UNL     1      76.549  78.903  79.123  0.00  0.00    +0.000 C 
ATOM     19  H   UNL     1      76.558  77.836  77.385  0.00  0.00    +0.000 HD
ATOM     20  O   UNL     1      76.178  77.944  79.793  0.00  0.00    +0.000 OA
ENDBRANCH   3  12
TORSDOF 1
ENDMDL
MODEL 4
REMARK VINA RESULT:      -5.7      1.827      6.109
REMARK  Name = Thalidomide.pdbqt.pdb
REMARK  1 active torsions:
REMARK  status: ('A' for Active; 'I' for Inactive)
REMARK    1  A    between atoms: N_3  and  C_12
REMARK                            x       y       z     vdW  Elec       q    Type
REMARK                         _______ _______ _______ _____ _____    ______ ____
ROOT
ATOM      1  O   UNL     1      42.076  43.762  70.545  0.00  0.00    +0.000 OA
ATOM      2  O   UNL     1      45.639  41.651  68.540  0.00  0.00    +0.000 OA
ATOM      3  N   UNL     1      44.080  42.648  69.999  0.00  0.00    +0.000 N 
ATOM      4  C   UNL     1      42.782  43.074  69.831  0.00  0.00    +0.000 C 
ATOM      5  C   UNL     1      44.515  41.967  68.883  0.00  0.00    +0.000 C 
ATOM      6  C   UNL     1      42.314  42.517  68.566  0.00  0.00    +0.000 A 
ATOM      7  C   UNL     1      43.364  41.826  67.999  0.00  0.00    +0.000 A 
ATOM      8  C   UNL     1      41.084  42.621  67.951  0.00  0.00    +0.000 A 
ATOM      9  C   UNL     1      43.259  41.206  66.772  0.00  0.00    +0.000 A 
ATOM     10  C   UNL     1      40.947  41.987  66.714  0.00  0.00    +0.000 A 
ATOM     11  C   UNL     1      42.020  41.290  66.132  0.00  0.00    +0.000 A 
ENDROOT
BRANCH   3  12
ATOM     12  C   UNL     1      44.875  42.968  71.072  0.00  0.00    +0.000 C 
ATOM     13  C   UNL     1      44.900  42.216  72.267  0.00  0.00    +0.000 C 
ATOM     14  C   UNL     1      45.647  42.675  73.481  0.00  0.00    +0.000 C 
ATOM     15  C   UNL     1      46.425  43.878  73.491  0.00  0.00    +0.000 C 
ATOM     16  O   UNL     1      47.094  44.211  74.456  0.00  0.00    +0.000 OA
ATOM     17  N   UNL     1      46.375  44.567  72.282  0.00  0.00    +0.000 N 
ATOM     18  C   UNL     1      45.836  44.153  71.055  0.00  0.00    +0.000 C 
ATOM     19  H   UNL     1      47.018  45.342  72.216  0.00  0.00    +0.000 HD
ATOM     20  O   UNL     1      46.241  44.651  70.009  0.00  0.00    +0.000 OA
ENDBRANCH   3  12
TORSDOF 1
ENDMDL
MODEL 5
REMARK VINA RESULT:      -5.7      1.815      6.107
REMARK  Name = Thalidomide.pdbqt.pdb
REMARK  1 active torsions:
REMARK  status: ('A' for Active; 'I' for Inactive)
REMARK    1  A    between atoms: N_3  and  C_12
REMARK                            x       y       z     vdW  Elec       q    Type
REMARK                         _______ _______ _______ _____ _____    ______ ____
ROOT
ATOM      1  O   UNL     1      45.603  41.305  68.668  0.00  0.00    +0.000 OA
ATOM      2  O   UNL     1      42.016  43.466  70.574  0.00  0.00    +0.000 OA
ATOM      3  N   UNL     1      44.129  42.660  69.910  0.00  0.00    +0.000 N 
ATOM      4  C   UNL     1      44.539  41.862  68.866  0.00  0.00    +0.000 C 
ATOM      5  C   UNL     1      42.799  42.994  69.771  0.00  0.00    +0.000 C 
ATOM      6  C   UNL     1      43.423  41.783  67.930  0.00  0.00    +0.000 A 
ATOM      7  C   UNL     1      42.371  42.490  68.472  0.00  0.00    +0.000 A 
ATOM      8  C   UNL     1      43.326  41.134  66.717  0.00  0.00    +0.000 A 
ATOM      9  C   UNL     1      41.146  42.582  67.845  0.00  0.00    +0.000 A 
ATOM     10  C   UNL     1      42.100  41.225  66.055  0.00  0.00    +0.000 A 
ATOM     11  C   UNL     1      41.024  41.939  66.611  0.00  0.00    +0.000 A 
ENDROOT
BRANCH   3  12
ATOM     12  C   UNL     1      44.897  42.973  71.004  0.00  0.00    +0.000 C 
ATOM     13  C   UNL     1      44.892  42.213  72.195  0.00  0.00    +0.000 C 
ATOM     14  C   UNL     1      45.609  42.664  73.431  0.00  0.00    +0.000 C 
ATOM     15  C   UNL     1      46.386  43.866  73.468  0.00  0.00    +0.000 C 
ATOM     16  O   UNL     1      47.030  44.193  74.451  0.00  0.00    +0.000 OA
ATOM     17  N   UNL     1      46.366  44.563  72.262  0.00  0.00    +0.000 N 
ATOM     18  C   UNL     1      45.859  44.157  71.019  0.00  0.00    +0.000 C 
ATOM     19  H   UNL     1      47.011  45.338  72.217  0.00  0.00    +0.000 HD
ATOM     20  O   UNL     1      46.290  44.663  69.987  0.00  0.00    +0.000 OA
ENDBRANCH   3  12
TORSDOF 1
ENDMDL
MODEL 6
REMARK VINA RESULT:      -5.7     22.519     23.769
REMARK  Name = Thalidomide.pdbqt.pdb
REMARK  1 active torsions:
REMARK  status: ('A' for Active; 'I' for Inactive)
REMARK    1  A    between atoms: N_3  and  C_12
REMARK                            x       y       z     vdW  Elec       q    Type
REMARK                         _______ _______ _______ _____ _____    ______ ____
ROOT
ATOM      1  O   UNL     1      59.673  52.681  59.325  0.00  0.00    +0.000 OA
ATOM      2  O   UNL     1      63.801  54.713  59.313  0.00  0.00    +0.000 OA
ATOM      3  N   UNL     1      61.534  54.109  59.542  0.00  0.00    +0.000 N 
ATOM      4  C   UNL     1      60.865  52.916  59.393  0.00  0.00    +0.000 C 
ATOM      5  C   UNL     1      62.897  53.914  59.468  0.00  0.00    +0.000 C 
ATOM      6  C   UNL     1      61.877  51.867  59.344  0.00  0.00    +0.000 A 
ATOM      7  C   UNL     1      63.114  52.474  59.410  0.00  0.00    +0.000 A 
ATOM      8  C   UNL     1      61.734  50.500  59.230  0.00  0.00    +0.000 A 
ATOM      9  C   UNL     1      64.290  51.756  59.351  0.00  0.00    +0.000 A 
ATOM     10  C   UNL     1      62.910  49.749  59.185  0.00  0.00    +0.000 A 
ATOM     11  C   UNL     1      64.171  50.368  59.245  0.00  0.00    +0.000 A 
ENDROOT
BRANCH   3  12
ATOM     12  C   UNL     1      60.931  55.340  59.623  0.00  0.00    +0.000 C 
ATOM     13  C   UNL     1      60.600  56.114  58.488  0.00  0.00    +0.000 C 
ATOM     14  C   UNL     1      60.096  57.520  58.603  0.00  0.00    +0.000 C 
ATOM     15  C   UNL     1      59.867  58.150  59.869  0.00  0.00    +0.000 C 
ATOM     16  O   UNL     1      59.385  59.266  59.962  0.00  0.00    +0.000 OA
ATOM     17  N   UNL     1      60.196  57.333  60.949  0.00  0.00    +0.000 N 
ATOM     18  C   UNL     1      60.527  55.970  60.952  0.00  0.00    +0.000 C 
ATOM     19  H   UNL     1      59.919  57.698  61.848  0.00  0.00    +0.000 HD
ATOM     20  O   UNL     1      60.361  55.302  61.969  0.00  0.00    +0.000 OA
ENDBRANCH   3  12
TORSDOF 1
ENDMDL
MODEL 7
REMARK VINA RESULT:      -5.7     22.812     24.031
REMARK  Name = Thalidomide.pdbqt.pdb
REMARK  1 active torsions:
REMARK  status: ('A' for Active; 'I' for Inactive)
REMARK    1  A    between atoms: N_3  and  C_12
REMARK                            x       y       z     vdW  Elec       q    Type
REMARK                         _______ _______ _______ _____ _____    ______ ____
ROOT
ATOM      1  O   UNL     1      64.224  54.557  59.211  0.00  0.00    +0.000 OA
ATOM      2  O   UNL     1      60.731  51.584  59.577  0.00  0.00    +0.000 OA
ATOM      3  N   UNL     1      62.159  53.421  59.202  0.00  0.00    +0.000 N 
ATOM      4  C   UNL     1      63.529  53.557  59.212  0.00  0.00    +0.000 C 
ATOM      5  C   UNL     1      61.803  52.094  59.312  0.00  0.00    +0.000 C 
ATOM      6  C   UNL     1      64.088  52.211  59.205  0.00  0.00    +0.000 A 
ATOM      7  C   UNL     1      63.037  51.319  59.245  0.00  0.00    +0.000 A 
ATOM      8  C   UNL     1      65.404  51.795  59.185  0.00  0.00    +0.000 A 
ATOM      9  C   UNL     1      63.230  49.955  59.284  0.00  0.00    +0.000 A 
ATOM     10  C   UNL     1      65.626  50.417  59.208  0.00  0.00    +0.000 A 
ATOM     11  C   UNL     1      64.554  49.509  59.257  0.00  0.00    +0.000 A 
ENDROOT
BRANCH   3  12
ATOM     12  C   UNL     1      61.269  54.466  59.212  0.00  0.00    +0.000 C 
ATOM     13  C   UNL     1      60.505  54.842  58.085  0.00  0.00    +0.000 C 
ATOM     14  C   UNL     1      59.666  56.083  58.069  0.00  0.00    +0.000 C 
ATOM     15  C   UNL     1      59.545  56.939  59.211  0.00  0.00    +0.000 C 
ATOM     16  O   UNL     1      58.803  57.907  59.222  0.00  0.00    +0.000 OA
ATOM     17  N   UNL     1      60.307  56.509  60.295  0.00  0.00    +0.000 N 
ATOM     18  C   UNL     1      60.996  55.298  60.461  0.00  0.00    +0.000 C 
ATOM     19  H   UNL     1      60.136  57.013  61.152  0.00  0.00    +0.000 HD
ATOM     20  O   UNL     1      61.241  54.883  61.590  0.00  0.00    +0.000 OA
ENDBRANCH   3  12
TORSDOF 1
ENDMDL
MODEL 8
REMARK VINA RESULT:      -5.6     23.178     24.897
REMARK  Name = Thalidomide.pdbqt.pdb
REMARK  1 active torsions:
REMARK  status: ('A' for Active; 'I' for Inactive)
REMARK    1  A    between atoms: N_3  and  C_12
REMARK                            x       y       z     vdW  Elec       q    Type
REMARK                         _______ _______ _______ _____ _____    ______ ____
ROOT
ATOM      1  O   UNL     1      61.398  40.355  56.149  0.00  0.00    +0.000 OA
ATOM      2  O   UNL     1      64.090  39.053  52.652  0.00  0.00    +0.000 OA
ATOM      3  N   UNL     1      62.927  40.180  54.364  0.00  0.00    +0.000 N 
ATOM      4  C   UNL     1      62.141  39.741  55.406  0.00  0.00    +0.000 C 
ATOM      5  C   UNL     1      63.531  39.115  53.731  0.00  0.00    +0.000 C 
ATOM      6  C   UNL     1      62.357  38.303  55.522  0.00  0.00    +0.000 A 
ATOM      7  C   UNL     1      63.219  37.926  54.514  0.00  0.00    +0.000 A 
ATOM      8  C   UNL     1      61.830  37.396  56.418  0.00  0.00    +0.000 A 
ATOM      9  C   UNL     1      63.600  36.614  54.325  0.00  0.00    +0.000 A 
ATOM     10  C   UNL     1      62.214  36.063  56.257  0.00  0.00    +0.000 A 
ATOM     11  C   UNL     1      63.087  35.677  55.224  0.00  0.00    +0.000 A 
ENDROOT
BRANCH   3  12
ATOM     12  C   UNL     1      62.998  41.481  53.933  0.00  0.00    +0.000 C 
ATOM     13  C   UNL     1      64.052  42.355  54.282  0.00  0.00    +0.000 C 
ATOM     14  C   UNL     1      64.025  43.813  53.938  0.00  0.00    +0.000 C 
ATOM     15  C   UNL     1      62.955  44.402  53.189  0.00  0.00    +0.000 C 
ATOM     16  O   UNL     1      62.971  45.572  52.845  0.00  0.00    +0.000 OA
ATOM     17  N   UNL     1      61.955  43.489  52.861  0.00  0.00    +0.000 N 
ATOM     18  C   UNL     1      61.957  42.094  53.001  0.00  0.00    +0.000 C 
ATOM     19  H   UNL     1      61.260  43.844  52.220  0.00  0.00    +0.000 HD
ATOM     20  O   UNL     1      61.229  41.406  52.291  0.00  0.00    +0.000 OA
ENDBRANCH   3  12
TORSDOF 1
ENDMDL
MODEL 9
REMARK VINA RESULT:      -5.4     50.123     52.317
REMARK  Name = Thalidomide.pdbqt.pdb
REMARK  1 active torsions:
REMARK  status: ('A' for Active; 'I' for Inactive)
REMARK    1  A    between atoms: N_3  and  C_12
REMARK                            x       y       z     vdW  Elec       q    Type
REMARK                         _______ _______ _______ _____ _____    ______ ____
ROOT
ATOM      1  O   UNL     1      77.019  80.116  83.053  0.00  0.00    +0.000 OA
ATOM      2  O   UNL     1      75.345  82.940  79.830  0.00  0.00    +0.000 OA
ATOM      3  N   UNL     1      76.316  81.931  81.725  0.00  0.00    +0.000 N 
ATOM      4  C   UNL     1      76.706  80.640  82.000  0.00  0.00    +0.000 C 
ATOM      5  C   UNL     1      75.957  82.057  80.400  0.00  0.00    +0.000 C 
ATOM      6  C   UNL     1      76.714  79.921  80.731  0.00  0.00    +0.000 A 
ATOM      7  C   UNL     1      76.277  80.790  79.754  0.00  0.00    +0.000 A 
ATOM      8  C   UNL     1      77.054  78.613  80.454  0.00  0.00    +0.000 A 
ATOM      9  C   UNL     1      76.136  80.406  78.437  0.00  0.00    +0.000 A 
ATOM     10  C   UNL     1      76.935  78.204  79.124  0.00  0.00    +0.000 A 
ATOM     11  C   UNL     1      76.482  79.088  78.129  0.00  0.00    +0.000 A 
ENDROOT
BRANCH   3  12
ATOM     12  C   UNL     1      76.178  82.923  82.664  0.00  0.00    +0.000 C 
ATOM     13  C   UNL     1      77.115  83.967  82.829  0.00  0.00    +0.000 C 
ATOM     14  C   UNL     1      77.030  84.941  83.964  0.00  0.00    +0.000 C 
ATOM     15  C   UNL     1      75.966  84.907  84.923  0.00  0.00    +0.000 C 
ATOM     16  O   UNL     1      75.857  85.746  85.802  0.00  0.00    +0.000 OA
ATOM     17  N   UNL     1      75.067  83.868  84.699  0.00  0.00    +0.000 N 
ATOM     18  C   UNL     1      74.973  83.008  83.595  0.00  0.00    +0.000 C 
ATOM     19  H   UNL     1      74.238  83.902  85.274  0.00  0.00    +0.000 HD
ATOM     20  O   UNL     1      73.906  82.459  83.336  0.00  0.00    +0.000 OA
ENDBRANCH   3  12
TORSDOF 1
ENDMDL
