REMARK  Name = Thapsigargin.pdbqt.pdb
REMARK  10 active torsions:
REMARK  status: ('A' for Active; 'I' for Inactive)
REMARK    1  A    between atoms: O_2  and  C_24
REMARK    2  A    between atoms: C_17  and  O_43
REMARK    3  A    between atoms: C_19  and  C_24
REMARK    4  A    between atoms: C_19  and  O_47
REMARK    5  A    between atoms: C_27  and  C_35
REMARK    6  A    between atoms: C_35  and  C_36
REMARK    7  A    between atoms: C_37  and  C_38
REMARK    8  A    between atoms: C_39  and  C_40
REMARK    9  A    between atoms: C_42  and  O_43
REMARK   10  A    between atoms: C_42  and  C_44
REMARK                            x       y       z     vdW  Elec       q    Type
REMARK                         _______ _______ _______ _____ _____    ______ ____
ROOT
ATOM      1  O   UNL     1       8.577  -5.377   0.446  0.00  0.00    +0.000 OA
ATOM      2  O   UNL     1       5.601  -0.394  -1.290  0.00  0.00    +0.000 OA
ATOM      3  O   UNL     1       4.301  -1.156   0.777  0.00  0.00    +0.000 OA
ATOM      4  O   UNL     1       4.013  -4.332  -1.918  0.00  0.00    +0.000 OA
ATOM      5  O   UNL     1      10.281  -6.409   1.567  0.00  0.00    +0.000 OA
ATOM      6  O   UNL     1       5.444  -0.305   1.151  0.00  0.00    +0.000 OA
ATOM      7  O   UNL     1       1.951  -0.874   0.150  0.00  0.00    +0.000 OA
ATOM      8  O   UNL     1       4.431  -6.202  -0.327  0.00  0.00    +0.000 OA
ATOM      9  C   UNL     1       7.011  -2.472  -1.670  0.00  0.00    +0.000 C 
ATOM     10  C   UNL     1       9.565  -3.294   0.161  0.00  0.00    +0.000 C 
ATOM     11  C   UNL     1       8.435  -4.123  -0.134  0.00  0.00    +0.000 C 
ATOM     12  C   UNL     1       7.884  -1.264  -1.719  0.00  0.00    +0.000 C 
ATOM     13  C   UNL     1       7.383  -3.776  -0.907  0.00  0.00    +0.000 C 
ATOM     14  C   UNL     1       9.635  -2.140  -0.417  0.00  0.00    +0.000 C 
ATOM     15  C   UNL     1       9.142  -1.122  -1.261  0.00  0.00    +0.000 C 
ATOM     16  C   UNL     1       5.904  -2.859  -2.515  0.00  0.00    +0.000 C 
ATOM     17  C   UNL     1      10.512  -4.038   1.011  0.00  0.00    +0.000 C 
ATOM     18  C   UNL     1       5.383  -4.085  -2.054  0.00  0.00    +0.000 C 
ATOM     19  C   UNL     1       6.281  -4.684  -1.243  0.00  0.00    +0.000 C 
ATOM     20  C   UNL     1       6.676  -1.258  -0.873  0.00  0.00    +0.000 C 
ATOM     21  C   UNL     1       9.806  -5.395   1.064  0.00  0.00    +0.000 C 
ATOM     22  C   UNL     1       5.648  -5.711  -0.531  0.00  0.00    +0.000 C 
ATOM     23  C   UNL     1       6.239  -0.078  -0.045  0.00  0.00    +0.000 C 
ATOM     24  C   UNL     1       3.147  -0.375   0.651  0.00  0.00    +0.000 C 
ATOM     25  C   UNL     1       3.597  -5.145  -0.799  0.00  0.00    +0.000 C 
ATOM     26  C   UNL     1       6.957   1.278  -0.065  0.00  0.00    +0.000 C 
ATOM     27  C   UNL     1       2.554  -4.738  -0.046  0.00  0.00    +0.000 C 
ATOM     28  C   UNL     1       2.095  -5.519   1.165  0.00  0.00    +0.000 C 
ATOM     29  C   UNL     1       2.109  -3.387  -0.113  0.00  0.00    +0.000 C 
ATOM     30  C   UNL     1       1.984  -2.195  -0.018  0.00  0.00    +0.000 C 
ENDROOT
BRANCH  17  31
ATOM     31  O   UNL     1      11.791  -4.102   0.404  0.00  0.00    +0.000 OA
ATOM     32  H   UNL     1      12.313  -4.713   0.957  0.00  0.00    +0.000 HD
ENDBRANCH  17  31
BRANCH  17  33
ATOM     33  C   UNL     1      10.623  -3.412   2.341  0.00  0.00    +0.000 C 
BRANCH  33  34
ATOM     34  O   UNL     1      10.732  -2.826   3.532  0.00  0.00    +0.000 OA
ATOM     35  H   UNL     1      11.146  -1.946   3.454  0.00  0.00    +0.000 HD
ENDBRANCH  33  34
ENDBRANCH  17  33
BRANCH  24  36
ATOM     36  C   UNL     1       3.178   0.913   0.820  0.00  0.00    +0.000 C 
BRANCH  36  37
ATOM     37  C   UNL     1       3.239   2.436   0.975  0.00  0.00    +0.000 C 
ATOM     38  C   UNL     1       3.307   3.631   1.066  0.00  0.00    +0.000 C 
BRANCH  38  39
ATOM     39  C   UNL     1       3.407   5.157   1.158  0.00  0.00    +0.000 C 
ATOM     40  C   UNL     1       3.492   6.353   1.217  0.00  0.00    +0.000 C 
BRANCH  40  41
ATOM     41  C   UNL     1       3.602   7.879   1.284  0.00  0.00    +0.000 C 
ATOM     42  C   UNL     1       3.696   9.207   1.340  0.00  0.00    +0.000 C 
ENDBRANCH  40  41
ENDBRANCH  38  39
ENDBRANCH  36  37
ENDBRANCH  24  36
BRANCH  15  43
ATOM     43  O   UNL     1      10.005  -0.175  -1.824  0.00  0.00    +0.000 OA
BRANCH  43  45
ATOM     44  O   UNL     1      10.679   0.461   0.313  0.00  0.00    +0.000 OA
ATOM     45  C   UNL     1      10.708   0.556  -0.906  0.00  0.00    +0.000 C 
BRANCH  45  46
ATOM     46  C   UNL     1      11.547   1.529  -1.536  0.00  0.00    +0.000 C 
ATOM     47  C   UNL     1      12.248   2.347  -2.058  0.00  0.00    +0.000 C 
ATOM     48  C   UNL     1      13.143   3.385  -2.739  0.00  0.00    +0.000 C 
ENDBRANCH  45  46
ENDBRANCH  43  45
ENDBRANCH  15  43
TORSDOF 10
