MODEL 1
REMARK VINA RESULT:      -6.7      0.000      0.000
REMARK  Name = Thapsigargin.pdbqt.pdb
REMARK  10 active torsions:
REMARK  status: ('A' for Active; 'I' for Inactive)
REMARK    1  A    between atoms: O_2  and  C_24
REMARK    2  A    between atoms: C_17  and  O_43
REMARK    3  A    between atoms: C_19  and  C_24
REMARK    4  A    between atoms: C_19  and  O_47
REMARK    5  A    between atoms: C_27  and  C_35
REMARK    6  A    between atoms: C_35  and  C_36
REMARK    7  A    between atoms: C_37  and  C_38
REMARK    8  A    between atoms: C_39  and  C_40
REMARK    9  A    between atoms: C_42  and  O_43
REMARK   10  A    between atoms: C_42  and  C_44
REMARK                            x       y       z     vdW  Elec       q    Type
REMARK                         _______ _______ _______ _____ _____    ______ ____
ROOT
ATOM      1  O   UNL     1      61.900  59.450  58.529  0.00  0.00    +0.000 OA
ATOM      2  O   UNL     1      64.532  54.616  61.061  0.00  0.00    +0.000 OA
ATOM      3  O   UNL     1      63.564  53.678  58.887  0.00  0.00    +0.000 OA
ATOM      4  O   UNL     1      60.270  55.123  61.006  0.00  0.00    +0.000 OA
ATOM      5  O   UNL     1      61.989  61.350  57.262  0.00  0.00    +0.000 OA
ATOM      6  O   UNL     1      64.903  54.254  58.669  0.00  0.00    +0.000 OA
ATOM      7  O   UNL     1      62.593  51.527  59.537  0.00  0.00    +0.000 OA
ATOM      8  O   UNL     1      59.091  56.253  59.125  0.00  0.00    +0.000 OA
ATOM      9  C   UNL     1      63.348  56.863  61.095  0.00  0.00    +0.000 C 
ATOM     10  C   UNL     1      64.132  59.358  59.168  0.00  0.00    +0.000 C 
ATOM     11  C   UNL     1      62.830  58.778  59.312  0.00  0.00    +0.000 C 
ATOM     12  C   UNL     1      64.803  57.065  61.352  0.00  0.00    +0.000 C 
ATOM     13  C   UNL     1      62.512  57.748  60.125  0.00  0.00    +0.000 C 
ATOM     14  C   UNL     1      65.077  58.919  59.933  0.00  0.00    +0.000 C 
ATOM     15  C   UNL     1      65.595  58.069  60.933  0.00  0.00    +0.000 C 
ATOM     16  C   UNL     1      62.357  56.136  61.855  0.00  0.00    +0.000 C 
ATOM     17  C   UNL     1      64.068  60.477  58.211  0.00  0.00    +0.000 C 
ATOM     18  C   UNL     1      61.116  56.221  61.191  0.00  0.00    +0.000 C 
ATOM     19  C   UNL     1      61.149  57.232  60.296  0.00  0.00    +0.000 C 
ATOM     20  C   UNL     1      64.359  55.937  60.512  0.00  0.00    +0.000 C 
ATOM     21  C   UNL     1      62.564  60.492  57.925  0.00  0.00    +0.000 C 
ATOM     22  C   UNL     1      60.066  57.106  59.417  0.00  0.00    +0.000 C 
ATOM     23  C   UNL     1      65.298  54.935  59.892  0.00  0.00    +0.000 C 
ATOM     24  C   UNL     1      63.671  52.306  59.135  0.00  0.00    +0.000 C 
ATOM     25  C   UNL     1      59.537  55.057  59.763  0.00  0.00    +0.000 C 
ATOM     26  C   UNL     1      66.811  54.929  60.145  0.00  0.00    +0.000 C 
ATOM     27  C   UNL     1      59.505  53.893  59.083  0.00  0.00    +0.000 C 
ATOM     28  C   UNL     1      58.793  53.767  57.754  0.00  0.00    +0.000 C 
ATOM     29  C   UNL     1      60.452  52.870  59.374  0.00  0.00    +0.000 C 
ATOM     30  C   UNL     1      61.439  52.191  59.480  0.00  0.00    +0.000 C 
ENDROOT
BRANCH  17  31
ATOM     31  O   UNL     1      64.531  61.677  58.807  0.00  0.00    +0.000 OA
ATOM     32  H   UNL     1      65.395  61.858  58.393  0.00  0.00    +0.000 HD
ENDBRANCH  17  31
BRANCH  17  33
ATOM     33  C   UNL     1      64.864  60.181  57.006  0.00  0.00    +0.000 C 
BRANCH  33  34
ATOM     34  O   UNL     1      65.603  59.922  55.929  0.00  0.00    +0.000 OA
ATOM     35  H   UNL     1      66.507  59.653  56.180  0.00  0.00    +0.000 HD
ENDBRANCH  33  34
ENDBRANCH  17  33
BRANCH  24  36
ATOM     36  C   UNL     1      64.826  51.713  59.186  0.00  0.00    +0.000 C 
BRANCH  36  37
ATOM     37  C   UNL     1      66.208  51.057  59.266  0.00  0.00    +0.000 C 
ATOM     38  C   UNL     1      67.298  50.563  59.359  0.00  0.00    +0.000 C 
BRANCH  38  39
ATOM     39  C   UNL     1      68.693  49.945  59.501  0.00  0.00    +0.000 C 
ATOM     40  C   UNL     1      69.783  49.458  59.626  0.00  0.00    +0.000 C 
BRANCH  40  41
ATOM     41  C   UNL     1      71.171  48.832  59.792  0.00  0.00    +0.000 C 
ATOM     42  C   UNL     1      72.377  48.284  59.937  0.00  0.00    +0.000 C 
ENDBRANCH  40  41
ENDBRANCH  38  39
ENDBRANCH  36  37
ENDBRANCH  24  36
BRANCH  15  43
ATOM     43  O   UNL     1      66.741  58.424  61.654  0.00  0.00    +0.000 OA
BRANCH  43  45
ATOM     44  O   UNL     1      67.629  60.208  60.447  0.00  0.00    +0.000 OA
ATOM     45  C   UNL     1      67.147  59.715  61.458  0.00  0.00    +0.000 C 
BRANCH  45  46
ATOM     46  C   UNL     1      66.956  60.513  62.630  0.00  0.00    +0.000 C 
ATOM     47  C   UNL     1      66.798  61.175  63.615  0.00  0.00    +0.000 C 
ATOM     48  C   UNL     1      66.586  62.031  64.866  0.00  0.00    +0.000 C 
ENDBRANCH  45  46
ENDBRANCH  43  45
ENDBRANCH  15  43
TORSDOF 10
ENDMDL
MODEL 2
REMARK VINA RESULT:      -6.2     11.311     16.636
REMARK  Name = Thapsigargin.pdbqt.pdb
REMARK  10 active torsions:
REMARK  status: ('A' for Active; 'I' for Inactive)
REMARK    1  A    between atoms: O_2  and  C_24
REMARK    2  A    between atoms: C_17  and  O_43
REMARK    3  A    between atoms: C_19  and  C_24
REMARK    4  A    between atoms: C_19  and  O_47
REMARK    5  A    between atoms: C_27  and  C_35
REMARK    6  A    between atoms: C_35  and  C_36
REMARK    7  A    between atoms: C_37  and  C_38
REMARK    8  A    between atoms: C_39  and  C_40
REMARK    9  A    between atoms: C_42  and  O_43
REMARK   10  A    between atoms: C_42  and  C_44
REMARK                            x       y       z     vdW  Elec       q    Type
REMARK                         _______ _______ _______ _____ _____    ______ ____
ROOT
ATOM      1  O   UNL     1      59.798  66.313  63.884  0.00  0.00    +0.000 OA
ATOM      2  O   UNL     1      57.101  64.944  69.133  0.00  0.00    +0.000 OA
ATOM      3  O   UNL     1      57.186  67.500  69.174  0.00  0.00    +0.000 OA
ATOM      4  O   UNL     1      61.174  66.285  68.945  0.00  0.00    +0.000 OA
ATOM      5  O   UNL     1      59.728  66.699  61.632  0.00  0.00    +0.000 OA
ATOM      6  O   UNL     1      55.986  67.019  68.468  0.00  0.00    +0.000 OA
ATOM      7  O   UNL     1      57.853  68.046  71.466  0.00  0.00    +0.000 OA
ATOM      8  O   UNL     1      61.958  67.917  67.235  0.00  0.00    +0.000 OA
ATOM      9  C   UNL     1      58.669  64.518  67.181  0.00  0.00    +0.000 C 
ATOM     10  C   UNL     1      57.877  65.020  64.071  0.00  0.00    +0.000 C 
ATOM     11  C   UNL     1      59.020  65.555  64.749  0.00  0.00    +0.000 C 
ATOM     12  C   UNL     1      57.423  63.719  67.001  0.00  0.00    +0.000 C 
ATOM     13  C   UNL     1      59.347  65.330  66.040  0.00  0.00    +0.000 C 
ATOM     14  C   UNL     1      57.127  64.188  64.716  0.00  0.00    +0.000 C 
ATOM     15  C   UNL     1      56.762  63.447  65.860  0.00  0.00    +0.000 C 
ATOM     16  C   UNL     1      59.671  64.463  68.221  0.00  0.00    +0.000 C 
ATOM     17  C   UNL     1      57.883  65.470  62.668  0.00  0.00    +0.000 C 
ATOM     18  C   UNL     1      60.656  65.438  67.961  0.00  0.00    +0.000 C 
ATOM     19  C   UNL     1      60.568  65.839  66.674  0.00  0.00    +0.000 C 
ATOM     20  C   UNL     1      57.367  65.006  67.718  0.00  0.00    +0.000 C 
ATOM     21  C   UNL     1      59.210  66.233  62.643  0.00  0.00    +0.000 C 
ATOM     22  C   UNL     1      61.302  67.020  66.508  0.00  0.00    +0.000 C 
ATOM     23  C   UNL     1      56.108  65.578  68.315  0.00  0.00    +0.000 C 
ATOM     24  C   UNL     1      56.883  67.741  70.518  0.00  0.00    +0.000 C 
ATOM     25  C   UNL     1      61.486  67.640  68.553  0.00  0.00    +0.000 C 
ATOM     26  C   UNL     1      54.764  64.838  68.318  0.00  0.00    +0.000 C 
ATOM     27  C   UNL     1      61.084  68.658  69.340  0.00  0.00    +0.000 C 
ATOM     28  C   UNL     1      61.339  70.101  68.966  0.00  0.00    +0.000 C 
ATOM     29  C   UNL     1      60.077  68.446  70.325  0.00  0.00    +0.000 C 
ATOM     30  C   UNL     1      59.049  68.256  70.918  0.00  0.00    +0.000 C 
ENDROOT
BRANCH  17  31
ATOM     31  O   UNL     1      57.864  64.362  61.784  0.00  0.00    +0.000 OA
ATOM     32  H   UNL     1      56.935  64.064  61.758  0.00  0.00    +0.000 HD
ENDBRANCH  17  31
BRANCH  17  33
ATOM     33  C   UNL     1      56.729  66.345  62.394  0.00  0.00    +0.000 C 
BRANCH  33  34
ATOM     34  O   UNL     1      55.700  67.150  62.133  0.00  0.00    +0.000 OA
ATOM     35  H   UNL     1      56.007  68.020  61.815  0.00  0.00    +0.000 HD
ENDBRANCH  33  34
ENDBRANCH  17  33
BRANCH  24  36
ATOM     36  C   UNL     1      55.698  67.510  70.998  0.00  0.00    +0.000 C 
BRANCH  36  37
ATOM     37  C   UNL     1      54.282  67.244  71.518  0.00  0.00    +0.000 C 
ATOM     38  C   UNL     1      53.180  67.000  71.928  0.00  0.00    +0.000 C 
BRANCH  38  39
ATOM     39  C   UNL     1      51.782  66.663  72.455  0.00  0.00    +0.000 C 
ATOM     40  C   UNL     1      50.681  66.397  72.854  0.00  0.00    +0.000 C 
BRANCH  40  41
ATOM     41  C   UNL     1      49.275  66.056  73.356  0.00  0.00    +0.000 C 
ATOM     42  C   UNL     1      48.053  65.757  73.795  0.00  0.00    +0.000 C 
ENDBRANCH  40  41
ENDBRANCH  38  39
ENDBRANCH  36  37
ENDBRANCH  24  36
BRANCH  15  43
ATOM     43  O   UNL     1      55.969  62.299  65.749  0.00  0.00    +0.000 OA
BRANCH  43  45
ATOM     44  O   UNL     1      57.523  60.946  64.663  0.00  0.00    +0.000 OA
ATOM     45  C   UNL     1      56.401  61.411  64.802  0.00  0.00    +0.000 C 
BRANCH  45  46
ATOM     46  C   UNL     1      55.348  61.043  63.905  0.00  0.00    +0.000 C 
ATOM     47  C   UNL     1      54.464  60.738  63.158  0.00  0.00    +0.000 C 
ATOM     48  C   UNL     1      53.343  60.338  62.196  0.00  0.00    +0.000 C 
ENDBRANCH  45  46
ENDBRANCH  43  45
ENDBRANCH  15  43
TORSDOF 10
ENDMDL
MODEL 3
REMARK VINA RESULT:      -6.2     35.746     41.468
REMARK  Name = Thapsigargin.pdbqt.pdb
REMARK  10 active torsions:
REMARK  status: ('A' for Active; 'I' for Inactive)
REMARK    1  A    between atoms: O_2  and  C_24
REMARK    2  A    between atoms: C_17  and  O_43
REMARK    3  A    between atoms: C_19  and  C_24
REMARK    4  A    between atoms: C_19  and  O_47
REMARK    5  A    between atoms: C_27  and  C_35
REMARK    6  A    between atoms: C_35  and  C_36
REMARK    7  A    between atoms: C_37  and  C_38
REMARK    8  A    between atoms: C_39  and  C_40
REMARK    9  A    between atoms: C_42  and  O_43
REMARK   10  A    between atoms: C_42  and  C_44
REMARK                            x       y       z     vdW  Elec       q    Type
REMARK                         _______ _______ _______ _____ _____    ______ ____
ROOT
ATOM      1  O   UNL     1      68.937  77.734  99.141  0.00  0.00    +0.000 OA
ATOM      2  O   UNL     1      67.760  73.824  94.666  0.00  0.00    +0.000 OA
ATOM      3  O   UNL     1      68.713  72.327  96.508  0.00  0.00    +0.000 OA
ATOM      4  O   UNL     1      71.760  75.044  95.632  0.00  0.00    +0.000 OA
ATOM      5  O   UNL     1      68.287  78.961 100.956  0.00  0.00    +0.000 OA
ATOM      6  O   UNL     1      67.262  72.521  96.678  0.00  0.00    +0.000 OA
ATOM      7  O   UNL     1      70.218  70.800  95.327  0.00  0.00    +0.000 OA
ATOM      8  O   UNL     1      72.460  75.574  97.963  0.00  0.00    +0.000 OA
ATOM      9  C   UNL     1      68.382  76.092  95.624  0.00  0.00    +0.000 C 
ATOM     10  C   UNL     1      66.859  77.483  98.134  0.00  0.00    +0.000 C 
ATOM     11  C   UNL     1      68.267  77.249  98.024  0.00  0.00    +0.000 C 
ATOM     12  C   UNL     1      66.951  76.106  95.205  0.00  0.00    +0.000 C 
ATOM     13  C   UNL     1      68.893  76.681  96.971  0.00  0.00    +0.000 C 
ATOM     14  C   UNL     1      66.118  77.200  97.112  0.00  0.00    +0.000 C 
ATOM     15  C   UNL     1      65.909  76.713  95.805  0.00  0.00    +0.000 C 
ATOM     16  C   UNL     1      69.582  75.901  94.842  0.00  0.00    +0.000 C 
ATOM     17  C   UNL     1      66.569  78.148  99.417  0.00  0.00    +0.000 C 
ATOM     18  C   UNL     1      70.700  75.955  95.698  0.00  0.00    +0.000 C 
ATOM     19  C   UNL     1      70.348  76.528  96.869  0.00  0.00    +0.000 C 
ATOM     20  C   UNL     1      67.565  74.845  95.663  0.00  0.00    +0.000 C 
ATOM     21  C   UNL     1      67.994  78.329  99.946  0.00  0.00    +0.000 C 
ATOM     22  C   UNL     1      71.344  76.280  97.823  0.00  0.00    +0.000 C 
ATOM     23  C   UNL     1      66.835  73.530  95.721  0.00  0.00    +0.000 C 
ATOM     24  C   UNL     1      68.955  71.156  95.782  0.00  0.00    +0.000 C 
ATOM     25  C   UNL     1      72.369  74.648  96.881  0.00  0.00    +0.000 C 
ATOM     26  C   UNL     1      65.395  73.342  95.224  0.00  0.00    +0.000 C 
ATOM     27  C   UNL     1      72.609  73.340  97.106  0.00  0.00    +0.000 C 
ATOM     28  C   UNL     1      73.203  72.854  98.409  0.00  0.00    +0.000 C 
ATOM     29  C   UNL     1      71.959  72.348  96.317  0.00  0.00    +0.000 C 
ATOM     30  C   UNL     1      71.173  71.592  95.811  0.00  0.00    +0.000 C 
ENDROOT
BRANCH  17  31
ATOM     31  O   UNL     1      65.895  79.377  99.207  0.00  0.00    +0.000 OA
ATOM     32  H   UNL     1      65.832  79.479  98.238  0.00  0.00    +0.000 HD
ENDBRANCH  17  31
BRANCH  17  33
ATOM     33  C   UNL     1      65.756  77.276 100.285  0.00  0.00    +0.000 C 
BRANCH  33  34
ATOM     34  O   UNL     1      65.008  76.483 101.049  0.00  0.00    +0.000 OA
ATOM     35  H   UNL     1      65.259  76.562 101.989  0.00  0.00    +0.000 HD
ENDBRANCH  33  34
ENDBRANCH  17  33
BRANCH  24  36
ATOM     36  C   UNL     1      67.981  70.426  95.328  0.00  0.00    +0.000 C 
BRANCH  36  37
ATOM     37  C   UNL     1      66.861  69.524  94.799  0.00  0.00    +0.000 C 
ATOM     38  C   UNL     1      66.004  68.788  94.392  0.00  0.00    +0.000 C 
BRANCH  38  39
ATOM     39  C   UNL     1      64.926  67.827  93.881  0.00  0.00    +0.000 C 
ATOM     40  C   UNL     1      64.073  67.077  93.492  0.00  0.00    +0.000 C 
BRANCH  40  41
ATOM     41  C   UNL     1      62.980  66.123  93.002  0.00  0.00    +0.000 C 
ATOM     42  C   UNL     1      62.029  65.294  92.573  0.00  0.00    +0.000 C 
ENDBRANCH  40  41
ENDBRANCH  38  39
ENDBRANCH  36  37
ENDBRANCH  24  36
BRANCH  15  43
ATOM     43  O   UNL     1      64.784  77.097  95.066  0.00  0.00    +0.000 OA
BRANCH  43  45
ATOM     44  O   UNL     1      65.891  78.980  94.258  0.00  0.00    +0.000 OA
ATOM     45  C   UNL     1      65.009  78.135  94.204  0.00  0.00    +0.000 C 
BRANCH  45  46
ATOM     46  C   UNL     1      64.044  78.162  93.147  0.00  0.00    +0.000 C 
ATOM     47  C   UNL     1      63.235  78.189  92.266  0.00  0.00    +0.000 C 
ATOM     48  C   UNL     1      62.205  78.210  91.134  0.00  0.00    +0.000 C 
ENDBRANCH  45  46
ENDBRANCH  43  45
ENDBRANCH  15  43
TORSDOF 10
ENDMDL
MODEL 4
REMARK VINA RESULT:      -6.2     11.428     17.220
REMARK  Name = Thapsigargin.pdbqt.pdb
REMARK  10 active torsions:
REMARK  status: ('A' for Active; 'I' for Inactive)
REMARK    1  A    between atoms: O_2  and  C_24
REMARK    2  A    between atoms: C_17  and  O_43
REMARK    3  A    between atoms: C_19  and  C_24
REMARK    4  A    between atoms: C_19  and  O_47
REMARK    5  A    between atoms: C_27  and  C_35
REMARK    6  A    between atoms: C_35  and  C_36
REMARK    7  A    between atoms: C_37  and  C_38
REMARK    8  A    between atoms: C_39  and  C_40
REMARK    9  A    between atoms: C_42  and  O_43
REMARK   10  A    between atoms: C_42  and  C_44
REMARK                            x       y       z     vdW  Elec       q    Type
REMARK                         _______ _______ _______ _____ _____    ______ ____
ROOT
ATOM      1  O   UNL     1      63.862  66.349  63.372  0.00  0.00    +0.000 OA
ATOM      2  O   UNL     1      65.207  69.720  68.222  0.00  0.00    +0.000 OA
ATOM      3  O   UNL     1      66.551  70.832  66.351  0.00  0.00    +0.000 OA
ATOM      4  O   UNL     1      67.996  66.920  66.548  0.00  0.00    +0.000 OA
ATOM      5  O   UNL     1      62.506  65.820  61.609  0.00  0.00    +0.000 OA
ATOM      6  O   UNL     1      65.177  71.360  66.405  0.00  0.00    +0.000 OA
ATOM      7  O   UNL     1      68.725  71.311  67.372  0.00  0.00    +0.000 OA
ATOM      8  O   UNL     1      68.095  66.442  64.105  0.00  0.00    +0.000 OA
ATOM      9  C   UNL     1      64.554  67.575  67.031  0.00  0.00    +0.000 C 
ATOM     10  C   UNL     1      62.284  67.402  64.714  0.00  0.00    +0.000 C 
ATOM     11  C   UNL     1      63.635  66.936  64.610  0.00  0.00    +0.000 C 
ATOM     12  C   UNL     1      63.349  68.173  67.673  0.00  0.00    +0.000 C 
ATOM     13  C   UNL     1      64.568  67.001  65.584  0.00  0.00    +0.000 C 
ATOM     14  C   UNL     1      61.888  67.857  65.857  0.00  0.00    +0.000 C 
ATOM     15  C   UNL     1      62.085  68.206  67.210  0.00  0.00    +0.000 C 
ATOM     16  C   UNL     1      65.777  67.078  67.621  0.00  0.00    +0.000 C 
ATOM     17  C   UNL     1      61.571  67.126  63.454  0.00  0.00    +0.000 C 
ATOM     18  C   UNL     1      66.630  66.625  66.594  0.00  0.00    +0.000 C 
ATOM     19  C   UNL     1      65.920  66.444  65.460  0.00  0.00    +0.000 C 
ATOM     20  C   UNL     1      64.438  69.050  67.205  0.00  0.00    +0.000 C 
ATOM     21  C   UNL     1      62.666  66.375  62.692  0.00  0.00    +0.000 C 
ATOM     22  C   UNL     1      66.800  66.325  64.377  0.00  0.00    +0.000 C 
ATOM     23  C   UNL     1      64.426  70.549  67.350  0.00  0.00    +0.000 C 
ATOM     24  C   UNL     1      67.404  71.647  67.104  0.00  0.00    +0.000 C 
ATOM     25  C   UNL     1      68.579  67.150  65.246  0.00  0.00    +0.000 C 
ATOM     26  C   UNL     1      63.319  71.317  68.084  0.00  0.00    +0.000 C 
ATOM     27  C   UNL     1      69.390  68.213  65.070  0.00  0.00    +0.000 C 
ATOM     28  C   UNL     1      69.997  68.536  63.723  0.00  0.00    +0.000 C 
ATOM     29  C   UNL     1      69.388  69.278  66.016  0.00  0.00    +0.000 C 
ATOM     30  C   UNL     1      69.123  70.237  66.690  0.00  0.00    +0.000 C 
ENDROOT
BRANCH  17  31
ATOM     31  O   UNL     1      60.418  66.336  63.689  0.00  0.00    +0.000 OA
ATOM     32  H   UNL     1      60.548  65.522  63.168  0.00  0.00    +0.000 HD
ENDBRANCH  17  31
BRANCH  17  33
ATOM     33  C   UNL     1      61.186  68.383  62.786  0.00  0.00    +0.000 C 
BRANCH  33  34
ATOM     34  O   UNL     1      60.854  69.530  62.197  0.00  0.00    +0.000 OA
ATOM     35  H   UNL     1      61.074  69.514  61.247  0.00  0.00    +0.000 HD
ENDBRANCH  33  34
ENDBRANCH  17  33
BRANCH  24  36
ATOM     36  C   UNL     1      66.956  72.679  67.755  0.00  0.00    +0.000 C 
BRANCH  36  37
ATOM     37  C   UNL     1      66.420  73.919  68.478  0.00  0.00    +0.000 C 
ATOM     38  C   UNL     1      65.997  74.907  69.012  0.00  0.00    +0.000 C 
BRANCH  38  39
ATOM     39  C   UNL     1      65.454  76.180  69.669  0.00  0.00    +0.000 C 
ATOM     40  C   UNL     1      65.022  77.181  70.172  0.00  0.00    +0.000 C 
BRANCH  40  41
ATOM     41  C   UNL     1      64.465  78.458  70.807  0.00  0.00    +0.000 C 
ATOM     42  C   UNL     1      63.979  79.568  71.361  0.00  0.00    +0.000 C 
ENDBRANCH  40  41
ENDBRANCH  38  39
ENDBRANCH  36  37
ENDBRANCH  24  36
BRANCH  15  43
ATOM     43  O   UNL     1      61.003  68.295  68.093  0.00  0.00    +0.000 OA
BRANCH  43  45
ATOM     44  O   UNL     1      61.045  67.057  70.066  0.00  0.00    +0.000 OA
ATOM     45  C   UNL     1      60.822  67.184  68.870  0.00  0.00    +0.000 C 
BRANCH  45  46
ATOM     46  C   UNL     1      60.314  66.084  68.108  0.00  0.00    +0.000 C 
ATOM     47  C   UNL     1      59.895  65.163  67.468  0.00  0.00    +0.000 C 
ATOM     48  C   UNL     1      59.345  63.990  66.653  0.00  0.00    +0.000 C 
ENDBRANCH  45  46
ENDBRANCH  43  45
ENDBRANCH  15  43
TORSDOF 10
ENDMDL
MODEL 5
REMARK VINA RESULT:      -6.2     26.220     30.600
REMARK  Name = Thapsigargin.pdbqt.pdb
REMARK  10 active torsions:
REMARK  status: ('A' for Active; 'I' for Inactive)
REMARK    1  A    between atoms: O_2  and  C_24
REMARK    2  A    between atoms: C_17  and  O_43
REMARK    3  A    between atoms: C_19  and  C_24
REMARK    4  A    between atoms: C_19  and  O_47
REMARK    5  A    between atoms: C_27  and  C_35
REMARK    6  A    between atoms: C_35  and  C_36
REMARK    7  A    between atoms: C_37  and  C_38
REMARK    8  A    between atoms: C_39  and  C_40
REMARK    9  A    between atoms: C_42  and  O_43
REMARK   10  A    between atoms: C_42  and  C_44
REMARK                            x       y       z     vdW  Elec       q    Type
REMARK                         _______ _______ _______ _____ _____    ______ ____
ROOT
ATOM      1  O   UNL     1      54.840  69.243  88.665  0.00  0.00    +0.000 OA
ATOM      2  O   UNL     1      58.165  69.900  83.644  0.00  0.00    +0.000 OA
ATOM      3  O   UNL     1      55.766  69.893  82.755  0.00  0.00    +0.000 OA
ATOM      4  O   UNL     1      56.238  66.194  84.633  0.00  0.00    +0.000 OA
ATOM      5  O   UNL     1      53.786  70.104  90.502  0.00  0.00    +0.000 OA
ATOM      6  O   UNL     1      56.178  71.247  83.167  0.00  0.00    +0.000 OA
ATOM      7  O   UNL     1      55.869  68.491  80.750  0.00  0.00    +0.000 OA
ATOM      8  O   UNL     1      54.055  66.110  85.830  0.00  0.00    +0.000 OA
ATOM      9  C   UNL     1      57.721  69.094  86.011  0.00  0.00    +0.000 C 
ATOM     10  C   UNL     1      56.399  70.934  88.339  0.00  0.00    +0.000 C 
ATOM     11  C   UNL     1      55.938  69.645  87.916  0.00  0.00    +0.000 C 
ATOM     12  C   UNL     1      58.602  70.296  86.053  0.00  0.00    +0.000 C 
ATOM     13  C   UNL     1      56.502  68.882  86.954  0.00  0.00    +0.000 C 
ATOM     14  C   UNL     1      57.493  71.384  87.819  0.00  0.00    +0.000 C 
ATOM     15  C   UNL     1      58.600  71.303  86.947  0.00  0.00    +0.000 C 
ATOM     16  C   UNL     1      57.947  67.791  85.426  0.00  0.00    +0.000 C 
ATOM     17  C   UNL     1      55.539  71.431  89.427  0.00  0.00    +0.000 C 
ATOM     18  C   UNL     1      56.803  66.993  85.632  0.00  0.00    +0.000 C 
ATOM     19  C   UNL     1      56.039  67.535  86.604  0.00  0.00    +0.000 C 
ATOM     20  C   UNL     1      57.626  70.144  84.958  0.00  0.00    +0.000 C 
ATOM     21  C   UNL     1      54.616  70.222  89.605  0.00  0.00    +0.000 C 
ATOM     22  C   UNL     1      54.768  66.947  86.575  0.00  0.00    +0.000 C 
ATOM     23  C   UNL     1      57.464  71.136  83.836  0.00  0.00    +0.000 C 
ATOM     24  C   UNL     1      56.005  69.718  81.387  0.00  0.00    +0.000 C 
ATOM     25  C   UNL     1      54.798  66.085  84.612  0.00  0.00    +0.000 C 
ATOM     26  C   UNL     1      58.361  72.369  83.665  0.00  0.00    +0.000 C 
ATOM     27  C   UNL     1      54.147  66.223  83.438  0.00  0.00    +0.000 C 
ATOM     28  C   UNL     1      52.639  66.163  83.352  0.00  0.00    +0.000 C 
ATOM     29  C   UNL     1      54.805  66.817  82.323  0.00  0.00    +0.000 C 
ATOM     30  C   UNL     1      55.322  67.568  81.540  0.00  0.00    +0.000 C 
ENDROOT
BRANCH  17  31
ATOM     31  O   UNL     1      56.305  71.718  90.584  0.00  0.00    +0.000 OA
ATOM     32  H   UNL     1      56.784  70.894  90.793  0.00  0.00    +0.000 HD
ENDBRANCH  17  31
BRANCH  17  33
ATOM     33  C   UNL     1      54.805  72.637  89.004  0.00  0.00    +0.000 C 
BRANCH  33  34
ATOM     34  O   UNL     1      54.163  73.736  88.611  0.00  0.00    +0.000 OA
ATOM     35  H   UNL     1      53.640  74.118  89.341  0.00  0.00    +0.000 HD
ENDBRANCH  33  34
ENDBRANCH  17  33
BRANCH  24  36
ATOM     36  C   UNL     1      56.549  70.654  80.669  0.00  0.00    +0.000 C 
BRANCH  36  37
ATOM     37  C   UNL     1      57.217  71.773  79.862  0.00  0.00    +0.000 C 
ATOM     38  C   UNL     1      57.756  72.624  79.209  0.00  0.00    +0.000 C 
BRANCH  38  39
ATOM     39  C   UNL     1      58.452  73.690  78.358  0.00  0.00    +0.000 C 
ATOM     40  C   UNL     1      58.997  74.517  77.679  0.00  0.00    +0.000 C 
BRANCH  40  41
ATOM     41  C   UNL     1      59.688  75.569  76.807  0.00  0.00    +0.000 C 
ATOM     42  C   UNL     1      60.288  76.486  76.049  0.00  0.00    +0.000 C 
ENDBRANCH  40  41
ENDBRANCH  38  39
ENDBRANCH  36  37
ENDBRANCH  24  36
BRANCH  15  43
ATOM     43  O   UNL     1      59.762  72.045  87.190  0.00  0.00    +0.000 OA
BRANCH  43  45
ATOM     44  O   UNL     1      59.289  74.147  86.305  0.00  0.00    +0.000 OA
ATOM     45  C   UNL     1      59.563  73.398  87.232  0.00  0.00    +0.000 C 
BRANCH  45  46
ATOM     46  C   UNL     1      59.719  73.914  88.557  0.00  0.00    +0.000 C 
ATOM     47  C   UNL     1      59.847  74.340  89.669  0.00  0.00    +0.000 C 
ATOM     48  C   UNL     1      60.014  74.900  91.083  0.00  0.00    +0.000 C 
ENDBRANCH  45  46
ENDBRANCH  43  45
ENDBRANCH  15  43
TORSDOF 10
ENDMDL
MODEL 6
REMARK VINA RESULT:      -6.1     14.343     19.686
REMARK  Name = Thapsigargin.pdbqt.pdb
REMARK  10 active torsions:
REMARK  status: ('A' for Active; 'I' for Inactive)
REMARK    1  A    between atoms: O_2  and  C_24
REMARK    2  A    between atoms: C_17  and  O_43
REMARK    3  A    between atoms: C_19  and  C_24
REMARK    4  A    between atoms: C_19  and  O_47
REMARK    5  A    between atoms: C_27  and  C_35
REMARK    6  A    between atoms: C_35  and  C_36
REMARK    7  A    between atoms: C_37  and  C_38
REMARK    8  A    between atoms: C_39  and  C_40
REMARK    9  A    between atoms: C_42  and  O_43
REMARK   10  A    between atoms: C_42  and  C_44
REMARK                            x       y       z     vdW  Elec       q    Type
REMARK                         _______ _______ _______ _____ _____    ______ ____
ROOT
ATOM      1  O   UNL     1      42.574  50.216  54.379  0.00  0.00    +0.000 OA
ATOM      2  O   UNL     1      47.306  49.311  58.051  0.00  0.00    +0.000 OA
ATOM      3  O   UNL     1      48.113  48.359  55.819  0.00  0.00    +0.000 OA
ATOM      4  O   UNL     1      44.741  46.103  56.806  0.00  0.00    +0.000 OA
ATOM      5  O   UNL     1      41.347  51.538  52.973  0.00  0.00    +0.000 OA
ATOM      6  O   UNL     1      48.366  49.808  55.902  0.00  0.00    +0.000 OA
ATOM      7  O   UNL     1      49.248  46.276  56.426  0.00  0.00    +0.000 OA
ATOM      8  O   UNL     1      43.658  46.062  54.564  0.00  0.00    +0.000 OA
ATOM      9  C   UNL     1      44.837  49.567  57.513  0.00  0.00    +0.000 C 
ATOM     10  C   UNL     1      43.627  51.892  55.595  0.00  0.00    +0.000 C 
ATOM     11  C   UNL     1      43.415  50.483  55.451  0.00  0.00    +0.000 C 
ATOM     12  C   UNL     1      45.345  50.829  58.124  0.00  0.00    +0.000 C 
ATOM     13  C   UNL     1      43.913  49.524  56.262  0.00  0.00    +0.000 C 
ATOM     14  C   UNL     1      44.287  52.302  56.628  0.00  0.00    +0.000 C 
ATOM     15  C   UNL     1      45.014  52.098  57.820  0.00  0.00    +0.000 C 
ATOM     16  C   UNL     1      44.756  48.231  58.060  0.00  0.00    +0.000 C 
ATOM     17  C   UNL     1      42.896  52.609  54.535  0.00  0.00    +0.000 C 
ATOM     18  C   UNL     1      44.216  47.369  57.084  0.00  0.00    +0.000 C 
ATOM     19  C   UNL     1      43.609  48.096  56.122  0.00  0.00    +0.000 C 
ATOM     20  C   UNL     1      46.256  49.984  57.329  0.00  0.00    +0.000 C 
ATOM     21  C   UNL     1      42.191  51.431  53.859  0.00  0.00    +0.000 C 
ATOM     22  C   UNL     1      43.375  47.282  55.006  0.00  0.00    +0.000 C 
ATOM     23  C   UNL     1      47.709  50.305  57.099  0.00  0.00    +0.000 C 
ATOM     24  C   UNL     1      49.245  47.653  56.241  0.00  0.00    +0.000 C 
ATOM     25  C   UNL     1      44.722  45.668  55.429  0.00  0.00    +0.000 C 
ATOM     26  C   UNL     1      48.421  51.502  57.745  0.00  0.00    +0.000 C 
ATOM     27  C   UNL     1      45.834  45.115  54.901  0.00  0.00    +0.000 C 
ATOM     28  C   UNL     1      45.895  44.678  53.455  0.00  0.00    +0.000 C 
ATOM     29  C   UNL     1      47.091  45.283  55.548  0.00  0.00    +0.000 C 
ATOM     30  C   UNL     1      48.128  45.703  55.990  0.00  0.00    +0.000 C 
ENDROOT
BRANCH  17  31
ATOM     31  O   UNL     1      41.994  53.550  55.092  0.00  0.00    +0.000 OA
ATOM     32  H   UNL     1      42.374  53.796  55.956  0.00  0.00    +0.000 HD
ENDBRANCH  17  31
BRANCH  17  33
ATOM     33  C   UNL     1      43.833  53.296  53.627  0.00  0.00    +0.000 C 
BRANCH  33  34
ATOM     34  O   UNL     1      44.678  53.937  52.821  0.00  0.00    +0.000 OA
ATOM     35  H   UNL     1      44.246  54.177  51.979  0.00  0.00    +0.000 HD
ENDBRANCH  33  34
ENDBRANCH  17  33
BRANCH  24  36
ATOM     36  C   UNL     1      50.309  48.267  56.664  0.00  0.00    +0.000 C 
BRANCH  36  37
ATOM     37  C   UNL     1      51.583  48.947  57.175  0.00  0.00    +0.000 C 
ATOM     38  C   UNL     1      52.598  49.471  57.544  0.00  0.00    +0.000 C 
BRANCH  38  39
ATOM     39  C   UNL     1      53.905  50.135  57.990  0.00  0.00    +0.000 C 
ATOM     40  C   UNL     1      54.926  50.651  58.354  0.00  0.00    +0.000 C 
BRANCH  40  41
ATOM     41  C   UNL     1      56.229  51.304  58.825  0.00  0.00    +0.000 C 
ATOM     42  C   UNL     1      57.362  51.875  59.232  0.00  0.00    +0.000 C 
ENDBRANCH  40  41
ENDBRANCH  38  39
ENDBRANCH  36  37
ENDBRANCH  24  36
BRANCH  15  43
ATOM     43  O   UNL     1      45.129  53.115  58.774  0.00  0.00    +0.000 OA
BRANCH  43  45
ATOM     44  O   UNL     1      42.921  53.297  59.494  0.00  0.00    +0.000 OA
ATOM     45  C   UNL     1      44.117  53.135  59.694  0.00  0.00    +0.000 C 
BRANCH  45  46
ATOM     46  C   UNL     1      44.607  52.941  61.024  0.00  0.00    +0.000 C 
ATOM     47  C   UNL     1      45.020  52.774  62.136  0.00  0.00    +0.000 C 
ATOM     48  C   UNL     1      45.539  52.572  63.561  0.00  0.00    +0.000 C 
ENDBRANCH  45  46
ENDBRANCH  43  45
ENDBRANCH  15  43
TORSDOF 10
ENDMDL
MODEL 7
REMARK VINA RESULT:      -6.1     12.628     17.676
REMARK  Name = Thapsigargin.pdbqt.pdb
REMARK  10 active torsions:
REMARK  status: ('A' for Active; 'I' for Inactive)
REMARK    1  A    between atoms: O_2  and  C_24
REMARK    2  A    between atoms: C_17  and  O_43
REMARK    3  A    between atoms: C_19  and  C_24
REMARK    4  A    between atoms: C_19  and  O_47
REMARK    5  A    between atoms: C_27  and  C_35
REMARK    6  A    between atoms: C_35  and  C_36
REMARK    7  A    between atoms: C_37  and  C_38
REMARK    8  A    between atoms: C_39  and  C_40
REMARK    9  A    between atoms: C_42  and  O_43
REMARK   10  A    between atoms: C_42  and  C_44
REMARK                            x       y       z     vdW  Elec       q    Type
REMARK                         _______ _______ _______ _____ _____    ______ ____
ROOT
ATOM      1  O   UNL     1      73.529  40.445  58.952  0.00  0.00    +0.000 OA
ATOM      2  O   UNL     1      70.801  42.302  64.032  0.00  0.00    +0.000 OA
ATOM      3  O   UNL     1      72.979  41.268  64.888  0.00  0.00    +0.000 OA
ATOM      4  O   UNL     1      70.994  38.157  62.934  0.00  0.00    +0.000 OA
ATOM      5  O   UNL     1      74.841  40.833  57.121  0.00  0.00    +0.000 OA
ATOM      6  O   UNL     1      73.171  42.680  64.513  0.00  0.00    +0.000 OA
ATOM      7  O   UNL     1      72.304  39.986  66.862  0.00  0.00    +0.000 OA
ATOM      8  O   UNL     1      72.936  37.198  61.705  0.00  0.00    +0.000 OA
ATOM      9  C   UNL     1      70.859  41.447  61.642  0.00  0.00    +0.000 C 
ATOM     10  C   UNL     1      72.823  42.624  59.338  0.00  0.00    +0.000 C 
ATOM     11  C   UNL     1      72.704  41.250  59.726  0.00  0.00    +0.000 C 
ATOM     12  C   UNL     1      70.563  42.909  61.639  0.00  0.00    +0.000 C 
ATOM     13  C   UNL     1      71.874  40.769  60.677  0.00  0.00    +0.000 C 
ATOM     14  C   UNL     1      72.020  43.478  59.883  0.00  0.00    +0.000 C 
ATOM     15  C   UNL     1      70.984  43.845  60.768  0.00  0.00    +0.000 C 
ATOM     16  C   UNL     1      70.110  40.344  62.200  0.00  0.00    +0.000 C 
ATOM     17  C   UNL     1      73.810  42.743  58.249  0.00  0.00    +0.000 C 
ATOM     18  C   UNL     1      70.812  39.146  61.961  0.00  0.00    +0.000 C 
ATOM     19  C   UNL     1      71.730  39.343  60.991  0.00  0.00    +0.000 C 
ATOM     20  C   UNL     1      71.388  42.332  62.717  0.00  0.00    +0.000 C 
ATOM     21  C   UNL     1      74.140  41.265  58.032  0.00  0.00    +0.000 C 
ATOM     22  C   UNL     1      72.638  38.276  60.989  0.00  0.00    +0.000 C 
ATOM     23  C   UNL     1      71.955  43.135  63.859  0.00  0.00    +0.000 C 
ATOM     24  C   UNL     1      72.693  41.173  66.254  0.00  0.00    +0.000 C 
ATOM     25  C   UNL     1      72.256  37.454  62.932  0.00  0.00    +0.000 C 
ATOM     26  C   UNL     1      71.658  44.626  64.070  0.00  0.00    +0.000 C 
ATOM     27  C   UNL     1      72.908  37.276  64.100  0.00  0.00    +0.000 C 
ATOM     28  C   UNL     1      74.253  36.588  64.163  0.00  0.00    +0.000 C 
ATOM     29  C   UNL     1      72.563  38.062  65.237  0.00  0.00    +0.000 C 
ATOM     30  C   UNL     1      72.411  38.940  66.044  0.00  0.00    +0.000 C 
ENDROOT
BRANCH  17  31
ATOM     31  O   UNL     1      73.231  43.356  57.110  0.00  0.00    +0.000 OA
ATOM     32  H   UNL     1      72.914  44.227  57.413  0.00  0.00    +0.000 HD
ENDBRANCH  17  31
BRANCH  17  33
ATOM     33  C   UNL     1      74.983  43.520  58.690  0.00  0.00    +0.000 C 
BRANCH  33  34
ATOM     34  O   UNL     1      76.039  44.237  59.068  0.00  0.00    +0.000 OA
ATOM     35  H   UNL     1      76.278  44.897  58.390  0.00  0.00    +0.000 HD
ENDBRANCH  33  34
ENDBRANCH  17  33
BRANCH  24  36
ATOM     36  C   UNL     1      72.593  42.232  67.001  0.00  0.00    +0.000 C 
BRANCH  36  37
ATOM     37  C   UNL     1      72.523  43.472  67.899  0.00  0.00    +0.000 C 
ATOM     38  C   UNL     1      72.503  44.451  68.593  0.00  0.00    +0.000 C 
BRANCH  38  39
ATOM     39  C   UNL     1      72.502  45.707  69.469  0.00  0.00    +0.000 C 
ATOM     40  C   UNL     1      72.516  46.693  70.155  0.00  0.00    +0.000 C 
BRANCH  40  41
ATOM     41  C   UNL     1      72.541  47.951  71.027  0.00  0.00    +0.000 C 
ATOM     42  C   UNL     1      72.562  49.048  71.784  0.00  0.00    +0.000 C 
ENDBRANCH  40  41
ENDBRANCH  38  39
ENDBRANCH  36  37
ENDBRANCH  24  36
BRANCH  15  43
ATOM     43  O   UNL     1      70.240  45.011  60.558  0.00  0.00    +0.000 OA
BRANCH  43  45
ATOM     44  O   UNL     1      71.206  46.302  58.877  0.00  0.00    +0.000 OA
ATOM     45  C   UNL     1      70.966  46.054  60.050  0.00  0.00    +0.000 C 
BRANCH  45  46
ATOM     46  C   UNL     1      71.472  46.900  61.087  0.00  0.00    +0.000 C 
ATOM     47  C   UNL     1      71.893  47.613  61.951  0.00  0.00    +0.000 C 
ATOM     48  C   UNL     1      72.440  48.513  63.062  0.00  0.00    +0.000 C 
ENDBRANCH  45  46
ENDBRANCH  43  45
ENDBRANCH  15  43
TORSDOF 10
ENDMDL
MODEL 8
REMARK VINA RESULT:      -6.0     10.432     14.643
REMARK  Name = Thapsigargin.pdbqt.pdb
REMARK  10 active torsions:
REMARK  status: ('A' for Active; 'I' for Inactive)
REMARK    1  A    between atoms: O_2  and  C_24
REMARK    2  A    between atoms: C_17  and  O_43
REMARK    3  A    between atoms: C_19  and  C_24
REMARK    4  A    between atoms: C_19  and  O_47
REMARK    5  A    between atoms: C_27  and  C_35
REMARK    6  A    between atoms: C_35  and  C_36
REMARK    7  A    between atoms: C_37  and  C_38
REMARK    8  A    between atoms: C_39  and  C_40
REMARK    9  A    between atoms: C_42  and  O_43
REMARK   10  A    between atoms: C_42  and  C_44
REMARK                            x       y       z     vdW  Elec       q    Type
REMARK                         _______ _______ _______ _____ _____    ______ ____
ROOT
ATOM      1  O   UNL     1      60.953  70.844  69.295  0.00  0.00    +0.000 OA
ATOM      2  O   UNL     1      60.795  65.491  66.463  0.00  0.00    +0.000 OA
ATOM      3  O   UNL     1      58.357  66.261  66.384  0.00  0.00    +0.000 OA
ATOM      4  O   UNL     1      59.284  66.006  70.447  0.00  0.00    +0.000 OA
ATOM      5  O   UNL     1      61.302  73.103  69.300  0.00  0.00    +0.000 OA
ATOM      6  O   UNL     1      59.124  66.804  65.249  0.00  0.00    +0.000 OA
ATOM      7  O   UNL     1      57.070  64.247  66.913  0.00  0.00    +0.000 OA
ATOM      8  O   UNL     1      58.220  68.128  71.200  0.00  0.00    +0.000 OA
ATOM      9  C   UNL     1      61.697  67.172  68.139  0.00  0.00    +0.000 C 
ATOM     10  C   UNL     1      62.259  70.298  67.454  0.00  0.00    +0.000 C 
ATOM     11  C   UNL     1      61.455  69.800  68.530  0.00  0.00    +0.000 C 
ATOM     12  C   UNL     1      62.602  67.117  66.955  0.00  0.00    +0.000 C 
ATOM     13  C   UNL     1      61.238  68.497  68.814  0.00  0.00    +0.000 C 
ATOM     14  C   UNL     1      62.899  69.439  66.730  0.00  0.00    +0.000 C 
ATOM     15  C   UNL     1      63.268  68.127  66.363  0.00  0.00    +0.000 C 
ATOM     16  C   UNL     1      61.347  66.147  69.096  0.00  0.00    +0.000 C 
ATOM     17  C   UNL     1      62.275  71.771  67.493  0.00  0.00    +0.000 C 
ATOM     18  C   UNL     1      60.434  66.682  70.027  0.00  0.00    +0.000 C 
ATOM     19  C   UNL     1      60.466  68.031  69.971  0.00  0.00    +0.000 C 
ATOM     20  C   UNL     1      61.163  66.846  66.787  0.00  0.00    +0.000 C 
ATOM     21  C   UNL     1      61.463  72.008  68.769  0.00  0.00    +0.000 C 
ATOM     22  C   UNL     1      59.346  68.548  70.634  0.00  0.00    +0.000 C 
ATOM     23  C   UNL     1      60.526  66.489  65.469  0.00  0.00    +0.000 C 
ATOM     24  C   UNL     1      57.729  65.069  66.007  0.00  0.00    +0.000 C 
ATOM     25  C   UNL     1      58.103  66.801  70.689  0.00  0.00    +0.000 C 
ATOM     26  C   UNL     1      61.326  66.280  64.176  0.00  0.00    +0.000 C 
ATOM     27  C   UNL     1      56.920  66.386  70.189  0.00  0.00    +0.000 C 
ATOM     28  C   UNL     1      55.654  67.193  70.368  0.00  0.00    +0.000 C 
ATOM     29  C   UNL     1      56.886  65.407  69.155  0.00  0.00    +0.000 C 
ATOM     30  C   UNL     1      56.956  64.807  68.116  0.00  0.00    +0.000 C 
ENDROOT
BRANCH  17  31
ATOM     31  O   UNL     1      63.603  72.258  67.583  0.00  0.00    +0.000 OA
ATOM     32  H   UNL     1      63.620  72.827  68.376  0.00  0.00    +0.000 HD
ENDBRANCH  17  31
BRANCH  17  33
ATOM     33  C   UNL     1      61.619  72.333  66.299  0.00  0.00    +0.000 C 
BRANCH  33  34
ATOM     34  O   UNL     1      61.021  72.817  65.212  0.00  0.00    +0.000 OA
ATOM     35  H   UNL     1      60.227  72.296  64.986  0.00  0.00    +0.000 HD
ENDBRANCH  33  34
ENDBRANCH  17  33
BRANCH  24  36
ATOM     36  C   UNL     1      57.884  64.567  64.819  0.00  0.00    +0.000 C 
BRANCH  36  37
ATOM     37  C   UNL     1      58.017  63.966  63.416  0.00  0.00    +0.000 C 
ATOM     38  C   UNL     1      58.136  63.528  62.305  0.00  0.00    +0.000 C 
BRANCH  38  39
ATOM     39  C   UNL     1      58.301  62.991  60.879  0.00  0.00    +0.000 C 
ATOM     40  C   UNL     1      58.426  62.557  59.767  0.00  0.00    +0.000 C 
BRANCH  40  41
ATOM     41  C   UNL     1      58.581  61.997  58.350  0.00  0.00    +0.000 C 
ATOM     42  C   UNL     1      58.717  61.512  57.117  0.00  0.00    +0.000 C 
ENDBRANCH  40  41
ENDBRANCH  38  39
ENDBRANCH  36  37
ENDBRANCH  24  36
BRANCH  15  43
ATOM     43  O   UNL     1      64.448  67.885  65.651  0.00  0.00    +0.000 OA
BRANCH  43  45
ATOM     44  O   UNL     1      66.008  66.476  66.655  0.00  0.00    +0.000 OA
ATOM     45  C   UNL     1      65.523  67.578  66.439  0.00  0.00    +0.000 C 
BRANCH  45  46
ATOM     46  C   UNL     1      66.081  68.746  67.048  0.00  0.00    +0.000 C 
ATOM     47  C   UNL     1      66.553  69.720  67.561  0.00  0.00    +0.000 C 
ATOM     48  C   UNL     1      67.142  70.973  68.214  0.00  0.00    +0.000 C 
ENDBRANCH  45  46
ENDBRANCH  43  45
ENDBRANCH  15  43
TORSDOF 10
ENDMDL
MODEL 9
REMARK VINA RESULT:      -6.0     11.278     14.106
REMARK  Name = Thapsigargin.pdbqt.pdb
REMARK  10 active torsions:
REMARK  status: ('A' for Active; 'I' for Inactive)
REMARK    1  A    between atoms: O_2  and  C_24
REMARK    2  A    between atoms: C_17  and  O_43
REMARK    3  A    between atoms: C_19  and  C_24
REMARK    4  A    between atoms: C_19  and  O_47
REMARK    5  A    between atoms: C_27  and  C_35
REMARK    6  A    between atoms: C_35  and  C_36
REMARK    7  A    between atoms: C_37  and  C_38
REMARK    8  A    between atoms: C_39  and  C_40
REMARK    9  A    between atoms: C_42  and  O_43
REMARK   10  A    between atoms: C_42  and  C_44
REMARK                            x       y       z     vdW  Elec       q    Type
REMARK                         _______ _______ _______ _____ _____    ______ ____
ROOT
ATOM      1  O   UNL     1      51.900  65.547  68.565  0.00  0.00    +0.000 OA
ATOM      2  O   UNL     1      56.085  62.193  65.748  0.00  0.00    +0.000 OA
ATOM      3  O   UNL     1      54.296  62.520  63.949  0.00  0.00    +0.000 OA
ATOM      4  O   UNL     1      52.350  60.540  67.068  0.00  0.00    +0.000 OA
ATOM      5  O   UNL     1      51.077  67.564  69.256  0.00  0.00    +0.000 OA
ATOM      6  O   UNL     1      55.250  63.642  63.961  0.00  0.00    +0.000 OA
ATOM      7  O   UNL     1      54.090  60.319  62.896  0.00  0.00    +0.000 OA
ATOM      8  O   UNL     1      50.243  61.868  67.087  0.00  0.00    +0.000 OA
ATOM      9  C   UNL     1      54.782  63.011  67.768  0.00  0.00    +0.000 C 
ATOM     10  C   UNL     1      54.139  66.138  68.370  0.00  0.00    +0.000 C 
ATOM     11  C   UNL     1      53.180  65.076  68.301  0.00  0.00    +0.000 C 
ATOM     12  C   UNL     1      56.125  63.658  67.749  0.00  0.00    +0.000 C 
ATOM     13  C   UNL     1      53.459  63.776  68.062  0.00  0.00    +0.000 C 
ATOM     14  C   UNL     1      55.390  65.829  68.273  0.00  0.00    +0.000 C 
ATOM     15  C   UNL     1      56.452  64.917  68.095  0.00  0.00    +0.000 C 
ATOM     16  C   UNL     1      54.419  61.617  67.883  0.00  0.00    +0.000 C 
ATOM     17  C   UNL     1      53.449  67.403  68.678  0.00  0.00    +0.000 C 
ATOM     18  C   UNL     1      53.014  61.504  67.834  0.00  0.00    +0.000 C 
ATOM     19  C   UNL     1      52.453  62.708  68.074  0.00  0.00    +0.000 C 
ATOM     20  C   UNL     1      55.480  63.277  66.478  0.00  0.00    +0.000 C 
ATOM     21  C   UNL     1      52.020  66.886  68.859  0.00  0.00    +0.000 C 
ATOM     22  C   UNL     1      51.104  62.673  67.699  0.00  0.00    +0.000 C 
ATOM     23  C   UNL     1      56.107  63.484  65.125  0.00  0.00    +0.000 C 
ATOM     24  C   UNL     1      54.701  61.561  63.014  0.00  0.00    +0.000 C 
ATOM     25  C   UNL     1      51.109  60.934  66.443  0.00  0.00    +0.000 C 
ATOM     26  C   UNL     1      57.527  64.032  64.929  0.00  0.00    +0.000 C 
ATOM     27  C   UNL     1      50.901  60.623  65.147  0.00  0.00    +0.000 C 
ATOM     28  C   UNL     1      49.643  61.044  64.420  0.00  0.00    +0.000 C 
ATOM     29  C   UNL     1      51.997  60.250  64.317  0.00  0.00    +0.000 C 
ATOM     30  C   UNL     1      52.986  60.225  63.634  0.00  0.00    +0.000 C 
ENDROOT
BRANCH  17  31
ATOM     31  O   UNL     1      53.978  67.992  69.854  0.00  0.00    +0.000 OA
ATOM     32  H   UNL     1      54.775  67.474  70.070  0.00  0.00    +0.000 HD
ENDBRANCH  17  31
BRANCH  17  33
ATOM     33  C   UNL     1      53.564  68.349  67.553  0.00  0.00    +0.000 C 
BRANCH  33  34
ATOM     34  O   UNL     1      53.644  69.198  66.530  0.00  0.00    +0.000 OA
ATOM     35  H   UNL     1      54.506  69.125  66.080  0.00  0.00    +0.000 HD
ENDBRANCH  33  34
ENDBRANCH  17  33
BRANCH  24  36
ATOM     36  C   UNL     1      55.795  61.704  62.326  0.00  0.00    +0.000 C 
BRANCH  36  37
ATOM     37  C   UNL     1      57.110  61.872  61.559  0.00  0.00    +0.000 C 
ATOM     38  C   UNL     1      58.133  61.973  60.939  0.00  0.00    +0.000 C 
BRANCH  38  39
ATOM     39  C   UNL     1      59.431  62.080  60.132  0.00  0.00    +0.000 C 
ATOM     40  C   UNL     1      60.455  62.170  59.512  0.00  0.00    +0.000 C 
BRANCH  40  41
ATOM     41  C   UNL     1      61.765  62.287  58.728  0.00  0.00    +0.000 C 
ATOM     42  C   UNL     1      62.906  62.388  58.047  0.00  0.00    +0.000 C 
ENDBRANCH  40  41
ENDBRANCH  38  39
ENDBRANCH  36  37
ENDBRANCH  24  36
BRANCH  15  43
ATOM     43  O   UNL     1      57.744  65.224  68.538  0.00  0.00    +0.000 OA
BRANCH  43  45
ATOM     44  O   UNL     1      57.153  65.265  70.791  0.00  0.00    +0.000 OA
ATOM     45  C   UNL     1      57.801  65.662  69.833  0.00  0.00    +0.000 C 
BRANCH  45  46
ATOM     46  C   UNL     1      58.757  66.716  69.992  0.00  0.00    +0.000 C 
ATOM     47  C   UNL     1      59.557  67.595  70.132  0.00  0.00    +0.000 C 
ATOM     48  C   UNL     1      60.574  68.726  70.298  0.00  0.00    +0.000 C 
ENDBRANCH  45  46
ENDBRANCH  43  45
ENDBRANCH  15  43
TORSDOF 10
ENDMDL
