MODEL 1
REMARK VINA RESULT:      -5.4      0.000      0.000
REMARK  Name = Thioguanosine.pdbqt.pdb
REMARK  5 active torsions:
REMARK  status: ('A' for Active; 'I' for Inactive)
REMARK    1  A    between atoms: N_2  and  C1*_12
REMARK    2  A    between atoms: C4*_14  and  C5*_17
REMARK    3  A    between atoms: C3*_15  and  O3*_20
REMARK    4  A    between atoms: C2*_16  and  O2*_22
REMARK    5  A    between atoms: C5*_17  and  O5*_18
REMARK                            x       y       z     vdW  Elec       q    Type
REMARK                         _______ _______ _______ _____ _____    ______ ____
ROOT
ATOM      1  S   UNL     1      69.042  39.888  73.809  0.00  0.00    +0.000 S 
ATOM      2  N   UNL     1      65.482  39.932  70.444  0.00  0.00    +0.000 N 
ATOM      3  N   UNL     1      64.744  40.414  72.743  0.00  0.00    +0.000 N 
ATOM      4  N   UNL     1      67.680  39.693  70.932  0.00  0.00    +0.000 NA
ATOM      5  N   UNL     1      66.426  40.362  74.423  0.00  0.00    +0.000 NA
ATOM      6  C   UNL     1      65.651  40.125  71.792  0.00  0.00    +0.000 A 
ATOM      7  C   UNL     1      66.767  39.693  69.981  0.00  0.00    +0.000 A 
ATOM      8  C   UNL     1      66.981  39.959  72.084  0.00  0.00    +0.000 A 
ATOM      9  C   UNL     1      67.415  40.083  73.477  0.00  0.00    +0.000 A 
ATOM     10  C   UNL     1      65.194  40.513  74.031  0.00  0.00    +0.000 A 
ATOM     11  H   UNL     1      63.749  40.502  72.547  0.00  0.00    +0.000 HD
ATOM     12  N   UNL     1      64.217  40.790  74.927  0.00  0.00    +0.000 N 
ATOM     13  H   UNL     1      63.601  41.544  74.653  0.00  0.00    +0.000 HD
ATOM     14  H   UNL     1      64.617  40.972  75.845  0.00  0.00    +0.000 HD
ENDROOT
BRANCH   2  15
ATOM     15  C1* UNL     1      64.341  39.937  69.667  0.00  0.00    +0.000 A 
ATOM     16  O4* UNL     1      64.061  38.902  68.743  0.00  0.00    +0.000 OA
ATOM     17  C4* UNL     1      62.849  39.179  68.089  0.00  0.00    +0.000 A 
ATOM     18  C3* UNL     1      62.333  40.414  68.607  0.00  0.00    +0.000 A 
ATOM     19  C2* UNL     1      63.254  40.882  69.596  0.00  0.00    +0.000 A 
BRANCH  18  20
ATOM     20  O3* UNL     1      61.610  41.304  67.859  0.00  0.00    +0.000 OA
ATOM     21  H3* UNL     1      62.114  41.613  67.084  0.00  0.00    +0.000 HD
ENDBRANCH  18  20
BRANCH  19  22
ATOM     22  O2* UNL     1      63.415  42.222  69.823  0.00  0.00    +0.000 OA
ATOM     23  H2* UNL     1      62.612  42.699  69.530  0.00  0.00    +0.000 HD
ENDBRANCH  19  22
BRANCH  17  24
ATOM     24  C5* UNL     1      62.422  38.479  66.946  0.00  0.00    +0.000 C 
BRANCH  24  25
ATOM     25  O5* UNL     1      62.021  37.836  65.854  0.00  0.00    +0.000 OA
ATOM     26  H5* UNL     1      61.810  36.908  66.060  0.00  0.00    +0.000 HD
ENDBRANCH  24  25
ENDBRANCH  17  24
ENDBRANCH   2  15
TORSDOF 5
ENDMDL
MODEL 2
REMARK VINA RESULT:      -5.3     15.923     16.938
REMARK  Name = Thioguanosine.pdbqt.pdb
REMARK  5 active torsions:
REMARK  status: ('A' for Active; 'I' for Inactive)
REMARK    1  A    between atoms: N_2  and  C1*_12
REMARK    2  A    between atoms: C4*_14  and  C5*_17
REMARK    3  A    between atoms: C3*_15  and  O3*_20
REMARK    4  A    between atoms: C2*_16  and  O2*_22
REMARK    5  A    between atoms: C5*_17  and  O5*_18
REMARK                            x       y       z     vdW  Elec       q    Type
REMARK                         _______ _______ _______ _____ _____    ______ ____
ROOT
ATOM      1  S   UNL     1      65.932  46.064  53.312  0.00  0.00    +0.000 S 
ATOM      2  N   UNL     1      63.151  42.161  54.325  0.00  0.00    +0.000 N 
ATOM      3  N   UNL     1      65.573  41.723  54.270  0.00  0.00    +0.000 N 
ATOM      4  N   UNL     1      63.286  44.377  53.878  0.00  0.00    +0.000 NA
ATOM      5  N   UNL     1      66.966  43.576  53.739  0.00  0.00    +0.000 NA
ATOM      6  C   UNL     1      64.474  42.494  54.179  0.00  0.00    +0.000 A 
ATOM      7  C   UNL     1      62.486  43.364  54.148  0.00  0.00    +0.000 A 
ATOM      8  C   UNL     1      64.547  43.833  53.889  0.00  0.00    +0.000 A 
ATOM      9  C   UNL     1      65.864  44.429  53.653  0.00  0.00    +0.000 A 
ATOM     10  C   UNL     1      66.780  42.322  54.035  0.00  0.00    +0.000 A 
ATOM     11  H   UNL     1      65.531  40.722  54.446  0.00  0.00    +0.000 HD
ATOM     12  N   UNL     1      67.833  41.475  54.130  0.00  0.00    +0.000 N 
ATOM     13  H   UNL     1      67.824  40.889  54.955  0.00  0.00    +0.000 HD
ATOM     14  H   UNL     1      68.709  41.988  54.067  0.00  0.00    +0.000 HD
ENDROOT
BRANCH   2  15
ATOM     15  C1* UNL     1      62.547  40.943  54.568  0.00  0.00    +0.000 A 
ATOM     16  O4* UNL     1      61.362  40.835  55.334  0.00  0.00    +0.000 OA
ATOM     17  C4* UNL     1      60.990  39.483  55.425  0.00  0.00    +0.000 A 
ATOM     18  C3* UNL     1      61.951  38.705  54.697  0.00  0.00    +0.000 A 
ATOM     19  C2* UNL     1      62.915  39.611  54.154  0.00  0.00    +0.000 A 
BRANCH  18  20
ATOM     20  O3* UNL     1      62.319  37.435  55.051  0.00  0.00    +0.000 OA
ATOM     21  H3* UNL     1      61.543  36.877  55.245  0.00  0.00    +0.000 HD
ENDBRANCH  18  20
BRANCH  19  22
ATOM     22  O2* UNL     1      64.212  39.221  53.964  0.00  0.00    +0.000 OA
ATOM     23  H2* UNL     1      64.774  40.013  53.842  0.00  0.00    +0.000 HD
ENDBRANCH  19  22
BRANCH  17  24
ATOM     24  C5* UNL     1      60.005  39.022  56.319  0.00  0.00    +0.000 C 
BRANCH  24  25
ATOM     25  O5* UNL     1      59.070  38.609  57.167  0.00  0.00    +0.000 OA
ATOM     26  H5* UNL     1      58.286  39.184  57.120  0.00  0.00    +0.000 HD
ENDBRANCH  24  25
ENDBRANCH  17  24
ENDBRANCH   2  15
TORSDOF 5
ENDMDL
MODEL 3
REMARK VINA RESULT:      -5.0     28.560     30.119
REMARK  Name = Thioguanosine.pdbqt.pdb
REMARK  5 active torsions:
REMARK  status: ('A' for Active; 'I' for Inactive)
REMARK    1  A    between atoms: N_2  and  C1*_12
REMARK    2  A    between atoms: C4*_14  and  C5*_17
REMARK    3  A    between atoms: C3*_15  and  O3*_20
REMARK    4  A    between atoms: C2*_16  and  O2*_22
REMARK    5  A    between atoms: C5*_17  and  O5*_18
REMARK                            x       y       z     vdW  Elec       q    Type
REMARK                         _______ _______ _______ _____ _____    ______ ____
ROOT
ATOM      1  S   UNL     1      34.880  43.091  63.627  0.00  0.00    +0.000 S 
ATOM      2  N   UNL     1      37.615  41.135  60.065  0.00  0.00    +0.000 N 
ATOM      3  N   UNL     1      35.424  41.992  59.340  0.00  0.00    +0.000 N 
ATOM      4  N   UNL     1      37.399  41.709  62.245  0.00  0.00    +0.000 NA
ATOM      5  N   UNL     1      34.038  42.913  61.038  0.00  0.00    +0.000 NA
ATOM      6  C   UNL     1      36.393  41.736  60.237  0.00  0.00    +0.000 A 
ATOM      7  C   UNL     1      38.182  41.172  61.330  0.00  0.00    +0.000 A 
ATOM      8  C   UNL     1      36.261  42.062  61.563  0.00  0.00    +0.000 A 
ATOM      9  C   UNL     1      35.016  42.691  62.010  0.00  0.00    +0.000 A 
ATOM     10  C   UNL     1      34.277  42.575  59.805  0.00  0.00    +0.000 A 
ATOM     11  H   UNL     1      35.493  41.721  58.361  0.00  0.00    +0.000 HD
ATOM     12  N   UNL     1      33.347  42.785  58.842  0.00  0.00    +0.000 N 
ATOM     13  H   UNL     1      33.708  43.213  58.000  0.00  0.00    +0.000 HD
ATOM     14  H   UNL     1      32.568  43.324  59.212  0.00  0.00    +0.000 HD
ENDROOT
BRANCH   2  15
ATOM     15  C1* UNL     1      38.201  40.583  58.943  0.00  0.00    +0.000 A 
ATOM     16  O4* UNL     1      37.912  39.263  58.521  0.00  0.00    +0.000 OA
ATOM     17  C4* UNL     1      38.659  38.971  57.368  0.00  0.00    +0.000 A 
ATOM     18  C3* UNL     1      39.440  40.128  57.036  0.00  0.00    +0.000 A 
ATOM     19  C2* UNL     1      39.149  41.136  58.008  0.00  0.00    +0.000 A 
BRANCH  18  20
ATOM     20  O3* UNL     1      40.679  40.063  56.457  0.00  0.00    +0.000 OA
ATOM     21  H3* UNL     1      41.312  39.578  57.019  0.00  0.00    +0.000 HD
ENDBRANCH  18  20
BRANCH  19  22
ATOM     22  O2* UNL     1      40.094  42.060  58.362  0.00  0.00    +0.000 OA
ATOM     23  H2* UNL     1      40.057  42.816  57.742  0.00  0.00    +0.000 HD
ENDBRANCH  19  22
BRANCH  17  24
ATOM     24  C5* UNL     1      38.785  37.668  56.851  0.00  0.00    +0.000 C 
BRANCH  24  25
ATOM     25  O5* UNL     1      38.926  36.443  56.358  0.00  0.00    +0.000 OA
ATOM     26  H5* UNL     1      39.494  36.455  55.567  0.00  0.00    +0.000 HD
ENDBRANCH  24  25
ENDBRANCH  17  24
ENDBRANCH   2  15
TORSDOF 5
ENDMDL
MODEL 4
REMARK VINA RESULT:      -4.5     20.113     21.777
REMARK  Name = Thioguanosine.pdbqt.pdb
REMARK  5 active torsions:
REMARK  status: ('A' for Active; 'I' for Inactive)
REMARK    1  A    between atoms: N_2  and  C1*_12
REMARK    2  A    between atoms: C4*_14  and  C5*_17
REMARK    3  A    between atoms: C3*_15  and  O3*_20
REMARK    4  A    between atoms: C2*_16  and  O2*_22
REMARK    5  A    between atoms: C5*_17  and  O5*_18
REMARK                            x       y       z     vdW  Elec       q    Type
REMARK                         _______ _______ _______ _____ _____    ______ ____
ROOT
ATOM      1  S   UNL     1      49.143  27.556  59.402  0.00  0.00    +0.000 S 
ATOM      2  N   UNL     1      51.066  31.801  57.893  0.00  0.00    +0.000 N 
ATOM      3  N   UNL     1      49.887  30.520  56.154  0.00  0.00    +0.000 N 
ATOM      4  N   UNL     1      50.681  30.344  59.583  0.00  0.00    +0.000 NA
ATOM      5  N   UNL     1      48.971  28.430  56.823  0.00  0.00    +0.000 NA
ATOM      6  C   UNL     1      50.342  30.745  57.399  0.00  0.00    +0.000 A 
ATOM      7  C   UNL     1      51.219  31.497  59.237  0.00  0.00    +0.000 A 
ATOM      8  C   UNL     1      50.130  29.857  58.423  0.00  0.00    +0.000 A 
ATOM      9  C   UNL     1      49.401  28.620  58.138  0.00  0.00    +0.000 A 
ATOM     10  C   UNL     1      49.217  29.347  55.934  0.00  0.00    +0.000 A 
ATOM     11  H   UNL     1      50.069  31.150  55.377  0.00  0.00    +0.000 HD
ATOM     12  N   UNL     1      48.806  29.190  54.652  0.00  0.00    +0.000 N 
ATOM     13  H   UNL     1      48.346  30.000  54.259  0.00  0.00    +0.000 HD
ATOM     14  H   UNL     1      48.214  28.367  54.568  0.00  0.00    +0.000 HD
ENDROOT
BRANCH   2  15
ATOM     15  C1* UNL     1      51.576  32.920  57.265  0.00  0.00    +0.000 A 
ATOM     16  O4* UNL     1      51.260  34.230  57.697  0.00  0.00    +0.000 OA
ATOM     17  C4* UNL     1      51.906  35.162  56.867  0.00  0.00    +0.000 A 
ATOM     18  C3* UNL     1      52.659  34.437  55.884  0.00  0.00    +0.000 A 
ATOM     19  C2* UNL     1      52.465  33.043  56.135  0.00  0.00    +0.000 A 
BRANCH  18  20
ATOM     20  O3* UNL     1      52.866  34.887  54.608  0.00  0.00    +0.000 OA
ATOM     21  H3* UNL     1      53.483  35.642  54.589  0.00  0.00    +0.000 HD
ENDBRANCH  18  20
BRANCH  19  22
ATOM     22  O2* UNL     1      52.499  32.136  55.111  0.00  0.00    +0.000 OA
ATOM     23  H2* UNL     1      52.256  32.583  54.275  0.00  0.00    +0.000 HD
ENDBRANCH  19  22
BRANCH  17  24
ATOM     24  C5* UNL     1      51.598  36.535  56.879  0.00  0.00    +0.000 C 
BRANCH  24  25
ATOM     25  O5* UNL     1      51.319  37.834  56.869  0.00  0.00    +0.000 OA
ATOM     26  H5* UNL     1      50.357  37.978  56.863  0.00  0.00    +0.000 HD
ENDBRANCH  24  25
ENDBRANCH  17  24
ENDBRANCH   2  15
TORSDOF 5
ENDMDL
MODEL 5
REMARK VINA RESULT:      -4.5      3.350      4.203
REMARK  Name = Thioguanosine.pdbqt.pdb
REMARK  5 active torsions:
REMARK  status: ('A' for Active; 'I' for Inactive)
REMARK    1  A    between atoms: N_2  and  C1*_12
REMARK    2  A    between atoms: C4*_14  and  C5*_17
REMARK    3  A    between atoms: C3*_15  and  O3*_20
REMARK    4  A    between atoms: C2*_16  and  O2*_22
REMARK    5  A    between atoms: C5*_17  and  O5*_18
REMARK                            x       y       z     vdW  Elec       q    Type
REMARK                         _______ _______ _______ _____ _____    ______ ____
ROOT
ATOM      1  S   UNL     1      66.442  38.271  71.873  0.00  0.00    +0.000 S 
ATOM      2  N   UNL     1      61.843  38.072  70.200  0.00  0.00    +0.000 N 
ATOM      3  N   UNL     1      62.893  40.296  70.087  0.00  0.00    +0.000 N 
ATOM      4  N   UNL     1      63.632  36.994  71.072  0.00  0.00    +0.000 NA
ATOM      5  N   UNL     1      65.112  40.457  70.928  0.00  0.00    +0.000 NA
ATOM      6  C   UNL     1      62.858  38.980  70.365  0.00  0.00    +0.000 A 
ATOM      7  C   UNL     1      62.394  36.877  70.634  0.00  0.00    +0.000 A 
ATOM      8  C   UNL     1      63.932  38.325  70.913  0.00  0.00    +0.000 A 
ATOM      9  C   UNL     1      65.141  39.091  71.217  0.00  0.00    +0.000 A 
ATOM     10  C   UNL     1      64.041  40.972  70.395  0.00  0.00    +0.000 A 
ATOM     11  H   UNL     1      62.092  40.803  69.717  0.00  0.00    +0.000 HD
ATOM     12  N   UNL     1      63.989  42.293  70.099  0.00  0.00    +0.000 N 
ATOM     13  H   UNL     1      63.631  42.500  69.176  0.00  0.00    +0.000 HD
ATOM     14  H   UNL     1      64.900  42.724  70.234  0.00  0.00    +0.000 HD
ENDROOT
BRANCH   2  15
ATOM     15  C1* UNL     1      60.550  38.236  69.741  0.00  0.00    +0.000 A 
ATOM     16  O4* UNL     1      60.032  37.463  68.674  0.00  0.00    +0.000 OA
ATOM     17  C4* UNL     1      58.708  37.855  68.418  0.00  0.00    +0.000 A 
ATOM     18  C3* UNL     1      58.363  38.896  69.343  0.00  0.00    +0.000 A 
ATOM     19  C2* UNL     1      59.503  39.128  70.174  0.00  0.00    +0.000 A 
BRANCH  18  20
ATOM     20  O3* UNL     1      57.507  39.922  69.042  0.00  0.00    +0.000 OA
ATOM     21  H3* UNL     1      57.195  40.376  69.846  0.00  0.00    +0.000 HD
ENDBRANCH  18  20
BRANCH  19  22
ATOM     22  O2* UNL     1      59.749  40.369  70.695  0.00  0.00    +0.000 OA
ATOM     23  H2* UNL     1      60.225  40.275  71.545  0.00  0.00    +0.000 HD
ENDBRANCH  19  22
BRANCH  17  24
ATOM     24  C5* UNL     1      58.004  37.456  67.267  0.00  0.00    +0.000 C 
BRANCH  24  25
ATOM     25  O5* UNL     1      57.346  37.058  66.183  0.00  0.00    +0.000 OA
ATOM     26  H5* UNL     1      57.903  37.152  65.390  0.00  0.00    +0.000 HD
ENDBRANCH  24  25
ENDBRANCH  17  24
ENDBRANCH   2  15
TORSDOF 5
ENDMDL
MODEL 6
REMARK VINA RESULT:      -4.3     17.861     19.786
REMARK  Name = Thioguanosine.pdbqt.pdb
REMARK  5 active torsions:
REMARK  status: ('A' for Active; 'I' for Inactive)
REMARK    1  A    between atoms: N_2  and  C1*_12
REMARK    2  A    between atoms: C4*_14  and  C5*_17
REMARK    3  A    between atoms: C3*_15  and  O3*_20
REMARK    4  A    between atoms: C2*_16  and  O2*_22
REMARK    5  A    between atoms: C5*_17  and  O5*_18
REMARK                            x       y       z     vdW  Elec       q    Type
REMARK                         _______ _______ _______ _____ _____    ______ ____
ROOT
ATOM      1  S   UNL     1      51.690  48.719  56.148  0.00  0.00    +0.000 S 
ATOM      2  N   UNL     1      55.568  51.258  57.731  0.00  0.00    +0.000 N 
ATOM      3  N   UNL     1      56.089  49.037  56.807  0.00  0.00    +0.000 N 
ATOM      4  N   UNL     1      53.334  51.157  57.382  0.00  0.00    +0.000 NA
ATOM      5  N   UNL     1      54.236  47.744  56.064  0.00  0.00    +0.000 NA
ATOM      6  C   UNL     1      55.274  50.049  57.152  0.00  0.00    +0.000 A 
ATOM      7  C   UNL     1      54.338  51.890  57.822  0.00  0.00    +0.000 A 
ATOM      8  C   UNL     1      53.917  49.987  56.962  0.00  0.00    +0.000 A 
ATOM      9  C   UNL     1      53.344  48.770  56.382  0.00  0.00    +0.000 A 
ATOM     10  C   UNL     1      55.509  47.918  56.275  0.00  0.00    +0.000 A 
ATOM     11  H   UNL     1      57.092  49.053  56.977  0.00  0.00    +0.000 HD
ATOM     12  N   UNL     1      56.396  46.940  55.970  0.00  0.00    +0.000 N 
ATOM     13  H   UNL     1      57.208  47.259  55.458  0.00  0.00    +0.000 HD
ATOM     14  H   UNL     1      55.933  46.184  55.471  0.00  0.00    +0.000 HD
ENDROOT
BRANCH   2  15
ATOM     15  C1* UNL     1      56.770  51.783  58.167  0.00  0.00    +0.000 A 
ATOM     16  O4* UNL     1      57.940  50.993  58.264  0.00  0.00    +0.000 OA
ATOM     17  C4* UNL     1      58.995  51.785  58.745  0.00  0.00    +0.000 A 
ATOM     18  C3* UNL     1      58.498  53.114  58.955  0.00  0.00    +0.000 A 
ATOM     19  C2* UNL     1      57.116  53.119  58.586  0.00  0.00    +0.000 A 
BRANCH  18  20
ATOM     20  O3* UNL     1      58.951  53.943  59.946  0.00  0.00    +0.000 OA
ATOM     21  H3* UNL     1      58.243  54.168  60.577  0.00  0.00    +0.000 HD
ENDBRANCH  18  20
BRANCH  19  22
ATOM     22  O2* UNL     1      56.230  53.960  59.202  0.00  0.00    +0.000 OA
ATOM     23  H2* UNL     1      55.338  53.558  59.188  0.00  0.00    +0.000 HD
ENDBRANCH  19  22
BRANCH  17  24
ATOM     24  C5* UNL     1      60.216  51.241  59.186  0.00  0.00    +0.000 C 
BRANCH  24  25
ATOM     25  O5* UNL     1      61.362  50.707  59.596  0.00  0.00    +0.000 OA
ATOM     26  H5* UNL     1      61.839  51.326  60.177  0.00  0.00    +0.000 HD
ENDBRANCH  24  25
ENDBRANCH  17  24
ENDBRANCH   2  15
TORSDOF 5
ENDMDL
MODEL 7
REMARK VINA RESULT:      -4.2     23.588     24.647
REMARK  Name = Thioguanosine.pdbqt.pdb
REMARK  5 active torsions:
REMARK  status: ('A' for Active; 'I' for Inactive)
REMARK    1  A    between atoms: N_2  and  C1*_12
REMARK    2  A    between atoms: C4*_14  and  C5*_17
REMARK    3  A    between atoms: C3*_15  and  O3*_20
REMARK    4  A    between atoms: C2*_16  and  O2*_22
REMARK    5  A    between atoms: C5*_17  and  O5*_18
REMARK                            x       y       z     vdW  Elec       q    Type
REMARK                         _______ _______ _______ _____ _____    ______ ____
ROOT
ATOM      1  S   UNL     1      56.646  57.198  87.642  0.00  0.00    +0.000 S 
ATOM      2  N   UNL     1      54.778  58.018  83.189  0.00  0.00    +0.000 N 
ATOM      3  N   UNL     1      55.586  60.026  84.361  0.00  0.00    +0.000 N 
ATOM      4  N   UNL     1      55.333  56.540  84.811  0.00  0.00    +0.000 NA
ATOM      5  N   UNL     1      56.463  59.689  86.546  0.00  0.00    +0.000 NA
ATOM      6  C   UNL     1      55.347  58.709  84.228  0.00  0.00    +0.000 A 
ATOM      7  C   UNL     1      54.821  56.697  83.607  0.00  0.00    +0.000 A 
ATOM      8  C   UNL     1      55.662  57.810  85.216  0.00  0.00    +0.000 A 
ATOM      9  C   UNL     1      56.259  58.311  86.456  0.00  0.00    +0.000 A 
ATOM     10  C   UNL     1      56.138  60.448  85.539  0.00  0.00    +0.000 A 
ATOM     11  H   UNL     1      55.322  60.708  83.654  0.00  0.00    +0.000 HD
ATOM     12  N   UNL     1      56.330  61.788  85.599  0.00  0.00    +0.000 N 
ATOM     13  H   UNL     1      56.773  62.183  84.779  0.00  0.00    +0.000 HD
ATOM     14  H   UNL     1      56.849  62.036  86.438  0.00  0.00    +0.000 HD
ENDROOT
BRANCH   2  15
ATOM     15  C1* UNL     1      54.246  58.461  81.993  0.00  0.00    +0.000 A 
ATOM     16  O4* UNL     1      52.887  58.255  81.657  0.00  0.00    +0.000 OA
ATOM     17  C4* UNL     1      52.637  58.795  80.384  0.00  0.00    +0.000 A 
ATOM     18  C3* UNL     1      53.858  59.367  79.893  0.00  0.00    +0.000 A 
ATOM     19  C2* UNL     1      54.858  59.170  80.896  0.00  0.00    +0.000 A 
BRANCH  18  20
ATOM     20  O3* UNL     1      54.203  59.391  78.569  0.00  0.00    +0.000 OA
ATOM     21  H3* UNL     1      53.957  58.561  78.119  0.00  0.00    +0.000 HD
ENDBRANCH  18  20
BRANCH  19  22
ATOM     22  O2* UNL     1      56.174  59.019  80.552  0.00  0.00    +0.000 OA
ATOM     23  H2* UNL     1      56.727  59.583  81.130  0.00  0.00    +0.000 HD
ENDBRANCH  19  22
BRANCH  17  24
ATOM     24  C5* UNL     1      51.456  58.536  79.665  0.00  0.00    +0.000 C 
BRANCH  24  25
ATOM     25  O5* UNL     1      50.348  58.270  78.981  0.00  0.00    +0.000 OA
ATOM     26  H5* UNL     1      50.024  59.069  78.530  0.00  0.00    +0.000 HD
ENDBRANCH  24  25
ENDBRANCH  17  24
ENDBRANCH   2  15
TORSDOF 5
ENDMDL
MODEL 8
REMARK VINA RESULT:      -4.2     20.388     22.412
REMARK  Name = Thioguanosine.pdbqt.pdb
REMARK  5 active torsions:
REMARK  status: ('A' for Active; 'I' for Inactive)
REMARK    1  A    between atoms: N_2  and  C1*_12
REMARK    2  A    between atoms: C4*_14  and  C5*_17
REMARK    3  A    between atoms: C3*_15  and  O3*_20
REMARK    4  A    between atoms: C2*_16  and  O2*_22
REMARK    5  A    between atoms: C5*_17  and  O5*_18
REMARK                            x       y       z     vdW  Elec       q    Type
REMARK                         _______ _______ _______ _____ _____    ______ ____
ROOT
ATOM      1  S   UNL     1      45.091  34.988  63.959  0.00  0.00    +0.000 S 
ATOM      2  N   UNL     1      42.961  39.124  65.493  0.00  0.00    +0.000 N 
ATOM      3  N   UNL     1      45.379  38.979  65.929  0.00  0.00    +0.000 N 
ATOM      4  N   UNL     1      42.773  37.122  64.453  0.00  0.00    +0.000 NA
ATOM      5  N   UNL     1      46.455  36.972  65.243  0.00  0.00    +0.000 NA
ATOM      6  C   UNL     1      44.199  38.534  65.461  0.00  0.00    +0.000 A 
ATOM      7  C   UNL     1      42.144  38.213  64.841  0.00  0.00    +0.000 A 
ATOM      8  C   UNL     1      44.074  37.313  64.848  0.00  0.00    +0.000 A 
ATOM      9  C   UNL     1      45.262  36.467  64.720  0.00  0.00    +0.000 A 
ATOM     10  C   UNL     1      46.460  38.151  65.793  0.00  0.00    +0.000 A 
ATOM     11  H   UNL     1      45.480  39.864  66.420  0.00  0.00    +0.000 HD
ATOM     12  N   UNL     1      47.605  38.666  66.303  0.00  0.00    +0.000 N 
ATOM     13  H   UNL     1      47.789  39.623  66.031  0.00  0.00    +0.000 HD
ATOM     14  H   UNL     1      48.397  38.071  66.072  0.00  0.00    +0.000 HD
ENDROOT
BRANCH   2  15
ATOM     15  C1* UNL     1      42.544  40.321  66.042  0.00  0.00    +0.000 A 
ATOM     16  O4* UNL     1      42.870  40.690  67.369  0.00  0.00    +0.000 OA
ATOM     17  C4* UNL     1      42.303  41.943  67.655  0.00  0.00    +0.000 A 
ATOM     18  C3* UNL     1      41.605  42.395  66.485  0.00  0.00    +0.000 A 
ATOM     19  C2* UNL     1      41.762  41.393  65.477  0.00  0.00    +0.000 A 
BRANCH  18  20
ATOM     20  O3* UNL     1      40.469  43.157  66.531  0.00  0.00    +0.000 OA
ATOM     21  H3* UNL     1      39.711  42.696  66.126  0.00  0.00    +0.000 HD
ENDBRANCH  18  20
BRANCH  19  22
ATOM     22  O2* UNL     1      40.791  41.192  64.534  0.00  0.00    +0.000 OA
ATOM     23  H2* UNL     1      40.601  42.037  64.080  0.00  0.00    +0.000 HD
ENDBRANCH  19  22
BRANCH  17  24
ATOM     24  C5* UNL     1      42.233  42.469  68.958  0.00  0.00    +0.000 C 
BRANCH  24  25
ATOM     25  O5* UNL     1      42.149  42.977  70.182  0.00  0.00    +0.000 OA
ATOM     26  H5* UNL     1      41.224  43.188  70.403  0.00  0.00    +0.000 HD
ENDBRANCH  24  25
ENDBRANCH  17  24
ENDBRANCH   2  15
TORSDOF 5
ENDMDL
MODEL 9
REMARK VINA RESULT:      -4.1      8.663     10.132
REMARK  Name = Thioguanosine.pdbqt.pdb
REMARK  5 active torsions:
REMARK  status: ('A' for Active; 'I' for Inactive)
REMARK    1  A    between atoms: N_2  and  C1*_12
REMARK    2  A    between atoms: C4*_14  and  C5*_17
REMARK    3  A    between atoms: C3*_15  and  O3*_20
REMARK    4  A    between atoms: C2*_16  and  O2*_22
REMARK    5  A    between atoms: C5*_17  and  O5*_18
REMARK                            x       y       z     vdW  Elec       q    Type
REMARK                         _______ _______ _______ _____ _____    ______ ____
ROOT
ATOM      1  S   UNL     1      70.810  34.585  63.650  0.00  0.00    +0.000 S 
ATOM      2  N   UNL     1      71.008  39.467  63.303  0.00  0.00    +0.000 N 
ATOM      3  N   UNL     1      69.023  38.589  64.464  0.00  0.00    +0.000 N 
ATOM      4  N   UNL     1      71.972  37.459  62.900  0.00  0.00    +0.000 NA
ATOM      5  N   UNL     1      68.856  36.222  64.621  0.00  0.00    +0.000 NA
ATOM      6  C   UNL     1      70.197  38.486  63.815  0.00  0.00    +0.000 A 
ATOM      7  C   UNL     1      72.082  38.767  62.778  0.00  0.00    +0.000 A 
ATOM      8  C   UNL     1      70.777  37.272  63.550  0.00  0.00    +0.000 A 
ATOM      9  C   UNL     1      70.081  36.054  63.973  0.00  0.00    +0.000 A 
ATOM     10  C   UNL     1      68.406  37.425  64.833  0.00  0.00    +0.000 A 
ATOM     11  H   UNL     1      68.562  39.480  64.633  0.00  0.00    +0.000 HD
ATOM     12  N   UNL     1      67.223  37.615  65.465  0.00  0.00    +0.000 N 
ATOM     13  H   UNL     1      67.249  38.311  66.199  0.00  0.00    +0.000 HD
ATOM     14  H   UNL     1      66.865  36.732  65.823  0.00  0.00    +0.000 HD
ENDROOT
BRANCH   2  15
ATOM     15  C1* UNL     1      70.851  40.839  63.261  0.00  0.00    +0.000 A 
ATOM     16  O4* UNL     1      70.494  41.515  62.070  0.00  0.00    +0.000 OA
ATOM     17  C4* UNL     1      70.422  42.895  62.324  0.00  0.00    +0.000 A 
ATOM     18  C3* UNL     1      70.732  43.112  63.708  0.00  0.00    +0.000 A 
ATOM     19  C2* UNL     1      70.988  41.834  64.296  0.00  0.00    +0.000 A 
BRANCH  18  20
ATOM     20  O3* UNL     1      71.373  44.228  64.174  0.00  0.00    +0.000 OA
ATOM     21  H3* UNL     1      72.202  43.999  64.633  0.00  0.00    +0.000 HD
ENDBRANCH  18  20
BRANCH  19  22
ATOM     22  O2* UNL     1      71.862  41.708  65.341  0.00  0.00    +0.000 OA
ATOM     23  H2* UNL     1      72.778  41.803  65.010  0.00  0.00    +0.000 HD
ENDBRANCH  19  22
BRANCH  17  24
ATOM     24  C5* UNL     1      70.337  43.855  61.299  0.00  0.00    +0.000 C 
BRANCH  24  25
ATOM     25  O5* UNL     1      70.239  44.749  60.321  0.00  0.00    +0.000 OA
ATOM     26  H5* UNL     1      70.703  44.437  59.523  0.00  0.00    +0.000 HD
ENDBRANCH  24  25
ENDBRANCH  17  24
ENDBRANCH   2  15
TORSDOF 5
ENDMDL
