MODEL 1
REMARK VINA RESULT:      -7.5      0.000      0.000
REMARK  Name = Troglitazone.pdbqt.pdb
REMARK  4 active torsions:
REMARK  status: ('A' for Active; 'I' for Inactive)
REMARK    1  A    between atoms: C_1  and  O_2
REMARK    2  A    between atoms: C_1  and  C_18
REMARK    3  A    between atoms: O_2  and  C_3
REMARK    4  A    between atoms: C_26  and  O_32
REMARK                            x       y       z     vdW  Elec       q    Type
REMARK                         _______ _______ _______ _____ _____    ______ ____
ROOT
ATOM      1  C   UNL     1      69.049  54.182  60.687  0.00  0.00    +0.000 C 
ENDROOT
BRANCH   1   2
ATOM      2  C   UNL     1      69.755  55.336  61.270  0.00  0.00    +0.000 C 
ATOM      3  O   UNL     1      69.788  55.132  62.728  0.00  0.00    +0.000 OA
ATOM      4  C   UNL     1      69.731  56.179  63.657  0.00  0.00    +0.000 A 
ATOM      5  C   UNL     1      69.215  57.476  63.365  0.00  0.00    +0.000 A 
ATOM      6  C   UNL     1      70.163  55.890  64.969  0.00  0.00    +0.000 A 
ATOM      7  C   UNL     1      68.795  57.650  62.021  0.00  0.00    +0.000 C 
ATOM      8  C   UNL     1      69.153  58.475  64.344  0.00  0.00    +0.000 A 
ATOM      9  C   UNL     1      69.059  56.589  61.005  0.00  0.00    +0.000 C 
ATOM     10  C   UNL     1      69.602  58.182  65.640  0.00  0.00    +0.000 A 
ATOM     11  C   UNL     1      68.600  59.844  64.006  0.00  0.00    +0.000 C 
ATOM     12  C   UNL     1      70.102  56.900  65.954  0.00  0.00    +0.000 A 
ATOM     13  C   UNL     1      70.546  56.692  67.401  0.00  0.00    +0.000 C 
ATOM     14  C   UNL     1      70.666  54.486  65.284  0.00  0.00    +0.000 C 
ATOM     15  C   UNL     1      71.227  55.405  60.794  0.00  0.00    +0.000 C 
BRANCH  10  16
ATOM     16  O   UNL     1      69.550  59.153  66.627  0.00  0.00    +0.000 OA
ATOM     17  H   UNL     1      69.888  58.760  67.462  0.00  0.00    +0.000 HD
ENDBRANCH  10  16
ENDBRANCH   1   2
BRANCH   1  18
ATOM     18  O   UNL     1      68.419  53.130  60.162  0.00  0.00    +0.000 OA
BRANCH  18  19
ATOM     19  C   UNL     1      67.055  53.259  60.086  0.00  0.00    +0.000 C 
ATOM     20  C   UNL     1      66.323  54.286  60.686  0.00  0.00    +0.000 C 
ATOM     21  C   UNL     1      64.938  54.337  60.545  0.00  0.00    +0.000 C 
ATOM     22  C   UNL     1      64.282  53.358  59.803  0.00  0.00    +0.000 C 
ATOM     23  C   UNL     1      65.006  52.331  59.202  0.00  0.00    +0.000 C 
ATOM     24  C   UNL     1      66.391  52.283  59.343  0.00  0.00    +0.000 C 
ATOM     25  C   UNL     1      62.866  53.408  59.656  0.00  0.00    +0.000 C 
ATOM     26  C   UNL     1      61.461  53.448  59.514  0.00  0.00    +0.000 C 
ATOM     27  S   UNL     1      60.534  54.880  59.279  0.00  0.00    +0.000 S 
ATOM     28  C   UNL     1      59.033  53.978  59.209  0.00  0.00    +0.000 C 
ATOM     29  O   UNL     1      57.936  54.482  59.037  0.00  0.00    +0.000 OA
ATOM     30  N   UNL     1      59.283  52.654  59.369  0.00  0.00    +0.000 N 
ATOM     31  C   UNL     1      60.579  52.262  59.534  0.00  0.00    +0.000 C 
ATOM     32  H   UNL     1      58.533  51.982  59.351  0.00  0.00    +0.000 HD
ATOM     33  O   UNL     1      60.946  51.108  59.673  0.00  0.00    +0.000 OA
ENDBRANCH  18  19
ENDBRANCH   1  18
TORSDOF 4
ENDMDL
MODEL 2
REMARK VINA RESULT:      -7.4      4.001      9.589
REMARK  Name = Troglitazone.pdbqt.pdb
REMARK  4 active torsions:
REMARK  status: ('A' for Active; 'I' for Inactive)
REMARK    1  A    between atoms: C_1  and  O_2
REMARK    2  A    between atoms: C_1  and  C_18
REMARK    3  A    between atoms: O_2  and  C_3
REMARK    4  A    between atoms: C_26  and  O_32
REMARK                            x       y       z     vdW  Elec       q    Type
REMARK                         _______ _______ _______ _____ _____    ______ ____
ROOT
ATOM      1  C   UNL     1      67.632  50.570  59.849  0.00  0.00    +0.000 C 
ENDROOT
BRANCH   1   2
ATOM      2  C   UNL     1      66.479  50.931  59.007  0.00  0.00    +0.000 C 
ATOM      3  O   UNL     1      65.846  52.111  59.621  0.00  0.00    +0.000 OA
ATOM      4  C   UNL     1      64.468  52.356  59.584  0.00  0.00    +0.000 A 
ATOM      5  C   UNL     1      63.485  51.349  59.354  0.00  0.00    +0.000 A 
ATOM      6  C   UNL     1      64.049  53.677  59.851  0.00  0.00    +0.000 A 
ATOM      7  C   UNL     1      64.017  50.055  59.114  0.00  0.00    +0.000 C 
ATOM      8  C   UNL     1      62.117  51.647  59.360  0.00  0.00    +0.000 A 
ATOM      9  C   UNL     1      65.488  49.864  58.954  0.00  0.00    +0.000 C 
ATOM     10  C   UNL     1      61.713  52.968  59.608  0.00  0.00    +0.000 A 
ATOM     11  C   UNL     1      61.094  50.558  59.113  0.00  0.00    +0.000 C 
ATOM     12  C   UNL     1      62.669  53.976  59.853  0.00  0.00    +0.000 A 
ATOM     13  C   UNL     1      62.112  55.373  60.127  0.00  0.00    +0.000 C 
ATOM     14  C   UNL     1      65.104  54.736  60.145  0.00  0.00    +0.000 C 
ATOM     15  C   UNL     1      66.922  51.352  57.584  0.00  0.00    +0.000 C 
BRANCH  10  16
ATOM     16  O   UNL     1      60.366  53.289  59.621  0.00  0.00    +0.000 OA
ATOM     17  H   UNL     1      60.073  53.344  60.557  0.00  0.00    +0.000 HD
ENDBRANCH  10  16
ENDBRANCH   1   2
BRANCH   1  18
ATOM     18  O   UNL     1      68.680  50.236  60.604  0.00  0.00    +0.000 OA
BRANCH  18  19
ATOM     19  C   UNL     1      69.021  51.166  61.554  0.00  0.00    +0.000 C 
ATOM     20  C   UNL     1      69.090  50.907  62.925  0.00  0.00    +0.000 C 
ATOM     21  C   UNL     1      69.454  51.917  63.812  0.00  0.00    +0.000 C 
ATOM     22  C   UNL     1      69.748  53.189  63.330  0.00  0.00    +0.000 C 
ATOM     23  C   UNL     1      69.681  53.454  61.964  0.00  0.00    +0.000 C 
ATOM     24  C   UNL     1      69.318  52.442  61.077  0.00  0.00    +0.000 C 
ATOM     25  C   UNL     1      70.122  54.223  64.236  0.00  0.00    +0.000 C 
ATOM     26  C   UNL     1      70.485  55.255  65.130  0.00  0.00    +0.000 C 
ATOM     27  S   UNL     1      71.501  55.055  66.506  0.00  0.00    +0.000 S 
ATOM     28  C   UNL     1      71.378  56.752  66.927  0.00  0.00    +0.000 C 
ATOM     29  O   UNL     1      71.934  57.264  67.884  0.00  0.00    +0.000 OA
ATOM     30  N   UNL     1      70.584  57.392  66.033  0.00  0.00    +0.000 N 
ATOM     31  C   UNL     1      70.055  56.664  65.009  0.00  0.00    +0.000 C 
ATOM     32  H   UNL     1      70.404  58.380  66.118  0.00  0.00    +0.000 HD
ATOM     33  O   UNL     1      69.339  57.114  64.130  0.00  0.00    +0.000 OA
ENDBRANCH  18  19
ENDBRANCH   1  18
TORSDOF 4
ENDMDL
MODEL 3
REMARK VINA RESULT:      -7.4      5.834     10.945
REMARK  Name = Troglitazone.pdbqt.pdb
REMARK  4 active torsions:
REMARK  status: ('A' for Active; 'I' for Inactive)
REMARK    1  A    between atoms: C_1  and  O_2
REMARK    2  A    between atoms: C_1  and  C_18
REMARK    3  A    between atoms: O_2  and  C_3
REMARK    4  A    between atoms: C_26  and  O_32
REMARK                            x       y       z     vdW  Elec       q    Type
REMARK                         _______ _______ _______ _____ _____    ______ ____
ROOT
ATOM      1  C   UNL     1      67.072  49.117  57.783  0.00  0.00    +0.000 C 
ENDROOT
BRANCH   1   2
ATOM      2  C   UNL     1      67.092  48.469  56.460  0.00  0.00    +0.000 C 
ATOM      3  O   UNL     1      65.731  47.965  56.205  0.00  0.00    +0.000 OA
ATOM      4  C   UNL     1      65.462  46.797  55.481  0.00  0.00    +0.000 A 
ATOM      5  C   UNL     1      66.408  45.748  55.281  0.00  0.00    +0.000 A 
ATOM      6  C   UNL     1      64.152  46.646  54.981  0.00  0.00    +0.000 A 
ATOM      7  C   UNL     1      67.687  45.999  55.841  0.00  0.00    +0.000 C 
ATOM      8  C   UNL     1      66.073  44.587  54.575  0.00  0.00    +0.000 A 
ATOM      9  C   UNL     1      68.007  47.335  56.423  0.00  0.00    +0.000 C 
ATOM     10  C   UNL     1      64.772  44.456  54.065  0.00  0.00    +0.000 A 
ATOM     11  C   UNL     1      67.097  43.489  54.376  0.00  0.00    +0.000 C 
ATOM     12  C   UNL     1      63.817  45.474  54.266  0.00  0.00    +0.000 A 
ATOM     13  C   UNL     1      62.429  45.214  53.681  0.00  0.00    +0.000 C 
ATOM     14  C   UNL     1      63.134  47.749  55.243  0.00  0.00    +0.000 C 
ATOM     15  C   UNL     1      67.412  49.481  55.334  0.00  0.00    +0.000 C 
BRANCH  10  16
ATOM     16  O   UNL     1      64.414  43.315  53.365  0.00  0.00    +0.000 OA
ATOM     17  H   UNL     1      64.824  43.362  52.473  0.00  0.00    +0.000 HD
ENDBRANCH  10  16
ENDBRANCH   1   2
BRANCH   1  18
ATOM     18  O   UNL     1      67.047  49.711  58.977  0.00  0.00    +0.000 OA
BRANCH  18  19
ATOM     19  C   UNL     1      66.073  50.668  59.120  0.00  0.00    +0.000 C 
ATOM     20  C   UNL     1      64.701  50.416  59.047  0.00  0.00    +0.000 C 
ATOM     21  C   UNL     1      63.788  51.454  59.213  0.00  0.00    +0.000 C 
ATOM     22  C   UNL     1      64.245  52.747  59.453  0.00  0.00    +0.000 C 
ATOM     23  C   UNL     1      65.612  53.005  59.526  0.00  0.00    +0.000 C 
ATOM     24  C   UNL     1      66.525  51.965  59.361  0.00  0.00    +0.000 C 
ATOM     25  C   UNL     1      63.312  53.810  59.624  0.00  0.00    +0.000 C 
ATOM     26  C   UNL     1      62.393  54.870  59.787  0.00  0.00    +0.000 C 
ATOM     27  S   UNL     1      60.903  54.759  60.645  0.00  0.00    +0.000 S 
ATOM     28  C   UNL     1      60.517  56.439  60.327  0.00  0.00    +0.000 C 
ATOM     29  O   UNL     1      59.507  56.998  60.718  0.00  0.00    +0.000 OA
ATOM     30  N   UNL     1      61.507  57.008  59.593  0.00  0.00    +0.000 N 
ATOM     31  C   UNL     1      62.579  56.236  59.255  0.00  0.00    +0.000 C 
ATOM     32  H   UNL     1      61.455  57.976  59.320  0.00  0.00    +0.000 HD
ATOM     33  O   UNL     1      63.542  56.621  58.613  0.00  0.00    +0.000 OA
ENDBRANCH  18  19
ENDBRANCH   1  18
TORSDOF 4
ENDMDL
MODEL 4
REMARK VINA RESULT:      -7.3      5.699      9.686
REMARK  Name = Troglitazone.pdbqt.pdb
REMARK  4 active torsions:
REMARK  status: ('A' for Active; 'I' for Inactive)
REMARK    1  A    between atoms: C_1  and  O_2
REMARK    2  A    between atoms: C_1  and  C_18
REMARK    3  A    between atoms: O_2  and  C_3
REMARK    4  A    between atoms: C_26  and  O_32
REMARK                            x       y       z     vdW  Elec       q    Type
REMARK                         _______ _______ _______ _____ _____    ______ ____
ROOT
ATOM      1  C   UNL     1      70.233  53.067  64.390  0.00  0.00    +0.000 C 
ENDROOT
BRANCH   1   2
ATOM      2  C   UNL     1      69.397  52.110  63.645  0.00  0.00    +0.000 C 
ATOM      3  O   UNL     1      70.299  51.084  63.095  0.00  0.00    +0.000 OA
ATOM      4  C   UNL     1      70.082  50.440  61.870  0.00  0.00    +0.000 A 
ATOM      5  C   UNL     1      69.259  50.963  60.830  0.00  0.00    +0.000 A 
ATOM      6  C   UNL     1      70.779  49.232  61.655  0.00  0.00    +0.000 A 
ATOM      7  C   UNL     1      68.621  52.190  61.149  0.00  0.00    +0.000 C 
ATOM      8  C   UNL     1      69.104  50.291  59.612  0.00  0.00    +0.000 A 
ATOM      9  C   UNL     1      68.704  52.745  62.532  0.00  0.00    +0.000 C 
ATOM     10  C   UNL     1      69.787  49.080  59.416  0.00  0.00    +0.000 A 
ATOM     11  C   UNL     1      68.223  50.868  58.524  0.00  0.00    +0.000 C 
ATOM     12  C   UNL     1      70.619  48.554  60.426  0.00  0.00    +0.000 A 
ATOM     13  C   UNL     1      71.325  47.239  60.094  0.00  0.00    +0.000 C 
ATOM     14  C   UNL     1      71.696  48.707  62.753  0.00  0.00    +0.000 C 
ATOM     15  C   UNL     1      68.401  51.377  64.577  0.00  0.00    +0.000 C 
BRANCH  10  16
ATOM     16  O   UNL     1      69.653  48.396  58.219  0.00  0.00    +0.000 OA
ATOM     17  H   UNL     1      69.813  49.029  57.485  0.00  0.00    +0.000 HD
ENDBRANCH  10  16
ENDBRANCH   1   2
BRANCH   1  18
ATOM     18  O   UNL     1      70.991  53.927  65.073  0.00  0.00    +0.000 OA
BRANCH  18  19
ATOM     19  C   UNL     1      70.535  55.222  65.068  0.00  0.00    +0.000 C 
ATOM     20  C   UNL     1      70.139  55.916  63.924  0.00  0.00    +0.000 C 
ATOM     21  C   UNL     1      69.683  57.229  64.021  0.00  0.00    +0.000 C 
ATOM     22  C   UNL     1      69.623  57.850  65.266  0.00  0.00    +0.000 C 
ATOM     23  C   UNL     1      70.017  57.163  66.412  0.00  0.00    +0.000 C 
ATOM     24  C   UNL     1      70.471  55.849  66.312  0.00  0.00    +0.000 C 
ATOM     25  C   UNL     1      69.155  59.191  65.368  0.00  0.00    +0.000 C 
ATOM     26  C   UNL     1      68.701  60.525  65.476  0.00  0.00    +0.000 C 
ATOM     27  S   UNL     1      67.390  61.194  64.581  0.00  0.00    +0.000 S 
ATOM     28  C   UNL     1      67.573  62.757  65.352  0.00  0.00    +0.000 C 
ATOM     29  O   UNL     1      66.869  63.724  65.120  0.00  0.00    +0.000 OA
ATOM     30  N   UNL     1      68.603  62.717  66.235  0.00  0.00    +0.000 N 
ATOM     31  C   UNL     1      69.276  61.541  66.381  0.00  0.00    +0.000 C 
ATOM     32  H   UNL     1      68.850  63.530  66.776  0.00  0.00    +0.000 HD
ATOM     33  O   UNL     1      70.208  61.360  67.147  0.00  0.00    +0.000 OA
ENDBRANCH  18  19
ENDBRANCH   1  18
TORSDOF 4
ENDMDL
MODEL 5
REMARK VINA RESULT:      -7.2      6.271      9.913
REMARK  Name = Troglitazone.pdbqt.pdb
REMARK  4 active torsions:
REMARK  status: ('A' for Active; 'I' for Inactive)
REMARK    1  A    between atoms: C_1  and  O_2
REMARK    2  A    between atoms: C_1  and  C_18
REMARK    3  A    between atoms: O_2  and  C_3
REMARK    4  A    between atoms: C_26  and  O_32
REMARK                            x       y       z     vdW  Elec       q    Type
REMARK                         _______ _______ _______ _____ _____    ______ ____
ROOT
ATOM      1  C   UNL     1      63.042  57.036  59.625  0.00  0.00    +0.000 C 
ENDROOT
BRANCH   1   2
ATOM      2  C   UNL     1      62.628  55.797  60.303  0.00  0.00    +0.000 C 
ATOM      3  O   UNL     1      63.465  54.709  59.769  0.00  0.00    +0.000 OA
ATOM      4  C   UNL     1      63.014  53.393  59.608  0.00  0.00    +0.000 A 
ATOM      5  C   UNL     1      61.639  53.027  59.519  0.00  0.00    +0.000 A 
ATOM      6  C   UNL     1      64.002  52.395  59.470  0.00  0.00    +0.000 A 
ATOM      7  C   UNL     1      60.735  54.113  59.655  0.00  0.00    +0.000 C 
ATOM      8  C   UNL     1      61.247  51.697  59.326  0.00  0.00    +0.000 A 
ATOM      9  C   UNL     1      61.234  55.467  60.032  0.00  0.00    +0.000 C 
ATOM     10  C   UNL     1      62.237  50.710  59.208  0.00  0.00    +0.000 A 
ATOM     11  C   UNL     1      59.779  51.337  59.236  0.00  0.00    +0.000 C 
ATOM     12  C   UNL     1      63.604  51.053  59.277  0.00  0.00    +0.000 A 
ATOM     13  C   UNL     1      64.592  49.898  59.119  0.00  0.00    +0.000 C 
ATOM     14  C   UNL     1      65.469  52.802  59.515  0.00  0.00    +0.000 C 
ATOM     15  C   UNL     1      62.899  55.862  61.827  0.00  0.00    +0.000 C 
BRANCH  10  16
ATOM     16  O   UNL     1      61.876  49.387  59.015  0.00  0.00    +0.000 OA
ATOM     17  H   UNL     1      61.485  49.050  59.850  0.00  0.00    +0.000 HD
ENDBRANCH  10  16
ENDBRANCH   1   2
BRANCH   1  18
ATOM     18  O   UNL     1      63.414  58.165  59.019  0.00  0.00    +0.000 OA
BRANCH  18  19
ATOM     19  C   UNL     1      62.541  59.213  59.173  0.00  0.00    +0.000 C 
ATOM     20  C   UNL     1      62.775  60.511  58.714  0.00  0.00    +0.000 C 
ATOM     21  C   UNL     1      61.823  61.508  58.912  0.00  0.00    +0.000 C 
ATOM     22  C   UNL     1      60.634  61.208  59.571  0.00  0.00    +0.000 C 
ATOM     23  C   UNL     1      60.394  59.915  60.032  0.00  0.00    +0.000 C 
ATOM     24  C   UNL     1      61.347  58.919  59.831  0.00  0.00    +0.000 C 
ATOM     25  C   UNL     1      59.659  62.226  59.773  0.00  0.00    +0.000 C 
ATOM     26  C   UNL     1      58.690  63.233  59.985  0.00  0.00    +0.000 C 
ATOM     27  S   UNL     1      58.270  64.452  58.843  0.00  0.00    +0.000 S 
ATOM     28  C   UNL     1      57.080  65.149  59.923  0.00  0.00    +0.000 C 
ATOM     29  O   UNL     1      56.388  66.115  59.651  0.00  0.00    +0.000 OA
ATOM     30  N   UNL     1      57.049  64.451  61.086  0.00  0.00    +0.000 N 
ATOM     31  C   UNL     1      57.885  63.382  61.215  0.00  0.00    +0.000 C 
ATOM     32  H   UNL     1      56.415  64.710  61.826  0.00  0.00    +0.000 HD
ATOM     33  O   UNL     1      57.950  62.661  62.196  0.00  0.00    +0.000 OA
ENDBRANCH  18  19
ENDBRANCH   1  18
TORSDOF 4
ENDMDL
MODEL 6
REMARK VINA RESULT:      -7.1      5.869      9.232
REMARK  Name = Troglitazone.pdbqt.pdb
REMARK  4 active torsions:
REMARK  status: ('A' for Active; 'I' for Inactive)
REMARK    1  A    between atoms: C_1  and  O_2
REMARK    2  A    between atoms: C_1  and  C_18
REMARK    3  A    between atoms: O_2  and  C_3
REMARK    4  A    between atoms: C_26  and  O_32
REMARK                            x       y       z     vdW  Elec       q    Type
REMARK                         _______ _______ _______ _____ _____    ______ ____
ROOT
ATOM      1  C   UNL     1      63.022  56.674  59.678  0.00  0.00    +0.000 C 
ENDROOT
BRANCH   1   2
ATOM      2  C   UNL     1      63.090  55.349  60.317  0.00  0.00    +0.000 C 
ATOM      3  O   UNL     1      64.362  54.732  59.900  0.00  0.00    +0.000 OA
ATOM      4  C   UNL     1      64.526  53.356  59.702  0.00  0.00    +0.000 A 
ATOM      5  C   UNL     1      63.450  52.453  59.452  0.00  0.00    +0.000 A 
ATOM      6  C   UNL     1      65.849  52.867  59.695  0.00  0.00    +0.000 A 
ATOM      7  C   UNL     1      62.165  53.056  59.465  0.00  0.00    +0.000 C 
ATOM      8  C   UNL     1      63.676  51.090  59.229  0.00  0.00    +0.000 A 
ATOM      9  C   UNL     1      62.004  54.479  59.884  0.00  0.00    +0.000 C 
ATOM     10  C   UNL     1      64.996  50.611  59.243  0.00  0.00    +0.000 A 
ATOM     11  C   UNL     1      62.516  50.153  58.967  0.00  0.00    +0.000 C 
ATOM     12  C   UNL     1      66.075  51.491  59.472  0.00  0.00    +0.000 A 
ATOM     13  C   UNL     1      67.468  50.860  59.448  0.00  0.00    +0.000 C 
ATOM     14  C   UNL     1      66.995  53.847  59.912  0.00  0.00    +0.000 C 
ATOM     15  C   UNL     1      63.133  55.461  61.861  0.00  0.00    +0.000 C 
BRANCH  10  16
ATOM     16  O   UNL     1      65.247  49.267  59.023  0.00  0.00    +0.000 OA
ATOM     17  H   UNL     1      65.213  48.803  59.888  0.00  0.00    +0.000 HD
ENDBRANCH  10  16
ENDBRANCH   1   2
BRANCH   1  18
ATOM     18  O   UNL     1      62.956  57.870  59.090  0.00  0.00    +0.000 OA
BRANCH  18  19
ATOM     19  C   UNL     1      61.895  58.645  59.488  0.00  0.00    +0.000 C 
ATOM     20  C   UNL     1      60.798  58.174  60.211  0.00  0.00    +0.000 C 
ATOM     21  C   UNL     1      59.771  59.042  60.576  0.00  0.00    +0.000 C 
ATOM     22  C   UNL     1      59.841  60.385  60.216  0.00  0.00    +0.000 C 
ATOM     23  C   UNL     1      60.932  60.862  59.494  0.00  0.00    +0.000 C 
ATOM     24  C   UNL     1      61.959  59.992  59.132  0.00  0.00    +0.000 C 
ATOM     25  C   UNL     1      58.793  61.275  60.589  0.00  0.00    +0.000 C 
ATOM     26  C   UNL     1      57.753  62.161  60.949  0.00  0.00    +0.000 C 
ATOM     27  S   UNL     1      56.924  62.147  62.458  0.00  0.00    +0.000 S 
ATOM     28  C   UNL     1      55.916  63.504  61.995  0.00  0.00    +0.000 C 
ATOM     29  O   UNL     1      55.064  64.003  62.710  0.00  0.00    +0.000 OA
ATOM     30  N   UNL     1      56.234  63.905  60.738  0.00  0.00    +0.000 N 
ATOM     31  C   UNL     1      57.230  63.240  60.085  0.00  0.00    +0.000 C 
ATOM     32  H   UNL     1      55.755  64.680  60.307  0.00  0.00    +0.000 HD
ATOM     33  O   UNL     1      57.625  63.504  58.963  0.00  0.00    +0.000 OA
ENDBRANCH  18  19
ENDBRANCH   1  18
TORSDOF 4
ENDMDL
MODEL 7
REMARK VINA RESULT:      -6.9     13.013     17.892
REMARK  Name = Troglitazone.pdbqt.pdb
REMARK  4 active torsions:
REMARK  status: ('A' for Active; 'I' for Inactive)
REMARK    1  A    between atoms: C_1  and  O_2
REMARK    2  A    between atoms: C_1  and  C_18
REMARK    3  A    between atoms: O_2  and  C_3
REMARK    4  A    between atoms: C_26  and  O_32
REMARK                            x       y       z     vdW  Elec       q    Type
REMARK                         _______ _______ _______ _____ _____    ______ ____
ROOT
ATOM      1  C   UNL     1      66.254  39.281  52.148  0.00  0.00    +0.000 C 
ENDROOT
BRANCH   1   2
ATOM      2  C   UNL     1      65.154  38.329  52.379  0.00  0.00    +0.000 C 
ATOM      3  O   UNL     1      64.167  39.006  53.237  0.00  0.00    +0.000 OA
ATOM      4  C   UNL     1      63.389  38.341  54.193  0.00  0.00    +0.000 A 
ATOM      5  C   UNL     1      63.727  37.076  54.757  0.00  0.00    +0.000 A 
ATOM      6  C   UNL     1      62.236  39.013  54.652  0.00  0.00    +0.000 A 
ATOM      7  C   UNL     1      64.915  36.502  54.234  0.00  0.00    +0.000 C 
ATOM      8  C   UNL     1      62.927  36.473  55.734  0.00  0.00    +0.000 A 
ATOM      9  C   UNL     1      65.609  37.130  53.073  0.00  0.00    +0.000 C 
ATOM     10  C   UNL     1      61.772  37.141  56.170  0.00  0.00    +0.000 A 
ATOM     11  C   UNL     1      63.310  35.129  56.316  0.00  0.00    +0.000 C 
ATOM     12  C   UNL     1      61.427  38.401  55.636  0.00  0.00    +0.000 A 
ATOM     13  C   UNL     1      60.158  39.041  56.198  0.00  0.00    +0.000 C 
ATOM     14  C   UNL     1      61.909  40.387  54.080  0.00  0.00    +0.000 C 
ATOM     15  C   UNL     1      64.427  37.967  51.060  0.00  0.00    +0.000 C 
BRANCH  10  16
ATOM     16  O   UNL     1      60.963  36.567  57.137  0.00  0.00    +0.000 OA
ATOM     17  H   UNL     1      60.951  35.597  56.990  0.00  0.00    +0.000 HD
ENDBRANCH  10  16
ENDBRANCH   1   2
BRANCH   1  18
ATOM     18  O   UNL     1      67.243  40.152  51.942  0.00  0.00    +0.000 OA
BRANCH  18  19
ATOM     19  C   UNL     1      67.073  41.368  52.557  0.00  0.00    +0.000 C 
ATOM     20  C   UNL     1      66.531  42.497  51.940  0.00  0.00    +0.000 C 
ATOM     21  C   UNL     1      66.392  43.687  52.650  0.00  0.00    +0.000 C 
ATOM     22  C   UNL     1      66.796  43.750  53.981  0.00  0.00    +0.000 C 
ATOM     23  C   UNL     1      67.339  42.627  54.603  0.00  0.00    +0.000 C 
ATOM     24  C   UNL     1      67.475  41.437  53.891  0.00  0.00    +0.000 C 
ATOM     25  C   UNL     1      66.654  44.965  54.710  0.00  0.00    +0.000 C 
ATOM     26  C   UNL     1      66.523  46.170  55.436  0.00  0.00    +0.000 C 
ATOM     27  S   UNL     1      65.182  47.245  55.328  0.00  0.00    +0.000 S 
ATOM     28  C   UNL     1      65.877  48.339  56.507  0.00  0.00    +0.000 C 
ATOM     29  O   UNL     1      65.346  49.369  56.886  0.00  0.00    +0.000 OA
ATOM     30  N   UNL     1      67.077  47.863  56.926  0.00  0.00    +0.000 N 
ATOM     31  C   UNL     1      67.514  46.681  56.406  0.00  0.00    +0.000 C 
ATOM     32  H   UNL     1      67.620  48.364  57.611  0.00  0.00    +0.000 HD
ATOM     33  O   UNL     1      68.562  46.132  56.703  0.00  0.00    +0.000 OA
ENDBRANCH  18  19
ENDBRANCH   1  18
TORSDOF 4
ENDMDL
MODEL 8
REMARK VINA RESULT:      -6.9      5.011     10.344
REMARK  Name = Troglitazone.pdbqt.pdb
REMARK  4 active torsions:
REMARK  status: ('A' for Active; 'I' for Inactive)
REMARK    1  A    between atoms: C_1  and  O_2
REMARK    2  A    between atoms: C_1  and  C_18
REMARK    3  A    between atoms: O_2  and  C_3
REMARK    4  A    between atoms: C_26  and  O_32
REMARK                            x       y       z     vdW  Elec       q    Type
REMARK                         _______ _______ _______ _____ _____    ______ ____
ROOT
ATOM      1  C   UNL     1      63.813  56.969  59.572  0.00  0.00    +0.000 C 
ENDROOT
BRANCH   1   2
ATOM      2  C   UNL     1      63.245  55.792  60.252  0.00  0.00    +0.000 C 
ATOM      3  O   UNL     1      63.958  54.609  59.741  0.00  0.00    +0.000 OA
ATOM      4  C   UNL     1      63.358  53.354  59.581  0.00  0.00    +0.000 A 
ATOM      5  C   UNL     1      61.951  53.151  59.470  0.00  0.00    +0.000 A 
ATOM      6  C   UNL     1      64.224  52.246  59.468  0.00  0.00    +0.000 A 
ATOM      7  C   UNL     1      61.179  54.336  59.582  0.00  0.00    +0.000 C 
ATOM      8  C   UNL     1      61.409  51.874  59.280  0.00  0.00    +0.000 A 
ATOM      9  C   UNL     1      61.827  55.626  59.958  0.00  0.00    +0.000 C 
ATOM     10  C   UNL     1      62.279  50.777  59.187  0.00  0.00    +0.000 A 
ATOM     11  C   UNL     1      59.911  51.688  59.165  0.00  0.00    +0.000 C 
ATOM     12  C   UNL     1      63.675  50.958  59.278  0.00  0.00    +0.000 A 
ATOM     13  C   UNL     1      64.523  49.693  59.146  0.00  0.00    +0.000 C 
ATOM     14  C   UNL     1      65.728  52.478  59.537  0.00  0.00    +0.000 C 
ATOM     15  C   UNL     1      63.496  55.840  61.780  0.00  0.00    +0.000 C 
BRANCH  10  16
ATOM     16  O   UNL     1      61.768  49.503  58.996  0.00  0.00    +0.000 OA
ATOM     17  H   UNL     1      61.166  49.528  58.221  0.00  0.00    +0.000 HD
ENDBRANCH  10  16
ENDBRANCH   1   2
BRANCH   1  18
ATOM     18  O   UNL     1      64.324  58.040  58.965  0.00  0.00    +0.000 OA
BRANCH  18  19
ATOM     19  C   UNL     1      65.148  58.807  59.751  0.00  0.00    +0.000 C 
ATOM     20  C   UNL     1      65.547  60.109  59.445  0.00  0.00    +0.000 C 
ATOM     21  C   UNL     1      66.381  60.810  60.312  0.00  0.00    +0.000 C 
ATOM     22  C   UNL     1      66.819  60.209  61.488  0.00  0.00    +0.000 C 
ATOM     23  C   UNL     1      66.425  58.909  61.800  0.00  0.00    +0.000 C 
ATOM     24  C   UNL     1      65.589  58.210  60.932  0.00  0.00    +0.000 C 
ATOM     25  C   UNL     1      67.671  60.924  62.377  0.00  0.00    +0.000 C 
ATOM     26  C   UNL     1      68.524  61.626  63.259  0.00  0.00    +0.000 C 
ATOM     27  S   UNL     1      68.385  63.300  63.641  0.00  0.00    +0.000 S 
ATOM     28  C   UNL     1      69.758  63.235  64.727  0.00  0.00    +0.000 C 
ATOM     29  O   UNL     1      70.180  64.189  65.359  0.00  0.00    +0.000 OA
ATOM     30  N   UNL     1      70.264  61.977  64.756  0.00  0.00    +0.000 N 
ATOM     31  C   UNL     1      69.655  61.023  63.995  0.00  0.00    +0.000 C 
ATOM     32  H   UNL     1      71.058  61.753  65.335  0.00  0.00    +0.000 HD
ATOM     33  O   UNL     1      69.994  59.854  63.938  0.00  0.00    +0.000 OA
ENDBRANCH  18  19
ENDBRANCH   1  18
TORSDOF 4
ENDMDL
MODEL 9
REMARK VINA RESULT:      -6.9      7.181     10.602
REMARK  Name = Troglitazone.pdbqt.pdb
REMARK  4 active torsions:
REMARK  status: ('A' for Active; 'I' for Inactive)
REMARK    1  A    between atoms: C_1  and  O_2
REMARK    2  A    between atoms: C_1  and  C_18
REMARK    3  A    between atoms: O_2  and  C_3
REMARK    4  A    between atoms: C_26  and  O_32
REMARK                            x       y       z     vdW  Elec       q    Type
REMARK                         _______ _______ _______ _____ _____    ______ ____
ROOT
ATOM      1  C   UNL     1      64.395  50.213  57.340  0.00  0.00    +0.000 C 
ENDROOT
BRANCH   1   2
ATOM      2  C   UNL     1      63.699  50.687  58.548  0.00  0.00    +0.000 C 
ATOM      3  O   UNL     1      62.373  51.170  58.123  0.00  0.00    +0.000 OA
ATOM      4  C   UNL     1      61.708  52.240  58.735  0.00  0.00    +0.000 A 
ATOM      5  C   UNL     1      62.358  53.243  59.513  0.00  0.00    +0.000 A 
ATOM      6  C   UNL     1      60.320  52.342  58.503  0.00  0.00    +0.000 A 
ATOM      7  C   UNL     1      63.756  53.050  59.666  0.00  0.00    +0.000 C 
ATOM      8  C   UNL     1      61.645  54.309  60.074  0.00  0.00    +0.000 A 
ATOM      9  C   UNL     1      64.401  51.796  59.182  0.00  0.00    +0.000 C 
ATOM     10  C   UNL     1      60.262  54.390  59.853  0.00  0.00    +0.000 A 
ATOM     11  C   UNL     1      62.361  55.360  60.896  0.00  0.00    +0.000 C 
ATOM     12  C   UNL     1      59.602  53.416  59.073  0.00  0.00    +0.000 A 
ATOM     13  C   UNL     1      58.098  53.617  58.886  0.00  0.00    +0.000 C 
ATOM     14  C   UNL     1      59.643  51.294  57.629  0.00  0.00    +0.000 C 
ATOM     15  C   UNL     1      63.453  49.535  59.554  0.00  0.00    +0.000 C 
BRANCH  10  16
ATOM     16  O   UNL     1      59.534  55.436  60.396  0.00  0.00    +0.000 OA
ATOM     17  H   UNL     1      59.759  56.254  59.902  0.00  0.00    +0.000 HD
ENDBRANCH  10  16
ENDBRANCH   1   2
BRANCH   1  18
ATOM     18  O   UNL     1      65.017  49.776  56.244  0.00  0.00    +0.000 OA
BRANCH  18  19
ATOM     19  C   UNL     1      64.495  48.625  55.709  0.00  0.00    +0.000 C 
ATOM     20  C   UNL     1      63.139  48.422  55.440  0.00  0.00    +0.000 C 
ATOM     21  C   UNL     1      62.705  47.219  54.889  0.00  0.00    +0.000 C 
ATOM     22  C   UNL     1      63.627  46.216  54.605  0.00  0.00    +0.000 C 
ATOM     23  C   UNL     1      64.981  46.411  54.870  0.00  0.00    +0.000 C 
ATOM     24  C   UNL     1      65.413  47.616  55.421  0.00  0.00    +0.000 C 
ATOM     25  C   UNL     1      63.186  44.986  54.039  0.00  0.00    +0.000 C 
ATOM     26  C   UNL     1      62.753  43.759  53.486  0.00  0.00    +0.000 C 
ATOM     27  S   UNL     1      61.535  43.598  52.279  0.00  0.00    +0.000 S 
ATOM     28  C   UNL     1      61.707  41.854  52.243  0.00  0.00    +0.000 C 
ATOM     29  O   UNL     1      61.063  41.116  51.517  0.00  0.00    +0.000 OA
ATOM     30  N   UNL     1      62.656  41.466  53.131  0.00  0.00    +0.000 N 
ATOM     31  C   UNL     1      63.292  42.433  53.852  0.00  0.00    +0.000 C 
ATOM     32  H   UNL     1      62.892  40.493  53.242  0.00  0.00    +0.000 HD
ATOM     33  O   UNL     1      64.172  42.227  54.671  0.00  0.00    +0.000 OA
ENDBRANCH  18  19
ENDBRANCH   1  18
TORSDOF 4
ENDMDL
