MODEL 1
REMARK VINA RESULT:      -6.6      0.000      0.000
REMARK  Name = 
REMARK  19 active torsions:
REMARK  status: ('A' for Active; 'I' for Inactive)
REMARK    1  A    between atoms: O_1  and  C_20
REMARK    2  A    between atoms: O_1  and  C_36
REMARK    3  A    between atoms: O_2  and  C_18
REMARK    4  A    between atoms: O_3  and  C_28
REMARK    5  A    between atoms: O_3  and  C_42
REMARK    6  A    between atoms: O_5  and  C_34
REMARK    7  A    between atoms: O_5  and  C_50
REMARK    8  A    between atoms: O_7  and  C_40
REMARK    9  A    between atoms: O_7  and  C_56
REMARK   10  A    between atoms: O_9  and  C_46
REMARK   11  A    between atoms: N_11  and  C_30
REMARK   12  A    between atoms: C_17  and  C_23
REMARK   13  A    between atoms: C_18  and  C_28
REMARK   14  A    between atoms: C_23  and  C_32
REMARK   15  A    between atoms: C_33  and  C_35
REMARK   16  A    between atoms: C_35  and  C_40
REMARK   17  A    between atoms: C_36  and  C_41
REMARK   18  A    between atoms: C_46  and  C_53
REMARK   19  A    between atoms: C_53  and  C_57
REMARK                            x       y       z     vdW  Elec       q    Type
REMARK                         _______ _______ _______ _____ _____    ______ ____
ROOT
ATOM      1  N   UNL     1      56.509  71.386  84.219  0.00  0.00    +0.000 NA
ATOM      2  N   UNL     1      58.218  73.390  88.199  0.00  0.00    +0.000 N 
ATOM      3  C   UNL     1      57.362  72.331  86.172  0.00  0.00    +0.000 C 
ATOM      4  C   UNL     1      57.614  71.186  85.176  0.00  0.00    +0.000 C 
ATOM      5  C   UNL     1      58.127  72.081  87.487  0.00  0.00    +0.000 C 
ATOM      6  C   UNL     1      57.734  69.749  85.865  0.00  0.00    +0.000 C 
ATOM      7  C   UNL     1      57.702  70.837  88.285  0.00  0.00    +0.000 C 
ATOM      8  C   UNL     1      55.832  72.517  86.190  0.00  0.00    +0.000 C 
ATOM      9  C   UNL     1      57.151  69.713  87.346  0.00  0.00    +0.000 C 
ATOM     10  C   UNL     1      57.959  73.694  85.880  0.00  0.00    +0.000 A 
ATOM     11  C   UNL     1      55.317  71.755  84.971  0.00  0.00    +0.000 C 
ATOM     12  C   UNL     1      58.377  74.272  87.086  0.00  0.00    +0.000 A 
ATOM     13  C   UNL     1      57.006  68.674  85.054  0.00  0.00    +0.000 C 
ATOM     14  C   UNL     1      56.306  70.290  83.283  0.00  0.00    +0.000 C 
ATOM     15  C   UNL     1      56.383  68.929  83.895  0.00  0.00    +0.000 C 
ATOM     16  C   UNL     1      58.062  74.366  84.666  0.00  0.00    +0.000 A 
ATOM     17  C   UNL     1      59.243  73.526  89.233  0.00  0.00    +0.000 C 
ATOM     18  C   UNL     1      58.870  75.563  87.089  0.00  0.00    +0.000 A 
ATOM     19  C   UNL     1      58.566  75.681  84.635  0.00  0.00    +0.000 A 
ATOM     20  C   UNL     1      58.956  76.265  85.876  0.00  0.00    +0.000 A 
ENDROOT
BRANCH  19  23
ATOM     21  N   UNL     1      59.643  78.832  79.789  0.00  0.00    +0.000 NA
ATOM     22  N   UNL     1      58.736  74.221  82.177  0.00  0.00    +0.000 N 
ATOM     23  C   UNL     1      58.681  76.501  83.288  0.00  0.00    +0.000 C 
ATOM     24  C   UNL     1      60.131  77.149  83.124  0.00  0.00    +0.000 C 
ATOM     25  C   UNL     1      58.453  75.570  82.048  0.00  0.00    +0.000 A 
ATOM     26  C   UNL     1      60.505  77.673  81.727  0.00  0.00    +0.000 C 
ATOM     27  C   UNL     1      61.953  78.139  81.582  0.00  0.00    +0.000 C 
ATOM     28  C   UNL     1      59.637  78.824  81.241  0.00  0.00    +0.000 C 
ATOM     29  C   UNL     1      58.094  75.765  80.702  0.00  0.00    +0.000 A 
ATOM     30  C   UNL     1      62.259  78.618  80.132  0.00  0.00    +0.000 C 
ATOM     31  C   UNL     1      61.008  79.049  79.262  0.00  0.00    +0.000 C 
ATOM     32  C   UNL     1      57.755  77.028  79.926  0.00  0.00    +0.000 C 
ATOM     33  C   UNL     1      58.968  77.658  79.177  0.00  0.00    +0.000 C 
ATOM     34  C   UNL     1      58.128  74.469  80.066  0.00  0.00    +0.000 A 
ATOM     35  C   UNL     1      58.529  73.537  81.012  0.00  0.00    +0.000 A 
ATOM     36  C   UNL     1      57.867  74.012  78.754  0.00  0.00    +0.000 A 
ATOM     37  C   UNL     1      58.678  72.173  80.732  0.00  0.00    +0.000 A 
ATOM     38  C   UNL     1      58.008  72.652  78.452  0.00  0.00    +0.000 A 
ATOM     39  C   UNL     1      58.408  71.747  79.429  0.00  0.00    +0.000 A 
ATOM     40  H   UNL     1      59.041  73.779  83.035  0.00  0.00    +0.000 HD
BRANCH  23  42
ATOM     41  O   UNL     1      57.772  78.815  83.591  0.00  0.00    +0.000 OA
ATOM     42  C   UNL     1      57.592  77.619  83.398  0.00  0.00    +0.000 C 
BRANCH  42  43
ATOM     43  O   UNL     1      56.343  77.076  83.212  0.00  0.00    +0.000 OA
ATOM     44  C   UNL     1      55.372  77.519  84.160  0.00  0.00    +0.000 C 
ENDBRANCH  42  43
ENDBRANCH  23  42
BRANCH  30  45
ATOM     45  O   UNL     1      63.098  79.791  80.286  0.00  0.00    +0.000 OA
ATOM     46  H   UNL     1      62.710  80.334  80.995  0.00  0.00    +0.000 HD
ENDBRANCH  30  45
BRANCH  30  47
ATOM     47  C   UNL     1      63.164  77.614  79.381  0.00  0.00    +0.000 C 
ATOM     48  C   UNL     1      62.464  76.463  78.678  0.00  0.00    +0.000 C 
ENDBRANCH  30  47
ENDBRANCH  19  23
BRANCH   7  49
ATOM     49  O   UNL     1      58.936  70.307  88.868  0.00  0.00    +0.000 OA
ATOM     50  H   UNL     1      59.666  70.829  88.475  0.00  0.00    +0.000 HD
ENDBRANCH   7  49
BRANCH   7  52
ATOM     51  O   UNL     1      55.787  71.964  89.394  0.00  0.00    +0.000 OA
ATOM     52  C   UNL     1      56.725  71.179  89.437  0.00  0.00    +0.000 C 
BRANCH  52  53
ATOM     53  O   UNL     1      57.011  70.398  90.531  0.00  0.00    +0.000 OA
ATOM     54  C   UNL     1      57.215  71.139  91.735  0.00  0.00    +0.000 C 
ENDBRANCH  52  53
ENDBRANCH   7  52
BRANCH  20  55
ATOM     55  O   UNL     1      59.484  77.531  85.836  0.00  0.00    +0.000 OA
ATOM     56  C   UNL     1      59.430  78.250  87.064  0.00  0.00    +0.000 C 
ENDBRANCH  20  55
BRANCH   6  57
ATOM     57  C   UNL     1      59.244  69.310  85.913  0.00  0.00    +0.000 C 
ATOM     58  C   UNL     1      59.785  68.588  84.677  0.00  0.00    +0.000 C 
ENDBRANCH   6  57
BRANCH   9  59
ATOM     59  O   UNL     1      55.706  69.733  87.264  0.00  0.00    +0.000 OA
BRANCH  59  61
ATOM     60  O   UNL     1      55.437  67.912  88.628  0.00  0.00    +0.000 OA
ATOM     61  C   UNL     1      55.041  68.641  87.729  0.00  0.00    +0.000 C 
ATOM     62  C   UNL     1      53.740  68.482  87.007  0.00  0.00    +0.000 C 
ENDBRANCH  59  61
ENDBRANCH   9  59
TORSDOF 12
ENDMDL
MODEL 2
REMARK VINA RESULT:      -6.6     26.569     31.226
REMARK  Name = 
REMARK  19 active torsions:
REMARK  status: ('A' for Active; 'I' for Inactive)
REMARK    1  A    between atoms: O_1  and  C_20
REMARK    2  A    between atoms: O_1  and  C_36
REMARK    3  A    between atoms: O_2  and  C_18
REMARK    4  A    between atoms: O_3  and  C_28
REMARK    5  A    between atoms: O_3  and  C_42
REMARK    6  A    between atoms: O_5  and  C_34
REMARK    7  A    between atoms: O_5  and  C_50
REMARK    8  A    between atoms: O_7  and  C_40
REMARK    9  A    between atoms: O_7  and  C_56
REMARK   10  A    between atoms: O_9  and  C_46
REMARK   11  A    between atoms: N_11  and  C_30
REMARK   12  A    between atoms: C_17  and  C_23
REMARK   13  A    between atoms: C_18  and  C_28
REMARK   14  A    between atoms: C_23  and  C_32
REMARK   15  A    between atoms: C_33  and  C_35
REMARK   16  A    between atoms: C_35  and  C_40
REMARK   17  A    between atoms: C_36  and  C_41
REMARK   18  A    between atoms: C_46  and  C_53
REMARK   19  A    between atoms: C_53  and  C_57
REMARK                            x       y       z     vdW  Elec       q    Type
REMARK                         _______ _______ _______ _____ _____    ______ ____
ROOT
ATOM      1  N   UNL     1      67.380  60.494  60.391  0.00  0.00    +0.000 NA
ATOM      2  N   UNL     1      69.990  57.806  63.348  0.00  0.00    +0.000 N 
ATOM      3  C   UNL     1      68.644  59.203  61.865  0.00  0.00    +0.000 C 
ATOM      4  C   UNL     1      67.449  60.172  61.829  0.00  0.00    +0.000 C 
ATOM      5  C   UNL     1      69.176  59.057  63.305  0.00  0.00    +0.000 C 
ATOM      6  C   UNL     1      67.583  61.397  62.847  0.00  0.00    +0.000 C 
ATOM      7  C   UNL     1      69.754  60.333  63.940  0.00  0.00    +0.000 C 
ATOM      8  C   UNL     1      69.580  59.681  60.738  0.00  0.00    +0.000 C 
ATOM      9  C   UNL     1      69.071  61.619  63.369  0.00  0.00    +0.000 C 
ATOM     10  C   UNL     1      68.391  57.728  61.622  0.00  0.00    +0.000 A 
ATOM     11  C   UNL     1      68.742  60.635  59.891  0.00  0.00    +0.000 C 
ATOM     12  C   UNL     1      69.234  56.982  62.458  0.00  0.00    +0.000 A 
ATOM     13  C   UNL     1      67.113  62.709  62.214  0.00  0.00    +0.000 C 
ATOM     14  C   UNL     1      66.506  61.608  60.056  0.00  0.00    +0.000 C 
ATOM     15  C   UNL     1      66.622  62.785  60.969  0.00  0.00    +0.000 C 
ATOM     16  C   UNL     1      67.539  57.122  60.705  0.00  0.00    +0.000 A 
ATOM     17  C   UNL     1      70.244  57.211  64.659  0.00  0.00    +0.000 C 
ATOM     18  C   UNL     1      69.255  55.605  62.351  0.00  0.00    +0.000 A 
ATOM     19  C   UNL     1      67.533  55.720  60.575  0.00  0.00    +0.000 A 
ATOM     20  C   UNL     1      68.419  54.979  61.412  0.00  0.00    +0.000 A 
ENDROOT
BRANCH  19  23
ATOM     21  N   UNL     1      64.380  52.395  56.891  0.00  0.00    +0.000 NA
ATOM     22  N   UNL     1      64.794  55.280  61.283  0.00  0.00    +0.000 N 
ATOM     23  C   UNL     1      66.604  54.980  59.532  0.00  0.00    +0.000 C 
ATOM     24  C   UNL     1      66.943  53.421  59.455  0.00  0.00    +0.000 C 
ATOM     25  C   UNL     1      65.097  55.101  59.944  0.00  0.00    +0.000 A 
ATOM     26  C   UNL     1      65.911  52.519  58.758  0.00  0.00    +0.000 C 
ATOM     27  C   UNL     1      66.203  51.022  58.847  0.00  0.00    +0.000 C 
ATOM     28  C   UNL     1      65.710  52.827  57.281  0.00  0.00    +0.000 C 
ATOM     29  C   UNL     1      63.864  54.978  59.279  0.00  0.00    +0.000 A 
ATOM     30  C   UNL     1      65.093  50.178  58.150  0.00  0.00    +0.000 C 
ATOM     31  C   UNL     1      64.219  50.935  57.068  0.00  0.00    +0.000 C 
ATOM     32  C   UNL     1      63.533  54.686  57.824  0.00  0.00    +0.000 C 
ATOM     33  C   UNL     1      63.284  53.178  57.519  0.00  0.00    +0.000 C 
ATOM     34  C   UNL     1      62.831  55.144  60.275  0.00  0.00    +0.000 A 
ATOM     35  C   UNL     1      63.446  55.330  61.504  0.00  0.00    +0.000 A 
ATOM     36  C   UNL     1      61.418  55.134  60.235  0.00  0.00    +0.000 A 
ATOM     37  C   UNL     1      62.737  55.517  62.697  0.00  0.00    +0.000 A 
ATOM     38  C   UNL     1      60.689  55.319  61.415  0.00  0.00    +0.000 A 
ATOM     39  C   UNL     1      61.341  55.508  62.629  0.00  0.00    +0.000 A 
ATOM     40  H   UNL     1      65.482  55.383  62.018  0.00  0.00    +0.000 HD
BRANCH  23  42
ATOM     41  O   UNL     1      66.218  56.513  57.588  0.00  0.00    +0.000 OA
ATOM     42  C   UNL     1      66.901  55.672  58.160  0.00  0.00    +0.000 C 
BRANCH  42  43
ATOM     43  O   UNL     1      68.100  55.222  57.659  0.00  0.00    +0.000 OA
ATOM     44  C   UNL     1      68.929  56.254  57.126  0.00  0.00    +0.000 C 
ENDBRANCH  42  43
ENDBRANCH  23  42
BRANCH  30  45
ATOM     45  O   UNL     1      65.798  49.114  57.463  0.00  0.00    +0.000 OA
ATOM     46  H   UNL     1      66.717  49.410  57.335  0.00  0.00    +0.000 HD
ENDBRANCH  30  45
BRANCH  30  47
ATOM     47  C   UNL     1      64.214  49.433  59.182  0.00  0.00    +0.000 C 
ATOM     48  C   UNL     1      62.760  49.862  59.270  0.00  0.00    +0.000 C 
ENDBRANCH  30  47
ENDBRANCH  19  23
BRANCH   7  49
ATOM     49  O   UNL     1      69.377  60.270  65.354  0.00  0.00    +0.000 OA
ATOM     50  H   UNL     1      68.399  60.230  65.370  0.00  0.00    +0.000 HD
ENDBRANCH   7  49
BRANCH   7  52
ATOM     51  O   UNL     1      71.988  60.095  62.882  0.00  0.00    +0.000 OA
ATOM     52  C   UNL     1      71.299  60.392  63.848  0.00  0.00    +0.000 C 
BRANCH  52  53
ATOM     53  O   UNL     1      71.810  60.916  65.011  0.00  0.00    +0.000 OA
ATOM     54  C   UNL     1      72.962  61.740  64.818  0.00  0.00    +0.000 C 
ENDBRANCH  52  53
ENDBRANCH   7  52
BRANCH  20  55
ATOM     55  O   UNL     1      68.382  53.611  61.310  0.00  0.00    +0.000 OA
ATOM     56  C   UNL     1      69.176  52.910  62.262  0.00  0.00    +0.000 C 
ENDBRANCH  20  55
BRANCH   6  57
ATOM     57  C   UNL     1      66.650  61.155  64.091  0.00  0.00    +0.000 C 
ATOM     58  C   UNL     1      66.111  62.403  64.793  0.00  0.00    +0.000 C 
ENDBRANCH   6  57
BRANCH   9  59
ATOM     59  O   UNL     1      69.841  62.215  62.297  0.00  0.00    +0.000 OA
BRANCH  59  61
ATOM     60  O   UNL     1      71.034  64.082  61.715  0.00  0.00    +0.000 OA
ATOM     61  C   UNL     1      70.385  63.439  62.529  0.00  0.00    +0.000 C 
ATOM     62  C   UNL     1      70.045  63.903  63.911  0.00  0.00    +0.000 C 
ENDBRANCH  59  61
ENDBRANCH   9  59
TORSDOF 12
ENDMDL
MODEL 3
REMARK VINA RESULT:      -6.5     34.459     38.331
REMARK  Name = 
REMARK  19 active torsions:
REMARK  status: ('A' for Active; 'I' for Inactive)
REMARK    1  A    between atoms: O_1  and  C_20
REMARK    2  A    between atoms: O_1  and  C_36
REMARK    3  A    between atoms: O_2  and  C_18
REMARK    4  A    between atoms: O_3  and  C_28
REMARK    5  A    between atoms: O_3  and  C_42
REMARK    6  A    between atoms: O_5  and  C_34
REMARK    7  A    between atoms: O_5  and  C_50
REMARK    8  A    between atoms: O_7  and  C_40
REMARK    9  A    between atoms: O_7  and  C_56
REMARK   10  A    between atoms: O_9  and  C_46
REMARK   11  A    between atoms: N_11  and  C_30
REMARK   12  A    between atoms: C_17  and  C_23
REMARK   13  A    between atoms: C_18  and  C_28
REMARK   14  A    between atoms: C_23  and  C_32
REMARK   15  A    between atoms: C_33  and  C_35
REMARK   16  A    between atoms: C_35  and  C_40
REMARK   17  A    between atoms: C_36  and  C_41
REMARK   18  A    between atoms: C_46  and  C_53
REMARK   19  A    between atoms: C_53  and  C_57
REMARK                            x       y       z     vdW  Elec       q    Type
REMARK                         _______ _______ _______ _____ _____    ______ ____
ROOT
ATOM      1  N   UNL     1      45.708  39.222  68.893  0.00  0.00    +0.000 NA
ATOM      2  N   UNL     1      46.719  42.892  71.772  0.00  0.00    +0.000 N 
ATOM      3  C   UNL     1      46.170  41.006  70.320  0.00  0.00    +0.000 C 
ATOM      4  C   UNL     1      45.409  39.670  70.266  0.00  0.00    +0.000 C 
ATOM      5  C   UNL     1      45.670  41.864  71.500  0.00  0.00    +0.000 C 
ATOM      6  C   UNL     1      43.870  39.789  70.679  0.00  0.00    +0.000 C 
ATOM      7  C   UNL     1      44.201  42.312  71.429  0.00  0.00    +0.000 C 
ATOM      8  C   UNL     1      46.112  41.558  68.883  0.00  0.00    +0.000 C 
ATOM      9  C   UNL     1      43.324  41.285  70.641  0.00  0.00    +0.000 C 
ATOM     10  C   UNL     1      47.633  40.994  70.721  0.00  0.00    +0.000 A 
ATOM     11  C   UNL     1      45.664  40.385  68.015  0.00  0.00    +0.000 C 
ATOM     12  C   UNL     1      47.897  42.129  71.500  0.00  0.00    +0.000 A 
ATOM     13  C   UNL     1      42.976  38.947  69.765  0.00  0.00    +0.000 C 
ATOM     14  C   UNL     1      44.909  38.097  68.430  0.00  0.00    +0.000 C 
ATOM     15  C   UNL     1      43.457  38.185  68.772  0.00  0.00    +0.000 C 
ATOM     16  C   UNL     1      48.632  40.092  70.372  0.00  0.00    +0.000 A 
ATOM     17  C   UNL     1      46.705  43.541  73.082  0.00  0.00    +0.000 C 
ATOM     18  C   UNL     1      49.191  42.391  71.907  0.00  0.00    +0.000 A 
ATOM     19  C   UNL     1      49.960  40.327  70.776  0.00  0.00    +0.000 A 
ATOM     20  C   UNL     1      50.216  41.503  71.541  0.00  0.00    +0.000 A 
ENDROOT
BRANCH  19  23
ATOM     21  N   UNL     1      54.739  37.239  69.292  0.00  0.00    +0.000 NA
ATOM     22  N   UNL     1      51.177  38.784  72.858  0.00  0.00    +0.000 N 
ATOM     23  C   UNL     1      51.139  39.348  70.385  0.00  0.00    +0.000 C 
ATOM     24  C   UNL     1      52.479  40.154  70.057  0.00  0.00    +0.000 C 
ATOM     25  C   UNL     1      51.469  38.375  71.568  0.00  0.00    +0.000 A 
ATOM     26  C   UNL     1      53.783  39.343  70.004  0.00  0.00    +0.000 C 
ATOM     27  C   UNL     1      55.053  40.177  69.843  0.00  0.00    +0.000 C 
ATOM     28  C   UNL     1      53.820  38.294  68.902  0.00  0.00    +0.000 C 
ATOM     29  C   UNL     1      52.117  37.132  71.690  0.00  0.00    +0.000 A 
ATOM     30  C   UNL     1      56.330  39.284  69.836  0.00  0.00    +0.000 C 
ATOM     31  C   UNL     1      56.113  37.762  69.457  0.00  0.00    +0.000 C 
ATOM     32  C   UNL     1      52.749  36.222  70.649  0.00  0.00    +0.000 C 
ATOM     33  C   UNL     1      54.280  36.441  70.459  0.00  0.00    +0.000 C 
ATOM     34  C   UNL     1      52.143  36.809  73.098  0.00  0.00    +0.000 A 
ATOM     35  C   UNL     1      51.551  37.855  73.789  0.00  0.00    +0.000 A 
ATOM     36  C   UNL     1      52.640  35.718  73.846  0.00  0.00    +0.000 A 
ATOM     37  C   UNL     1      51.415  37.876  75.183  0.00  0.00    +0.000 A 
ATOM     38  C   UNL     1      52.514  35.716  75.240  0.00  0.00    +0.000 A 
ATOM     39  C   UNL     1      51.909  36.781  75.897  0.00  0.00    +0.000 A 
ATOM     40  H   UNL     1      50.721  39.656  73.094  0.00  0.00    +0.000 HD
BRANCH  23  42
ATOM     41  O   UNL     1      50.087  37.494  69.071  0.00  0.00    +0.000 OA
ATOM     42  C   UNL     1      50.634  38.589  69.114  0.00  0.00    +0.000 C 
BRANCH  42  43
ATOM     43  O   UNL     1      50.862  39.351  67.992  0.00  0.00    +0.000 OA
ATOM     44  C   UNL     1      50.706  38.637  66.766  0.00  0.00    +0.000 C 
ENDBRANCH  42  43
ENDBRANCH  23  42
BRANCH  30  45
ATOM     45  O   UNL     1      57.192  39.859  68.822  0.00  0.00    +0.000 OA
ATOM     46  H   UNL     1      56.633  40.405  68.242  0.00  0.00    +0.000 HD
ENDBRANCH  30  45
BRANCH  30  47
ATOM     47  C   UNL     1      57.141  39.441  71.144  0.00  0.00    +0.000 C 
ATOM     48  C   UNL     1      56.619  38.696  72.360  0.00  0.00    +0.000 C 
ENDBRANCH  30  47
ENDBRANCH  19  23
BRANCH   7  49
ATOM     49  O   UNL     1      43.717  42.279  72.811  0.00  0.00    +0.000 OA
ATOM     50  H   UNL     1      42.760  42.078  72.756  0.00  0.00    +0.000 HD
ENDBRANCH   7  49
BRANCH   7  52
ATOM     51  O   UNL     1      44.783  44.324  70.095  0.00  0.00    +0.000 OA
ATOM     52  C   UNL     1      44.049  43.758  70.892  0.00  0.00    +0.000 C 
BRANCH  52  53
ATOM     53  O   UNL     1      42.894  44.314  71.387  0.00  0.00    +0.000 OA
ATOM     54  C   UNL     1      42.323  45.313  70.541  0.00  0.00    +0.000 C 
ENDBRANCH  52  53
ENDBRANCH   7  52
BRANCH  20  55
ATOM     55  O   UNL     1      51.504  41.707  71.967  0.00  0.00    +0.000 OA
ATOM     56  C   UNL     1      51.947  43.060  71.932  0.00  0.00    +0.000 C 
ENDBRANCH  20  55
BRANCH   6  57
ATOM     57  C   UNL     1      43.666  39.221  72.131  0.00  0.00    +0.000 C 
ATOM     58  C   UNL     1      44.828  38.417  72.719  0.00  0.00    +0.000 C 
ENDBRANCH   6  57
BRANCH   9  59
ATOM     59  O   UNL     1      43.151  41.668  69.255  0.00  0.00    +0.000 OA
BRANCH  59  61
ATOM     60  O   UNL     1      40.938  42.165  69.578  0.00  0.00    +0.000 OA
ATOM     61  C   UNL     1      41.885  41.937  68.838  0.00  0.00    +0.000 C 
ATOM     62  C   UNL     1      41.826  41.948  67.342  0.00  0.00    +0.000 C 
ENDBRANCH  59  61
ENDBRANCH   9  59
TORSDOF 12
ENDMDL
MODEL 4
REMARK VINA RESULT:      -6.5     26.384     31.143
REMARK  Name = 
REMARK  19 active torsions:
REMARK  status: ('A' for Active; 'I' for Inactive)
REMARK    1  A    between atoms: O_1  and  C_20
REMARK    2  A    between atoms: O_1  and  C_36
REMARK    3  A    between atoms: O_2  and  C_18
REMARK    4  A    between atoms: O_3  and  C_28
REMARK    5  A    between atoms: O_3  and  C_42
REMARK    6  A    between atoms: O_5  and  C_34
REMARK    7  A    between atoms: O_5  and  C_50
REMARK    8  A    between atoms: O_7  and  C_40
REMARK    9  A    between atoms: O_7  and  C_56
REMARK   10  A    between atoms: O_9  and  C_46
REMARK   11  A    between atoms: N_11  and  C_30
REMARK   12  A    between atoms: C_17  and  C_23
REMARK   13  A    between atoms: C_18  and  C_28
REMARK   14  A    between atoms: C_23  and  C_32
REMARK   15  A    between atoms: C_33  and  C_35
REMARK   16  A    between atoms: C_35  and  C_40
REMARK   17  A    between atoms: C_36  and  C_41
REMARK   18  A    between atoms: C_46  and  C_53
REMARK   19  A    between atoms: C_53  and  C_57
REMARK                            x       y       z     vdW  Elec       q    Type
REMARK                         _______ _______ _______ _____ _____    ______ ____
ROOT
ATOM      1  N   UNL     1      73.873  51.584  73.020  0.00  0.00    +0.000 NA
ATOM      2  N   UNL     1      73.450  46.853  72.550  0.00  0.00    +0.000 N 
ATOM      3  C   UNL     1      73.698  49.273  72.768  0.00  0.00    +0.000 C 
ATOM      4  C   UNL     1      74.716  50.423  72.679  0.00  0.00    +0.000 C 
ATOM      5  C   UNL     1      74.235  48.020  72.048  0.00  0.00    +0.000 C 
ATOM      6  C   UNL     1      75.507  50.476  71.292  0.00  0.00    +0.000 C 
ATOM      7  C   UNL     1      74.458  48.160  70.533  0.00  0.00    +0.000 C 
ATOM      8  C   UNL     1      72.354  49.894  72.341  0.00  0.00    +0.000 C 
ATOM      9  C   UNL     1      74.805  49.633  70.137  0.00  0.00    +0.000 C 
ATOM     10  C   UNL     1      73.462  48.613  74.113  0.00  0.00    +0.000 A 
ATOM     11  C   UNL     1      72.573  51.405  72.385  0.00  0.00    +0.000 C 
ATOM     12  C   UNL     1      73.269  47.239  73.914  0.00  0.00    +0.000 A 
ATOM     13  C   UNL     1      75.662  51.913  70.787  0.00  0.00    +0.000 C 
ATOM     14  C   UNL     1      74.485  52.879  72.766  0.00  0.00    +0.000 C 
ATOM     15  C   UNL     1      75.211  52.978  71.464  0.00  0.00    +0.000 C 
ATOM     16  C   UNL     1      73.371  49.195  75.373  0.00  0.00    +0.000 A 
ATOM     17  C   UNL     1      74.026  45.522  72.367  0.00  0.00    +0.000 C 
ATOM     18  C   UNL     1      72.939  46.434  74.987  0.00  0.00    +0.000 A 
ATOM     19  C   UNL     1      73.042  48.401  76.489  0.00  0.00    +0.000 A 
ATOM     20  C   UNL     1      72.818  47.011  76.263  0.00  0.00    +0.000 A 
ENDROOT
BRANCH  19  23
ATOM     21  N   UNL     1      72.623  51.285  81.596  0.00  0.00    +0.000 NA
ATOM     22  N   UNL     1      70.412  48.670  77.588  0.00  0.00    +0.000 N 
ATOM     23  C   UNL     1      72.900  49.014  77.939  0.00  0.00    +0.000 C 
ATOM     24  C   UNL     1      73.172  50.588  77.934  0.00  0.00    +0.000 C 
ATOM     25  C   UNL     1      71.451  48.801  78.494  0.00  0.00    +0.000 A 
ATOM     26  C   UNL     1      72.736  51.373  79.182  0.00  0.00    +0.000 C 
ATOM     27  C   UNL     1      72.872  52.891  79.067  0.00  0.00    +0.000 C 
ATOM     28  C   UNL     1      73.468  50.975  80.456  0.00  0.00    +0.000 C 
ATOM     29  C   UNL     1      70.857  48.798  79.769  0.00  0.00    +0.000 A 
ATOM     30  C   UNL     1      72.376  53.611  80.356  0.00  0.00    +0.000 C 
ATOM     31  C   UNL     1      72.345  52.736  81.675  0.00  0.00    +0.000 C 
ATOM     32  C   UNL     1      71.454  48.988  81.155  0.00  0.00    +0.000 C 
ATOM     33  C   UNL     1      71.393  50.456  81.677  0.00  0.00    +0.000 C 
ATOM     34  C   UNL     1      69.439  48.606  79.572  0.00  0.00    +0.000 A 
ATOM     35  C   UNL     1      69.202  48.530  78.208  0.00  0.00    +0.000 A 
ATOM     36  C   UNL     1      68.331  48.508  80.444  0.00  0.00    +0.000 A 
ATOM     37  C   UNL     1      67.926  48.352  77.659  0.00  0.00    +0.000 A 
ATOM     38  C   UNL     1      67.046  48.329  79.918  0.00  0.00    +0.000 A 
ATOM     39  C   UNL     1      66.849  48.252  78.544  0.00  0.00    +0.000 A 
ATOM     40  H   UNL     1      70.526  48.656  76.583  0.00  0.00    +0.000 HD
BRANCH  23  42
ATOM     41  O   UNL     1      73.787  47.477  79.708  0.00  0.00    +0.000 OA
ATOM     42  C   UNL     1      73.979  48.277  78.800  0.00  0.00    +0.000 C 
BRANCH  42  43
ATOM     43  O   UNL     1      75.238  48.629  78.374  0.00  0.00    +0.000 OA
ATOM     44  C   UNL     1      76.237  47.646  78.645  0.00  0.00    +0.000 C 
ENDBRANCH  42  43
ENDBRANCH  23  42
BRANCH  30  45
ATOM     45  O   UNL     1      73.320  54.689  80.579  0.00  0.00    +0.000 OA
ATOM     46  H   UNL     1      72.929  55.499  80.207  0.00  0.00    +0.000 HD
ENDBRANCH  30  45
BRANCH  30  47
ATOM     47  C   UNL     1      71.033  54.340  80.117  0.00  0.00    +0.000 C 
ATOM     48  C   UNL     1      70.044  54.338  81.270  0.00  0.00    +0.000 C 
ENDBRANCH  30  47
ENDBRANCH  19  23
BRANCH   7  49
ATOM     49  O   UNL     1      75.656  47.370  70.240  0.00  0.00    +0.000 OA
ATOM     50  H   UNL     1      75.588  47.118  69.296  0.00  0.00    +0.000 HD
ENDBRANCH   7  49
BRANCH   7  52
ATOM     51  O   UNL     1      72.112  47.498  70.059  0.00  0.00    +0.000 OA
ATOM     52  C   UNL     1      73.280  47.586  69.706  0.00  0.00    +0.000 C 
BRANCH  52  53
ATOM     53  O   UNL     1      73.721  47.249  68.449  0.00  0.00    +0.000 OA
ATOM     54  C   UNL     1      73.246  45.983  67.988  0.00  0.00    +0.000 C 
ENDBRANCH  52  53
ENDBRANCH   7  52
BRANCH  20  55
ATOM     55  O   UNL     1      72.538  46.234  77.358  0.00  0.00    +0.000 OA
ATOM     56  C   UNL     1      72.757  44.837  77.184  0.00  0.00    +0.000 C 
ENDBRANCH  20  55
BRANCH   6  57
ATOM     57  C   UNL     1      76.967  49.926  71.494  0.00  0.00    +0.000 C 
ATOM     58  C   UNL     1      77.438  49.754  72.939  0.00  0.00    +0.000 C 
ENDBRANCH   6  57
BRANCH   9  59
ATOM     59  O   UNL     1      73.640  50.365  69.687  0.00  0.00    +0.000 OA
BRANCH  59  61
ATOM     60  O   UNL     1      74.239  50.414  67.477  0.00  0.00    +0.000 OA
ATOM     61  C   UNL     1      73.696  50.922  68.448  0.00  0.00    +0.000 C 
ATOM     62  C   UNL     1      72.965  52.228  68.436  0.00  0.00    +0.000 C 
ENDBRANCH  59  61
ENDBRANCH   9  59
TORSDOF 12
ENDMDL
MODEL 5
REMARK VINA RESULT:      -6.4     42.344     46.591
REMARK  Name = 
REMARK  19 active torsions:
REMARK  status: ('A' for Active; 'I' for Inactive)
REMARK    1  A    between atoms: O_1  and  C_20
REMARK    2  A    between atoms: O_1  and  C_36
REMARK    3  A    between atoms: O_2  and  C_18
REMARK    4  A    between atoms: O_3  and  C_28
REMARK    5  A    between atoms: O_3  and  C_42
REMARK    6  A    between atoms: O_5  and  C_34
REMARK    7  A    between atoms: O_5  and  C_50
REMARK    8  A    between atoms: O_7  and  C_40
REMARK    9  A    between atoms: O_7  and  C_56
REMARK   10  A    between atoms: O_9  and  C_46
REMARK   11  A    between atoms: N_11  and  C_30
REMARK   12  A    between atoms: C_17  and  C_23
REMARK   13  A    between atoms: C_18  and  C_28
REMARK   14  A    between atoms: C_23  and  C_32
REMARK   15  A    between atoms: C_33  and  C_35
REMARK   16  A    between atoms: C_35  and  C_40
REMARK   17  A    between atoms: C_36  and  C_41
REMARK   18  A    between atoms: C_46  and  C_53
REMARK   19  A    between atoms: C_53  and  C_57
REMARK                            x       y       z     vdW  Elec       q    Type
REMARK                         _______ _______ _______ _____ _____    ______ ____
ROOT
ATOM      1  N   UNL     1      56.043  33.102  63.705  0.00  0.00    +0.000 NA
ATOM      2  N   UNL     1      52.550  36.114  64.932  0.00  0.00    +0.000 N 
ATOM      3  C   UNL     1      54.363  34.598  64.319  0.00  0.00    +0.000 C 
ATOM      4  C   UNL     1      55.871  34.533  64.020  0.00  0.00    +0.000 C 
ATOM      5  C   UNL     1      54.020  35.894  65.080  0.00  0.00    +0.000 C 
ATOM      6  C   UNL     1      56.784  35.140  65.183  0.00  0.00    +0.000 C 
ATOM      7  C   UNL     1      54.649  36.041  66.475  0.00  0.00    +0.000 C 
ATOM      8  C   UNL     1      54.017  33.226  64.931  0.00  0.00    +0.000 C 
ATOM      9  C   UNL     1      56.017  35.288  66.570  0.00  0.00    +0.000 C 
ATOM     10  C   UNL     1      53.402  34.812  63.166  0.00  0.00    +0.000 A 
ATOM     11  C   UNL     1      55.215  32.331  64.624  0.00  0.00    +0.000 C 
ATOM     12  C   UNL     1      52.357  35.640  63.598  0.00  0.00    +0.000 A 
ATOM     13  C   UNL     1      58.026  34.280  65.429  0.00  0.00    +0.000 C 
ATOM     14  C   UNL     1      57.425  32.654  63.631  0.00  0.00    +0.000 C 
ATOM     15  C   UNL     1      58.306  33.179  64.719  0.00  0.00    +0.000 C 
ATOM     16  C   UNL     1      53.433  34.272  61.885  0.00  0.00    +0.000 A 
ATOM     17  C   UNL     1      52.042  37.463  65.177  0.00  0.00    +0.000 C 
ATOM     18  C   UNL     1      51.300  35.904  62.748  0.00  0.00    +0.000 A 
ATOM     19  C   UNL     1      52.373  34.527  60.992  0.00  0.00    +0.000 A 
ATOM     20  C   UNL     1      51.303  35.345  61.459  0.00  0.00    +0.000 A 
ENDROOT
BRANCH  19  23
ATOM     21  N   UNL     1      52.750  31.839  55.776  0.00  0.00    +0.000 NA
ATOM     22  N   UNL     1      50.225  32.761  60.311  0.00  0.00    +0.000 N 
ATOM     23  C   UNL     1      52.344  33.918  59.533  0.00  0.00    +0.000 C 
ATOM     24  C   UNL     1      53.464  32.794  59.350  0.00  0.00    +0.000 C 
ATOM     25  C   UNL     1      50.962  33.239  59.241  0.00  0.00    +0.000 A 
ATOM     26  C   UNL     1      53.336  31.878  58.122  0.00  0.00    +0.000 C 
ATOM     27  C   UNL     1      54.336  30.724  58.073  0.00  0.00    +0.000 C 
ATOM     28  C   UNL     1      53.457  32.603  56.789  0.00  0.00    +0.000 C 
ATOM     29  C   UNL     1      50.251  32.874  58.083  0.00  0.00    +0.000 A 
ATOM     30  C   UNL     1      54.115  29.825  56.820  0.00  0.00    +0.000 C 
ATOM     31  C   UNL     1      53.345  30.495  55.609  0.00  0.00    +0.000 C 
ATOM     32  C   UNL     1      50.581  33.039  56.608  0.00  0.00    +0.000 C 
ATOM     33  C   UNL     1      51.278  31.799  55.970  0.00  0.00    +0.000 C 
ATOM     34  C   UNL     1      49.045  32.211  58.523  0.00  0.00    +0.000 A 
ATOM     35  C   UNL     1      49.064  32.161  59.909  0.00  0.00    +0.000 A 
ATOM     36  C   UNL     1      47.944  31.632  57.853  0.00  0.00    +0.000 A 
ATOM     37  C   UNL     1      48.045  31.576  60.670  0.00  0.00    +0.000 A 
ATOM     38  C   UNL     1      46.913  31.042  58.593  0.00  0.00    +0.000 A 
ATOM     39  C   UNL     1      46.965  31.016  59.983  0.00  0.00    +0.000 A 
ATOM     40  H   UNL     1      50.494  32.857  61.281  0.00  0.00    +0.000 HD
BRANCH  23  42
ATOM     41  O   UNL     1      53.713  35.590  58.267  0.00  0.00    +0.000 OA
ATOM     42  C   UNL     1      52.624  35.128  58.581  0.00  0.00    +0.000 C 
BRANCH  42  43
ATOM     43  O   UNL     1      51.438  35.620  58.089  0.00  0.00    +0.000 OA
ATOM     44  C   UNL     1      51.595  36.713  57.185  0.00  0.00    +0.000 C 
ENDBRANCH  42  43
ENDBRANCH  23  42
BRANCH  30  45
ATOM     45  O   UNL     1      55.445  29.491  56.350  0.00  0.00    +0.000 OA
ATOM     46  H   UNL     1      55.658  28.603  56.689  0.00  0.00    +0.000 HD
ENDBRANCH  30  45
BRANCH  30  47
ATOM     47  C   UNL     1      53.504  28.456  57.204  0.00  0.00    +0.000 C 
ATOM     48  C   UNL     1      52.007  28.429  57.461  0.00  0.00    +0.000 C 
ENDBRANCH  30  47
ENDBRANCH  19  23
BRANCH   7  49
ATOM     49  O   UNL     1      54.962  37.465  66.614  0.00  0.00    +0.000 OA
ATOM     50  H   UNL     1      54.731  37.703  67.536  0.00  0.00    +0.000 HD
ENDBRANCH   7  49
BRANCH   7  52
ATOM     51  O   UNL     1      53.015  34.613  67.683  0.00  0.00    +0.000 OA
ATOM     52  C   UNL     1      53.672  35.642  67.610  0.00  0.00    +0.000 C 
BRANCH  52  53
ATOM     53  O   UNL     1      53.702  36.595  68.599  0.00  0.00    +0.000 OA
ATOM     54  C   UNL     1      53.967  36.071  69.902  0.00  0.00    +0.000 C 
ENDBRANCH  52  53
ENDBRANCH   7  52
BRANCH  20  55
ATOM     55  O   UNL     1      50.293  35.623  60.573  0.00  0.00    +0.000 OA
ATOM     56  C   UNL     1      49.043  35.963  61.166  0.00  0.00    +0.000 C 
ENDBRANCH  20  55
BRANCH   6  57
ATOM     57  C   UNL     1      57.314  36.558  64.753  0.00  0.00    +0.000 C 
ATOM     58  C   UNL     1      57.630  36.747  63.268  0.00  0.00    +0.000 C 
ENDBRANCH   6  57
BRANCH   9  59
ATOM     59  O   UNL     1      55.873  33.969  67.150  0.00  0.00    +0.000 OA
BRANCH  59  61
ATOM     60  O   UNL     1      57.180  34.544  68.941  0.00  0.00    +0.000 OA
ATOM     61  C   UNL     1      56.427  33.764  68.375  0.00  0.00    +0.000 C 
ATOM     62  C   UNL     1      55.953  32.463  68.945  0.00  0.00    +0.000 C 
ENDBRANCH  59  61
ENDBRANCH   9  59
TORSDOF 12
ENDMDL
MODEL 6
REMARK VINA RESULT:      -6.4     36.972     41.405
REMARK  Name = 
REMARK  19 active torsions:
REMARK  status: ('A' for Active; 'I' for Inactive)
REMARK    1  A    between atoms: O_1  and  C_20
REMARK    2  A    between atoms: O_1  and  C_36
REMARK    3  A    between atoms: O_2  and  C_18
REMARK    4  A    between atoms: O_3  and  C_28
REMARK    5  A    between atoms: O_3  and  C_42
REMARK    6  A    between atoms: O_5  and  C_34
REMARK    7  A    between atoms: O_5  and  C_50
REMARK    8  A    between atoms: O_7  and  C_40
REMARK    9  A    between atoms: O_7  and  C_56
REMARK   10  A    between atoms: O_9  and  C_46
REMARK   11  A    between atoms: N_11  and  C_30
REMARK   12  A    between atoms: C_17  and  C_23
REMARK   13  A    between atoms: C_18  and  C_28
REMARK   14  A    between atoms: C_23  and  C_32
REMARK   15  A    between atoms: C_33  and  C_35
REMARK   16  A    between atoms: C_35  and  C_40
REMARK   17  A    between atoms: C_36  and  C_41
REMARK   18  A    between atoms: C_46  and  C_53
REMARK   19  A    between atoms: C_53  and  C_57
REMARK                            x       y       z     vdW  Elec       q    Type
REMARK                         _______ _______ _______ _____ _____    ______ ____
ROOT
ATOM      1  N   UNL     1      59.031  37.187  66.510  0.00  0.00    +0.000 NA
ATOM      2  N   UNL     1      57.478  38.047  70.940  0.00  0.00    +0.000 N 
ATOM      3  C   UNL     1      58.295  37.639  68.675  0.00  0.00    +0.000 C 
ATOM      4  C   UNL     1      58.932  38.319  67.451  0.00  0.00    +0.000 C 
ATOM      5  C   UNL     1      58.478  38.512  69.933  0.00  0.00    +0.000 C 
ATOM      6  C   UNL     1      60.278  39.113  67.784  0.00  0.00    +0.000 C 
ATOM      7  C   UNL     1      59.929  38.739  70.388  0.00  0.00    +0.000 C 
ATOM      8  C   UNL     1      58.828  36.193  68.653  0.00  0.00    +0.000 C 
ATOM      9  C   UNL     1      60.922  38.697  69.180  0.00  0.00    +0.000 C 
ATOM     10  C   UNL     1      56.783  37.542  68.749  0.00  0.00    +0.000 A 
ATOM     11  C   UNL     1      59.427  36.003  67.262  0.00  0.00    +0.000 C 
ATOM     12  C   UNL     1      56.383  37.726  70.079  0.00  0.00    +0.000 A 
ATOM     13  C   UNL     1      61.340  38.898  66.702  0.00  0.00    +0.000 C 
ATOM     14  C   UNL     1      59.844  37.443  65.330  0.00  0.00    +0.000 C 
ATOM     15  C   UNL     1      61.126  38.159  65.604  0.00  0.00    +0.000 C 
ATOM     16  C   UNL     1      55.871  37.259  67.737  0.00  0.00    +0.000 A 
ATOM     17  C   UNL     1      57.144  38.961  72.031  0.00  0.00    +0.000 C 
ATOM     18  C   UNL     1      55.051  37.586  70.416  0.00  0.00    +0.000 A 
ATOM     19  C   UNL     1      54.505  37.116  68.047  0.00  0.00    +0.000 A 
ATOM     20  C   UNL     1      54.120  37.275  69.411  0.00  0.00    +0.000 A 
ENDROOT
BRANCH  19  23
ATOM     21  N   UNL     1      51.020  35.781  63.503  0.00  0.00    +0.000 NA
ATOM     22  N   UNL     1      53.402  34.473  68.020  0.00  0.00    +0.000 N 
ATOM     23  C   UNL     1      53.428  36.769  66.942  0.00  0.00    +0.000 C 
ATOM     24  C   UNL     1      54.102  36.615  65.502  0.00  0.00    +0.000 C 
ATOM     25  C   UNL     1      52.718  35.410  67.263  0.00  0.00    +0.000 A 
ATOM     26  C   UNL     1      53.257  35.946  64.407  0.00  0.00    +0.000 C 
ATOM     27  C   UNL     1      53.996  35.680  63.096  0.00  0.00    +0.000 C 
ATOM     28  C   UNL     1      51.997  36.714  64.036  0.00  0.00    +0.000 C 
ATOM     29  C   UNL     1      51.510  34.797  66.884  0.00  0.00    +0.000 A 
ATOM     30  C   UNL     1      53.082  34.968  62.055  0.00  0.00    +0.000 C 
ATOM     31  C   UNL     1      51.521  35.126  62.275  0.00  0.00    +0.000 C 
ATOM     32  C   UNL     1      50.380  35.276  65.988  0.00  0.00    +0.000 C 
ATOM     33  C   UNL     1      50.504  34.812  64.505  0.00  0.00    +0.000 C 
ATOM     34  C   UNL     1      51.494  33.487  67.494  0.00  0.00    +0.000 A 
ATOM     35  C   UNL     1      52.682  33.324  68.190  0.00  0.00    +0.000 A 
ATOM     36  C   UNL     1      50.571  32.417  67.496  0.00  0.00    +0.000 A 
ATOM     37  C   UNL     1      53.003  32.159  68.898  0.00  0.00    +0.000 A 
ATOM     38  C   UNL     1      50.870  31.243  68.198  0.00  0.00    +0.000 A 
ATOM     39  C   UNL     1      52.071  31.118  68.889  0.00  0.00    +0.000 A 
ATOM     40  H   UNL     1      54.318  34.620  68.423  0.00  0.00    +0.000 HD
BRANCH  23  42
ATOM     41  O   UNL     1      51.249  37.960  67.267  0.00  0.00    +0.000 OA
ATOM     42  C   UNL     1      52.432  37.975  66.952  0.00  0.00    +0.000 C 
BRANCH  42  43
ATOM     43  O   UNL     1      53.085  39.125  66.572  0.00  0.00    +0.000 OA
ATOM     44  C   UNL     1      52.842  40.239  67.430  0.00  0.00    +0.000 C 
ENDBRANCH  42  43
ENDBRANCH  23  42
BRANCH  30  45
ATOM     45  O   UNL     1      53.400  35.585  60.782  0.00  0.00    +0.000 OA
ATOM     46  H   UNL     1      54.111  36.231  60.943  0.00  0.00    +0.000 HD
ENDBRANCH  30  45
BRANCH  30  47
ATOM     47  C   UNL     1      53.488  33.488  61.859  0.00  0.00    +0.000 C 
ATOM     48  C   UNL     1      54.602  32.967  62.751  0.00  0.00    +0.000 C 
ENDBRANCH  30  47
ENDBRANCH  19  23
BRANCH   7  49
ATOM     49  O   UNL     1      59.968  40.113  70.895  0.00  0.00    +0.000 OA
ATOM     50  H   UNL     1      59.285  40.161  71.595  0.00  0.00    +0.000 HD
ENDBRANCH   7  49
BRANCH   7  52
ATOM     51  O   UNL     1      60.079  36.594  71.629  0.00  0.00    +0.000 OA
ATOM     52  C   UNL     1      60.347  37.783  71.533  0.00  0.00    +0.000 C 
BRANCH  52  53
ATOM     53  O   UNL     1      61.154  38.453  72.420  0.00  0.00    +0.000 OA
ATOM     54  C   UNL     1      62.399  37.801  72.677  0.00  0.00    +0.000 C 
ENDBRANCH  52  53
ENDBRANCH   7  52
BRANCH  20  55
ATOM     55  O   UNL     1      52.783  37.175  69.702  0.00  0.00    +0.000 OA
ATOM     56  C   UNL     1      52.308  38.081  70.693  0.00  0.00    +0.000 C 
ENDBRANCH  20  55
BRANCH   6  57
ATOM     57  C   UNL     1      59.988  40.659  67.809  0.00  0.00    +0.000 C 
ATOM     58  C   UNL     1      60.977  41.551  67.056  0.00  0.00    +0.000 C 
ENDBRANCH   6  57
BRANCH   9  59
ATOM     59  O   UNL     1      61.536  37.395  69.025  0.00  0.00    +0.000 OA
BRANCH  59  61
ATOM     60  O   UNL     1      63.639  38.172  69.497  0.00  0.00    +0.000 OA
ATOM     61  C   UNL     1      62.895  37.349  68.982  0.00  0.00    +0.000 C 
ATOM     62  C   UNL     1      63.347  36.127  68.245  0.00  0.00    +0.000 C 
ENDBRANCH  59  61
ENDBRANCH   9  59
TORSDOF 12
ENDMDL
MODEL 7
REMARK VINA RESULT:      -6.3     45.920     50.336
REMARK  Name = 
REMARK  19 active torsions:
REMARK  status: ('A' for Active; 'I' for Inactive)
REMARK    1  A    between atoms: O_1  and  C_20
REMARK    2  A    between atoms: O_1  and  C_36
REMARK    3  A    between atoms: O_2  and  C_18
REMARK    4  A    between atoms: O_3  and  C_28
REMARK    5  A    between atoms: O_3  and  C_42
REMARK    6  A    between atoms: O_5  and  C_34
REMARK    7  A    between atoms: O_5  and  C_50
REMARK    8  A    between atoms: O_7  and  C_40
REMARK    9  A    between atoms: O_7  and  C_56
REMARK   10  A    between atoms: O_9  and  C_46
REMARK   11  A    between atoms: N_11  and  C_30
REMARK   12  A    between atoms: C_17  and  C_23
REMARK   13  A    between atoms: C_18  and  C_28
REMARK   14  A    between atoms: C_23  and  C_32
REMARK   15  A    between atoms: C_33  and  C_35
REMARK   16  A    between atoms: C_35  and  C_40
REMARK   17  A    between atoms: C_36  and  C_41
REMARK   18  A    between atoms: C_46  and  C_53
REMARK   19  A    between atoms: C_53  and  C_57
REMARK                            x       y       z     vdW  Elec       q    Type
REMARK                         _______ _______ _______ _____ _____    ______ ____
ROOT
ATOM      1  N   UNL     1      53.298  29.359  57.674  0.00  0.00    +0.000 NA
ATOM      2  N   UNL     1      53.502  33.361  55.081  0.00  0.00    +0.000 N 
ATOM      3  C   UNL     1      53.390  31.294  56.375  0.00  0.00    +0.000 C 
ATOM      4  C   UNL     1      52.808  29.869  56.379  0.00  0.00    +0.000 C 
ATOM      5  C   UNL     1      53.373  31.879  54.949  0.00  0.00    +0.000 C 
ATOM      6  C   UNL     1      53.174  29.021  55.074  0.00  0.00    +0.000 C 
ATOM      7  C   UNL     1      54.248  31.153  53.915  0.00  0.00    +0.000 C 
ATOM      8  C   UNL     1      54.716  31.187  57.152  0.00  0.00    +0.000 C 
ATOM      9  C   UNL     1      54.393  29.632  54.252  0.00  0.00    +0.000 C 
ATOM     10  C   UNL     1      52.593  32.405  57.030  0.00  0.00    +0.000 A 
ATOM     11  C   UNL     1      54.661  29.838  57.866  0.00  0.00    +0.000 C 
ATOM     12  C   UNL     1      52.746  33.576  56.274  0.00  0.00    +0.000 A 
ATOM     13  C   UNL     1      53.531  27.575  55.425  0.00  0.00    +0.000 C 
ATOM     14  C   UNL     1      53.138  27.926  57.867  0.00  0.00    +0.000 C 
ATOM     15  C   UNL     1      53.497  27.096  56.677  0.00  0.00    +0.000 C 
ATOM     16  C   UNL     1      51.858  32.382  58.211  0.00  0.00    +0.000 A 
ATOM     17  C   UNL     1      53.087  34.179  53.943  0.00  0.00    +0.000 C 
ATOM     18  C   UNL     1      52.188  34.757  56.725  0.00  0.00    +0.000 A 
ATOM     19  C   UNL     1      51.272  33.568  58.695  0.00  0.00    +0.000 A 
ATOM     20  C   UNL     1      51.465  34.755  57.929  0.00  0.00    +0.000 A 
ENDROOT
BRANCH  19  23
ATOM     21  N   UNL     1      48.082  34.354  63.571  0.00  0.00    +0.000 NA
ATOM     22  N   UNL     1      48.664  32.387  58.715  0.00  0.00    +0.000 N 
ATOM     23  C   UNL     1      50.449  33.604  60.044  0.00  0.00    +0.000 C 
ATOM     24  C   UNL     1      49.900  35.073  60.350  0.00  0.00    +0.000 C 
ATOM     25  C   UNL     1      49.203  32.658  59.961  0.00  0.00    +0.000 A 
ATOM     26  C   UNL     1      48.806  35.196  61.423  0.00  0.00    +0.000 C 
ATOM     27  C   UNL     1      48.205  36.593  61.570  0.00  0.00    +0.000 C 
ATOM     28  C   UNL     1      49.250  34.775  62.817  0.00  0.00    +0.000 C 
ATOM     29  C   UNL     1      48.359  32.030  60.895  0.00  0.00    +0.000 A 
ATOM     30  C   UNL     1      47.081  36.624  62.648  0.00  0.00    +0.000 C 
ATOM     31  C   UNL     1      47.117  35.465  63.726  0.00  0.00    +0.000 C 
ATOM     32  C   UNL     1      48.370  32.026  62.415  0.00  0.00    +0.000 C 
ATOM     33  C   UNL     1      47.453  33.109  63.060  0.00  0.00    +0.000 C 
ATOM     34  C   UNL     1      47.339  31.339  60.141  0.00  0.00    +0.000 A 
ATOM     35  C   UNL     1      47.561  31.583  58.794  0.00  0.00    +0.000 A 
ATOM     36  C   UNL     1      46.229  30.538  60.495  0.00  0.00    +0.000 A 
ATOM     37  C   UNL     1      46.749  31.068  57.776  0.00  0.00    +0.000 A 
ATOM     38  C   UNL     1      45.405  30.011  59.494  0.00  0.00    +0.000 A 
ATOM     39  C   UNL     1      45.663  30.274  58.153  0.00  0.00    +0.000 A 
ATOM     40  H   UNL     1      49.045  32.723  57.840  0.00  0.00    +0.000 HD
BRANCH  23  42
ATOM     41  O   UNL     1      51.545  32.056  61.679  0.00  0.00    +0.000 OA
ATOM     42  C   UNL     1      51.460  33.157  61.150  0.00  0.00    +0.000 C 
BRANCH  42  43
ATOM     43  O   UNL     1      52.309  34.195  61.455  0.00  0.00    +0.000 OA
ATOM     44  C   UNL     1      53.117  33.963  62.609  0.00  0.00    +0.000 C 
ENDBRANCH  42  43
ENDBRANCH  23  42
BRANCH  30  45
ATOM     45  O   UNL     1      47.268  37.875  63.358  0.00  0.00    +0.000 OA
ATOM     46  H   UNL     1      47.919  38.398  62.858  0.00  0.00    +0.000 HD
ENDBRANCH  30  45
BRANCH  30  47
ATOM     47  C   UNL     1      45.681  36.770  62.006  0.00  0.00    +0.000 C 
ATOM     48  C   UNL     1      44.951  35.481  61.670  0.00  0.00    +0.000 C 
ENDBRANCH  30  47
ENDBRANCH  19  23
BRANCH   7  49
ATOM     49  O   UNL     1      53.500  31.217  52.657  0.00  0.00    +0.000 OA
ATOM     50  H   UNL     1      52.756  30.588  52.754  0.00  0.00    +0.000 HD
ENDBRANCH   7  49
BRANCH   7  52
ATOM     51  O   UNL     1      56.414  32.172  54.575  0.00  0.00    +0.000 OA
ATOM     52  C   UNL     1      55.617  31.847  53.705  0.00  0.00    +0.000 C 
BRANCH  52  53
ATOM     53  O   UNL     1      55.863  31.985  52.361  0.00  0.00    +0.000 OA
ATOM     54  C   UNL     1      56.223  33.312  51.970  0.00  0.00    +0.000 C 
ENDBRANCH  52  53
ENDBRANCH   7  52
BRANCH  20  55
ATOM     55  O   UNL     1      50.859  35.900  58.382  0.00  0.00    +0.000 OA
ATOM     56  C   UNL     1      51.057  37.054  57.571  0.00  0.00    +0.000 C 
ENDBRANCH  20  55
BRANCH   6  57
ATOM     57  C   UNL     1      51.922  28.943  54.126  0.00  0.00    +0.000 C 
ATOM     58  C   UNL     1      50.588  29.402  54.717  0.00  0.00    +0.000 C 
ENDBRANCH   6  57
BRANCH   9  59
ATOM     59  O   UNL     1      55.615  29.350  54.976  0.00  0.00    +0.000 OA
BRANCH  59  61
ATOM     60  O   UNL     1      56.734  28.536  53.150  0.00  0.00    +0.000 OA
ATOM     61  C   UNL     1      56.538  28.566  54.357  0.00  0.00    +0.000 C 
ATOM     62  C   UNL     1      57.303  27.772  55.370  0.00  0.00    +0.000 C 
ENDBRANCH  59  61
ENDBRANCH   9  59
TORSDOF 12
ENDMDL
MODEL 8
REMARK VINA RESULT:      -6.2     38.732     42.958
REMARK  Name = 
REMARK  19 active torsions:
REMARK  status: ('A' for Active; 'I' for Inactive)
REMARK    1  A    between atoms: O_1  and  C_20
REMARK    2  A    between atoms: O_1  and  C_36
REMARK    3  A    between atoms: O_2  and  C_18
REMARK    4  A    between atoms: O_3  and  C_28
REMARK    5  A    between atoms: O_3  and  C_42
REMARK    6  A    between atoms: O_5  and  C_34
REMARK    7  A    between atoms: O_5  and  C_50
REMARK    8  A    between atoms: O_7  and  C_40
REMARK    9  A    between atoms: O_7  and  C_56
REMARK   10  A    between atoms: O_9  and  C_46
REMARK   11  A    between atoms: N_11  and  C_30
REMARK   12  A    between atoms: C_17  and  C_23
REMARK   13  A    between atoms: C_18  and  C_28
REMARK   14  A    between atoms: C_23  and  C_32
REMARK   15  A    between atoms: C_33  and  C_35
REMARK   16  A    between atoms: C_35  and  C_40
REMARK   17  A    between atoms: C_36  and  C_41
REMARK   18  A    between atoms: C_46  and  C_53
REMARK   19  A    between atoms: C_53  and  C_57
REMARK                            x       y       z     vdW  Elec       q    Type
REMARK                         _______ _______ _______ _____ _____    ______ ____
ROOT
ATOM      1  N   UNL     1      68.375  46.702  54.826  0.00  0.00    +0.000 NA
ATOM      2  N   UNL     1      63.972  48.254  55.818  0.00  0.00    +0.000 N 
ATOM      3  C   UNL     1      66.235  47.496  55.301  0.00  0.00    +0.000 C 
ATOM      4  C   UNL     1      67.498  47.839  54.491  0.00  0.00    +0.000 C 
ATOM      5  C   UNL     1      65.336  48.739  55.451  0.00  0.00    +0.000 C 
ATOM      6  C   UNL     1      68.064  49.307  54.774  0.00  0.00    +0.000 C 
ATOM      7  C   UNL     1      65.937  49.912  56.242  0.00  0.00    +0.000 C 
ATOM      8  C   UNL     1      66.750  46.758  56.552  0.00  0.00    +0.000 C 
ATOM      9  C   UNL     1      67.496  49.950  56.117  0.00  0.00    +0.000 C 
ATOM     10  C   UNL     1      65.188  46.599  54.669  0.00  0.00    +0.000 A 
ATOM     11  C   UNL     1      68.199  46.391  56.239  0.00  0.00    +0.000 C 
ATOM     12  C   UNL     1      63.917  47.050  55.051  0.00  0.00    +0.000 A 
ATOM     13  C   UNL     1      69.591  49.312  54.868  0.00  0.00    +0.000 C 
ATOM     14  C   UNL     1      69.763  46.861  54.421  0.00  0.00    +0.000 C 
ATOM     15  C   UNL     1      70.338  48.213  54.695  0.00  0.00    +0.000 C 
ATOM     16  C   UNL     1      65.363  45.464  53.884  0.00  0.00    +0.000 A 
ATOM     17  C   UNL     1      62.850  49.165  55.600  0.00  0.00    +0.000 C 
ATOM     18  C   UNL     1      62.798  46.332  54.676  0.00  0.00    +0.000 A 
ATOM     19  C   UNL     1      64.241  44.713  53.481  0.00  0.00    +0.000 A 
ATOM     20  C   UNL     1      62.958  45.169  53.905  0.00  0.00    +0.000 A 
ENDROOT
BRANCH  19  23
ATOM     21  N   UNL     1      65.415  39.819  50.440  0.00  0.00    +0.000 NA
ATOM     22  N   UNL     1      63.194  42.270  54.545  0.00  0.00    +0.000 N 
ATOM     23  C   UNL     1      64.382  43.401  52.610  0.00  0.00    +0.000 C 
ATOM     24  C   UNL     1      65.889  42.871  52.598  0.00  0.00    +0.000 C 
ATOM     25  C   UNL     1      63.496  42.248  53.194  0.00  0.00    +0.000 A 
ATOM     26  C   UNL     1      66.117  41.436  52.094  0.00  0.00    +0.000 C 
ATOM     27  C   UNL     1      67.548  40.921  52.248  0.00  0.00    +0.000 C 
ATOM     28  C   UNL     1      65.741  41.221  50.636  0.00  0.00    +0.000 C 
ATOM     29  C   UNL     1      62.955  41.050  52.693  0.00  0.00    +0.000 A 
ATOM     30  C   UNL     1      67.686  39.451  51.750  0.00  0.00    +0.000 C 
ATOM     31  C   UNL     1      66.578  38.954  50.734  0.00  0.00    +0.000 C 
ATOM     32  C   UNL     1      63.023  40.417  51.313  0.00  0.00    +0.000 C 
ATOM     33  C   UNL     1      64.179  39.385  51.142  0.00  0.00    +0.000 C 
ATOM     34  C   UNL     1      62.281  40.401  53.794  0.00  0.00    +0.000 A 
ATOM     35  C   UNL     1      62.449  41.188  54.924  0.00  0.00    +0.000 A 
ATOM     36  C   UNL     1      61.553  39.197  53.927  0.00  0.00    +0.000 A 
ATOM     37  C   UNL     1      61.928  40.851  56.179  0.00  0.00    +0.000 A 
ATOM     38  C   UNL     1      61.022  38.840  55.172  0.00  0.00    +0.000 A 
ATOM     39  C   UNL     1      61.208  39.658  56.281  0.00  0.00    +0.000 A 
ATOM     40  H   UNL     1      63.468  43.007  55.182  0.00  0.00    +0.000 HD
BRANCH  23  42
ATOM     41  O   UNL     1      62.854  43.617  50.637  0.00  0.00    +0.000 OA
ATOM     42  C   UNL     1      63.938  43.818  51.169  0.00  0.00    +0.000 C 
BRANCH  42  43
ATOM     43  O   UNL     1      64.956  44.503  50.546  0.00  0.00    +0.000 OA
ATOM     44  C   UNL     1      64.539  45.715  49.920  0.00  0.00    +0.000 C 
ENDBRANCH  42  43
ENDBRANCH  23  42
BRANCH  30  45
ATOM     45  O   UNL     1      68.957  39.401  51.055  0.00  0.00    +0.000 OA
ATOM     46  H   UNL     1      69.414  38.591  51.344  0.00  0.00    +0.000 HD
ENDBRANCH  30  45
BRANCH  30  47
ATOM     47  C   UNL     1      67.870  38.467  52.929  0.00  0.00    +0.000 C 
ATOM     48  C   UNL     1      68.087  39.084  54.300  0.00  0.00    +0.000 C 
ENDBRANCH  30  47
ENDBRANCH  19  23
BRANCH   7  49
ATOM     49  O   UNL     1      65.450  51.122  55.577  0.00  0.00    +0.000 OA
ATOM     50  H   UNL     1      66.245  51.581  55.236  0.00  0.00    +0.000 HD
ENDBRANCH   7  49
BRANCH   7  52
ATOM     51  O   UNL     1      65.658  49.080  58.565  0.00  0.00    +0.000 OA
ATOM     52  C   UNL     1      65.460  49.938  57.716  0.00  0.00    +0.000 C 
BRANCH  52  53
ATOM     53  O   UNL     1      64.830  51.131  57.975  0.00  0.00    +0.000 OA
ATOM     54  C   UNL     1      64.043  51.124  59.167  0.00  0.00    +0.000 C 
ENDBRANCH  52  53
ENDBRANCH   7  52
BRANCH  20  55
ATOM     55  O   UNL     1      61.866  44.458  53.476  0.00  0.00    +0.000 OA
ATOM     56  C   UNL     1      60.690  45.229  53.249  0.00  0.00    +0.000 C 
ENDBRANCH  20  55
BRANCH   6  57
ATOM     57  C   UNL     1      67.698  50.256  53.574  0.00  0.00    +0.000 C 
ATOM     58  C   UNL     1      67.117  49.586  52.327  0.00  0.00    +0.000 C 
ENDBRANCH   6  57
BRANCH   9  59
ATOM     59  O   UNL     1      68.148  49.306  57.237  0.00  0.00    +0.000 OA
BRANCH  59  61
ATOM     60  O   UNL     1      68.800  51.290  58.179  0.00  0.00    +0.000 OA
ATOM     61  C   UNL     1      68.933  50.084  58.031  0.00  0.00    +0.000 C 
ATOM     62  C   UNL     1      69.960  49.243  58.724  0.00  0.00    +0.000 C 
ENDBRANCH  59  61
ENDBRANCH   9  59
TORSDOF 12
ENDMDL
MODEL 9
REMARK VINA RESULT:      -6.2     36.461     40.001
REMARK  Name = 
REMARK  19 active torsions:
REMARK  status: ('A' for Active; 'I' for Inactive)
REMARK    1  A    between atoms: O_1  and  C_20
REMARK    2  A    between atoms: O_1  and  C_36
REMARK    3  A    between atoms: O_2  and  C_18
REMARK    4  A    between atoms: O_3  and  C_28
REMARK    5  A    between atoms: O_3  and  C_42
REMARK    6  A    between atoms: O_5  and  C_34
REMARK    7  A    between atoms: O_5  and  C_50
REMARK    8  A    between atoms: O_7  and  C_40
REMARK    9  A    between atoms: O_7  and  C_56
REMARK   10  A    between atoms: O_9  and  C_46
REMARK   11  A    between atoms: N_11  and  C_30
REMARK   12  A    between atoms: C_17  and  C_23
REMARK   13  A    between atoms: C_18  and  C_28
REMARK   14  A    between atoms: C_23  and  C_32
REMARK   15  A    between atoms: C_33  and  C_35
REMARK   16  A    between atoms: C_35  and  C_40
REMARK   17  A    between atoms: C_36  and  C_41
REMARK   18  A    between atoms: C_46  and  C_53
REMARK   19  A    between atoms: C_53  and  C_57
REMARK                            x       y       z     vdW  Elec       q    Type
REMARK                         _______ _______ _______ _____ _____    ______ ____
ROOT
ATOM      1  N   UNL     1      56.115  38.223  71.626  0.00  0.00    +0.000 NA
ATOM      2  N   UNL     1      55.013  36.570  67.287  0.00  0.00    +0.000 N 
ATOM      3  C   UNL     1      55.546  37.439  69.506  0.00  0.00    +0.000 C 
ATOM      4  C   UNL     1      55.335  38.639  70.446  0.00  0.00    +0.000 C 
ATOM      5  C   UNL     1      54.493  37.444  68.380  0.00  0.00    +0.000 C 
ATOM      6  C   UNL     1      53.798  39.011  70.678  0.00  0.00    +0.000 C 
ATOM      7  C   UNL     1      53.031  37.273  68.826  0.00  0.00    +0.000 C 
ATOM      8  C   UNL     1      55.676  36.219  70.438  0.00  0.00    +0.000 C 
ATOM      9  C   UNL     1      52.800  37.841  70.265  0.00  0.00    +0.000 C 
ATOM     10  C   UNL     1      56.765  37.427  68.604  0.00  0.00    +0.000 A 
ATOM     11  C   UNL     1      55.902  36.796  71.833  0.00  0.00    +0.000 C 
ATOM     12  C   UNL     1      56.409  36.864  67.371  0.00  0.00    +0.000 A 
ATOM     13  C   UNL     1      53.520  39.362  72.142  0.00  0.00    +0.000 C 
ATOM     14  C   UNL     1      55.903  39.034  72.815  0.00  0.00    +0.000 C 
ATOM     15  C   UNL     1      54.474  39.381  73.083  0.00  0.00    +0.000 C 
ATOM     16  C   UNL     1      58.068  37.824  68.884  0.00  0.00    +0.000 A 
ATOM     17  C   UNL     1      54.436  36.739  65.954  0.00  0.00    +0.000 C 
ATOM     18  C   UNL     1      57.380  36.657  66.410  0.00  0.00    +0.000 A 
ATOM     19  C   UNL     1      59.080  37.631  67.923  0.00  0.00    +0.000 A 
ATOM     20  C   UNL     1      58.706  37.029  66.686  0.00  0.00    +0.000 A 
ENDROOT
BRANCH  19  23
ATOM     21  N   UNL     1      64.479  39.264  69.585  0.00  0.00    +0.000 NA
ATOM     22  N   UNL     1      61.023  35.543  68.172  0.00  0.00    +0.000 N 
ATOM     23  C   UNL     1      60.583  38.040  68.198  0.00  0.00    +0.000 C 
ATOM     24  C   UNL     1      60.782  38.547  69.699  0.00  0.00    +0.000 C 
ATOM     25  C   UNL     1      61.539  36.816  67.997  0.00  0.00    +0.000 A 
ATOM     26  C   UNL     1      62.228  38.646  70.214  0.00  0.00    +0.000 C 
ATOM     27  C   UNL     1      62.360  38.983  71.698  0.00  0.00    +0.000 C 
ATOM     28  C   UNL     1      63.086  39.658  69.469  0.00  0.00    +0.000 C 
ATOM     29  C   UNL     1      62.914  36.648  67.755  0.00  0.00    +0.000 A 
ATOM     30  C   UNL     1      63.852  39.026  72.146  0.00  0.00    +0.000 C 
ATOM     31  C   UNL     1      64.917  39.260  70.998  0.00  0.00    +0.000 C 
ATOM     32  C   UNL     1      64.031  37.662  67.567  0.00  0.00    +0.000 C 
ATOM     33  C   UNL     1      64.809  38.001  68.875  0.00  0.00    +0.000 C 
ATOM     34  C   UNL     1      63.169  35.226  67.743  0.00  0.00    +0.000 A 
ATOM     35  C   UNL     1      61.973  34.574  68.004  0.00  0.00    +0.000 A 
ATOM     36  C   UNL     1      64.325  34.437  67.550  0.00  0.00    +0.000 A 
ATOM     37  C   UNL     1      61.858  33.180  68.075  0.00  0.00    +0.000 A 
ATOM     38  C   UNL     1      64.234  33.042  67.614  0.00  0.00    +0.000 A 
ATOM     39  C   UNL     1      63.015  32.424  67.874  0.00  0.00    +0.000 A 
ATOM     40  H   UNL     1      60.053  35.340  68.379  0.00  0.00    +0.000 HD
BRANCH  23  42
ATOM     41  O   UNL     1      61.534  39.132  66.153  0.00  0.00    +0.000 OA
ATOM     42  C   UNL     1      60.881  39.197  67.187  0.00  0.00    +0.000 C 
BRANCH  42  43
ATOM     43  O   UNL     1      60.264  40.353  67.604  0.00  0.00    +0.000 OA
ATOM     44  C   UNL     1      60.907  41.547  67.158  0.00  0.00    +0.000 C 
ENDBRANCH  42  43
ENDBRANCH  23  42
BRANCH  30  45
ATOM     45  O   UNL     1      63.945  40.154  73.053  0.00  0.00    +0.000 OA
ATOM     46  H   UNL     1      64.672  39.968  73.673  0.00  0.00    +0.000 HD
ENDBRANCH  30  45
BRANCH  30  47
ATOM     47  C   UNL     1      64.215  37.810  73.030  0.00  0.00    +0.000 C 
ATOM     48  C   UNL     1      64.466  36.497  72.309  0.00  0.00    +0.000 C 
ENDBRANCH  30  47
ENDBRANCH  19  23
BRANCH   7  49
ATOM     49  O   UNL     1      52.247  38.121  67.926  0.00  0.00    +0.000 OA
ATOM     50  H   UNL     1      51.477  37.582  67.651  0.00  0.00    +0.000 HD
ENDBRANCH   7  49
BRANCH   7  52
ATOM     51  O   UNL     1      53.138  34.798  68.997  0.00  0.00    +0.000 OA
ATOM     52  C   UNL     1      52.534  35.813  68.678  0.00  0.00    +0.000 C 
BRANCH  52  53
ATOM     53  O   UNL     1      51.248  35.811  68.197  0.00  0.00    +0.000 OA
ATOM     54  C   UNL     1      50.995  34.798  67.222  0.00  0.00    +0.000 C 
ENDBRANCH  52  53
ENDBRANCH   7  52
BRANCH  20  55
ATOM     55  O   UNL     1      59.687  36.880  65.739  0.00  0.00    +0.000 OA
ATOM     56  C   UNL     1      59.590  35.700  64.946  0.00  0.00    +0.000 C 
ENDBRANCH  20  55
BRANCH   6  57
ATOM     57  C   UNL     1      53.433  40.295  69.846  0.00  0.00    +0.000 C 
ATOM     58  C   UNL     1      52.260  41.131  70.360  0.00  0.00    +0.000 C 
ENDBRANCH   6  57
BRANCH   9  59
ATOM     59  O   UNL     1      52.871  36.808  71.276  0.00  0.00    +0.000 OA
BRANCH  59  61
ATOM     60  O   UNL     1      51.562  35.393  72.515  0.00  0.00    +0.000 OA
ATOM     61  C   UNL     1      51.698  36.396  71.828  0.00  0.00    +0.000 C 
ATOM     62  C   UNL     1      50.606  37.366  71.503  0.00  0.00    +0.000 C 
ENDBRANCH  59  61
ENDBRANCH   9  59
TORSDOF 12
ENDMDL
