MODEL 1
REMARK VINA RESULT:      -5.0      0.000      0.000
REMARK  Name = Vorinostat.pdbqt.pdb
REMARK  6 active torsions:
REMARK  status: ('A' for Active; 'I' for Inactive)
REMARK    1  A    between atoms: C_1  and  C_2
REMARK    2  A    between atoms: C_3  and  C_4
REMARK    3  A    between atoms: C_5  and  C_8
REMARK    4  A    between atoms: N_7  and  O_10
REMARK    5  A    between atoms: C_12  and  C_15
REMARK    6  A    between atoms: N_14  and  C_17
REMARK                            x       y       z     vdW  Elec       q    Type
REMARK                         _______ _______ _______ _____ _____    ______ ____
ROOT
ATOM      1  C   UNL     1      56.185  36.340  63.902  0.00  0.00    +0.000 C 
ATOM      2  C   UNL     1      54.826  35.989  63.288  0.00  0.00    +0.000 C 
ENDROOT
BRANCH   2   5
ATOM      3  O   UNL     1      52.538  35.874  63.364  0.00  0.00    +0.000 OA
ATOM      4  N   UNL     1      53.624  35.119  61.445  0.00  0.00    +0.000 N 
ATOM      5  C   UNL     1      53.545  35.657  62.709  0.00  0.00    +0.000 C 
ATOM      6  H   UNL     1      54.547  35.006  61.045  0.00  0.00    +0.000 HD
BRANCH   4   7
ATOM      7  C   UNL     1      52.532  34.710  60.660  0.00  0.00    +0.000 A 
ATOM      8  C   UNL     1      51.941  35.657  59.824  0.00  0.00    +0.000 A 
ATOM      9  C   UNL     1      52.027  33.410  60.686  0.00  0.00    +0.000 A 
ATOM     10  C   UNL     1      50.856  35.311  59.022  0.00  0.00    +0.000 A 
ATOM     11  C   UNL     1      50.942  33.061  59.885  0.00  0.00    +0.000 A 
ATOM     12  C   UNL     1      50.356  34.011  59.053  0.00  0.00    +0.000 A 
ENDBRANCH   4   7
ENDBRANCH   2   5
BRANCH   1  13
ATOM     13  C   UNL     1      57.543  36.689  64.516  0.00  0.00    +0.000 C 
ATOM     14  C   UNL     1      58.902  37.039  65.131  0.00  0.00    +0.000 C 
BRANCH  14  15
ATOM     15  C   UNL     1      60.261  37.388  65.745  0.00  0.00    +0.000 C 
ATOM     16  C   UNL     1      61.620  37.738  66.359  0.00  0.00    +0.000 C 
BRANCH  16  19
ATOM     17  O   UNL     1      63.006  39.024  67.694  0.00  0.00    +0.000 OA
ATOM     18  N   UNL     1      63.938  37.257  66.586  0.00  0.00    +0.000 N 
ATOM     19  C   UNL     1      62.895  38.069  66.935  0.00  0.00    +0.000 C 
ATOM     20  H   UNL     1      63.857  36.440  65.992  0.00  0.00    +0.000 HD
BRANCH  18  21
ATOM     21  O   UNL     1      65.200  37.529  67.157  0.00  0.00    +0.000 OA
ATOM     22  H   UNL     1      65.492  36.643  67.466  0.00  0.00    +0.000 HD
ENDBRANCH  18  21
ENDBRANCH  16  19
ENDBRANCH  14  15
ENDBRANCH   1  13
TORSDOF 6
ENDMDL
MODEL 2
REMARK VINA RESULT:      -4.8      8.258      9.386
REMARK  Name = Vorinostat.pdbqt.pdb
REMARK  6 active torsions:
REMARK  status: ('A' for Active; 'I' for Inactive)
REMARK    1  A    between atoms: C_1  and  C_2
REMARK    2  A    between atoms: C_3  and  C_4
REMARK    3  A    between atoms: C_5  and  C_8
REMARK    4  A    between atoms: N_7  and  O_10
REMARK    5  A    between atoms: C_12  and  C_15
REMARK    6  A    between atoms: N_14  and  C_17
REMARK                            x       y       z     vdW  Elec       q    Type
REMARK                         _______ _______ _______ _____ _____    ______ ____
ROOT
ATOM      1  C   UNL     1      56.749  39.696  69.482  0.00  0.00    +0.000 C 
ATOM      2  C   UNL     1      55.270  39.946  69.790  0.00  0.00    +0.000 C 
ENDROOT
BRANCH   2   5
ATOM      3  O   UNL     1      53.039  39.769  69.289  0.00  0.00    +0.000 OA
ATOM      4  N   UNL     1      53.653  40.862  71.255  0.00  0.00    +0.000 N 
ATOM      5  C   UNL     1      53.874  40.181  70.080  0.00  0.00    +0.000 C 
ATOM      6  H   UNL     1      54.466  41.132  71.795  0.00  0.00    +0.000 HD
BRANCH   4   7
ATOM      7  C   UNL     1      52.395  41.219  71.770  0.00  0.00    +0.000 A 
ATOM      8  C   UNL     1      51.734  42.300  71.185  0.00  0.00    +0.000 A 
ATOM      9  C   UNL     1      51.792  40.541  72.828  0.00  0.00    +0.000 A 
ATOM     10  C   UNL     1      50.484  42.699  71.653  0.00  0.00    +0.000 A 
ATOM     11  C   UNL     1      50.541  40.938  73.299  0.00  0.00    +0.000 A 
ATOM     12  C   UNL     1      49.888  42.017  72.710  0.00  0.00    +0.000 A 
ENDBRANCH   4   7
ENDBRANCH   2   5
BRANCH   1  13
ATOM     13  C   UNL     1      58.228  39.444  69.176  0.00  0.00    +0.000 C 
ATOM     14  C   UNL     1      59.707  39.192  68.869  0.00  0.00    +0.000 C 
BRANCH  14  15
ATOM     15  C   UNL     1      61.186  38.939  68.564  0.00  0.00    +0.000 C 
ATOM     16  C   UNL     1      62.666  38.685  68.258  0.00  0.00    +0.000 C 
BRANCH  16  19
ATOM     17  O   UNL     1      64.929  39.068  68.559  0.00  0.00    +0.000 OA
ATOM     18  N   UNL     1      64.312  37.494  67.022  0.00  0.00    +0.000 N 
ATOM     19  C   UNL     1      64.054  38.445  67.969  0.00  0.00    +0.000 C 
ATOM     20  H   UNL     1      63.604  36.942  66.554  0.00  0.00    +0.000 HD
BRANCH  18  21
ATOM     21  O   UNL     1      65.664  37.206  66.734  0.00  0.00    +0.000 OA
ATOM     22  H   UNL     1      66.009  36.903  67.603  0.00  0.00    +0.000 HD
ENDBRANCH  18  21
ENDBRANCH  16  19
ENDBRANCH  14  15
ENDBRANCH   1  13
TORSDOF 6
ENDMDL
MODEL 3
REMARK VINA RESULT:      -4.7      9.167     13.312
REMARK  Name = Vorinostat.pdbqt.pdb
REMARK  6 active torsions:
REMARK  status: ('A' for Active; 'I' for Inactive)
REMARK    1  A    between atoms: C_1  and  C_2
REMARK    2  A    between atoms: C_3  and  C_4
REMARK    3  A    between atoms: C_5  and  C_8
REMARK    4  A    between atoms: N_7  and  O_10
REMARK    5  A    between atoms: C_12  and  C_15
REMARK    6  A    between atoms: N_14  and  C_17
REMARK                            x       y       z     vdW  Elec       q    Type
REMARK                         _______ _______ _______ _____ _____    ______ ____
ROOT
ATOM      1  C   UNL     1      54.612  40.443  71.206  0.00  0.00    +0.000 C 
ATOM      2  C   UNL     1      56.010  39.978  70.785  0.00  0.00    +0.000 C 
ENDROOT
BRANCH   2   5
ATOM      3  O   UNL     1      58.121  39.221  71.260  0.00  0.00    +0.000 OA
ATOM      4  N   UNL     1      57.530  39.533  69.027  0.00  0.00    +0.000 N 
ATOM      5  C   UNL     1      57.327  39.539  70.388  0.00  0.00    +0.000 C 
ATOM      6  H   UNL     1      56.759  39.831  68.442  0.00  0.00    +0.000 HD
BRANCH   4   7
ATOM      7  C   UNL     1      58.716  39.152  68.378  0.00  0.00    +0.000 A 
ATOM      8  C   UNL     1      59.730  40.104  68.261  0.00  0.00    +0.000 A 
ATOM      9  C   UNL     1      58.914  37.875  67.854  0.00  0.00    +0.000 A 
ATOM     10  C   UNL     1      60.928  39.783  67.627  0.00  0.00    +0.000 A 
ATOM     11  C   UNL     1      60.112  37.551  67.219  0.00  0.00    +0.000 A 
ATOM     12  C   UNL     1      61.119  38.506  67.107  0.00  0.00    +0.000 A 
ENDBRANCH   4   7
ENDBRANCH   2   5
BRANCH   1  13
ATOM     13  C   UNL     1      53.214  40.906  71.625  0.00  0.00    +0.000 C 
ATOM     14  C   UNL     1      51.815  41.369  72.044  0.00  0.00    +0.000 C 
BRANCH  14  15
ATOM     15  C   UNL     1      50.417  41.832  72.461  0.00  0.00    +0.000 C 
ATOM     16  C   UNL     1      49.017  42.295  72.878  0.00  0.00    +0.000 C 
BRANCH  16  19
ATOM     17  O   UNL     1      47.300  42.545  74.410  0.00  0.00    +0.000 OA
ATOM     18  N   UNL     1      46.965  43.347  72.297  0.00  0.00    +0.000 N 
ATOM     19  C   UNL     1      47.703  42.729  73.268  0.00  0.00    +0.000 C 
ATOM     20  H   UNL     1      47.295  43.543  71.361  0.00  0.00    +0.000 HD
BRANCH  18  21
ATOM     21  O   UNL     1      45.681  43.816  72.651  0.00  0.00    +0.000 OA
ATOM     22  H   UNL     1      45.523  44.528  71.992  0.00  0.00    +0.000 HD
ENDBRANCH  18  21
ENDBRANCH  16  19
ENDBRANCH  14  15
ENDBRANCH   1  13
TORSDOF 6
ENDMDL
MODEL 4
REMARK VINA RESULT:      -4.6     16.608     20.074
REMARK  Name = Vorinostat.pdbqt.pdb
REMARK  6 active torsions:
REMARK  status: ('A' for Active; 'I' for Inactive)
REMARK    1  A    between atoms: C_1  and  C_2
REMARK    2  A    between atoms: C_3  and  C_4
REMARK    3  A    between atoms: C_5  and  C_8
REMARK    4  A    between atoms: N_7  and  O_10
REMARK    5  A    between atoms: C_12  and  C_15
REMARK    6  A    between atoms: N_14  and  C_17
REMARK                            x       y       z     vdW  Elec       q    Type
REMARK                         _______ _______ _______ _____ _____    ______ ____
ROOT
ATOM      1  C   UNL     1      58.465  52.118  58.125  0.00  0.00    +0.000 C 
ATOM      2  C   UNL     1      59.115  53.296  58.857  0.00  0.00    +0.000 C 
ENDROOT
BRANCH   2   5
ATOM      3  O   UNL     1      59.066  55.414  59.732  0.00  0.00    +0.000 OA
ATOM      4  N   UNL     1      61.032  54.178  59.927  0.00  0.00    +0.000 N 
ATOM      5  C   UNL     1      59.729  54.406  59.548  0.00  0.00    +0.000 C 
ATOM      6  H   UNL     1      61.434  53.278  59.693  0.00  0.00    +0.000 HD
BRANCH   4   7
ATOM      7  C   UNL     1      61.857  55.088  60.611  0.00  0.00    +0.000 A 
ATOM      8  C   UNL     1      61.905  55.004  62.003  0.00  0.00    +0.000 A 
ATOM      9  C   UNL     1      62.618  56.057  59.958  0.00  0.00    +0.000 A 
ATOM     10  C   UNL     1      62.704  55.879  62.735  0.00  0.00    +0.000 A 
ATOM     11  C   UNL     1      63.418  56.934  60.688  0.00  0.00    +0.000 A 
ATOM     12  C   UNL     1      63.462  56.844  62.076  0.00  0.00    +0.000 A 
ENDBRANCH   4   7
ENDBRANCH   2   5
BRANCH   1  13
ATOM     13  C   UNL     1      57.817  50.940  57.393  0.00  0.00    +0.000 C 
ATOM     14  C   UNL     1      57.167  49.761  56.660  0.00  0.00    +0.000 C 
BRANCH  14  15
ATOM     15  C   UNL     1      56.518  48.584  55.929  0.00  0.00    +0.000 C 
ATOM     16  C   UNL     1      55.867  47.405  55.197  0.00  0.00    +0.000 C 
BRANCH  16  19
ATOM     17  O   UNL     1      54.576  46.489  53.508  0.00  0.00    +0.000 OA
ATOM     18  N   UNL     1      55.484  45.063  55.046  0.00  0.00    +0.000 N 
ATOM     19  C   UNL     1      55.254  46.300  54.511  0.00  0.00    +0.000 C 
ATOM     20  H   UNL     1      56.073  44.884  55.849  0.00  0.00    +0.000 HD
BRANCH  18  21
ATOM     21  O   UNL     1      54.927  43.949  54.381  0.00  0.00    +0.000 OA
ATOM     22  H   UNL     1      55.598  43.248  54.534  0.00  0.00    +0.000 HD
ENDBRANCH  18  21
ENDBRANCH  16  19
ENDBRANCH  14  15
ENDBRANCH   1  13
TORSDOF 6
ENDMDL
MODEL 5
REMARK VINA RESULT:      -4.6     15.688     18.949
REMARK  Name = Vorinostat.pdbqt.pdb
REMARK  6 active torsions:
REMARK  status: ('A' for Active; 'I' for Inactive)
REMARK    1  A    between atoms: C_1  and  C_2
REMARK    2  A    between atoms: C_3  and  C_4
REMARK    3  A    between atoms: C_5  and  C_8
REMARK    4  A    between atoms: N_7  and  O_10
REMARK    5  A    between atoms: C_12  and  C_15
REMARK    6  A    between atoms: N_14  and  C_17
REMARK                            x       y       z     vdW  Elec       q    Type
REMARK                         _______ _______ _______ _____ _____    ______ ____
ROOT
ATOM      1  C   UNL     1      57.715  50.958  57.956  0.00  0.00    +0.000 C 
ATOM      2  C   UNL     1      59.237  51.125  57.917  0.00  0.00    +0.000 C 
ENDROOT
BRANCH   2   5
ATOM      3  O   UNL     1      61.129  52.405  57.719  0.00  0.00    +0.000 OA
ATOM      4  N   UNL     1      61.371  50.109  58.040  0.00  0.00    +0.000 N 
ATOM      5  C   UNL     1      60.672  51.284  57.881  0.00  0.00    +0.000 C 
ATOM      6  H   UNL     1      60.831  49.261  58.164  0.00  0.00    +0.000 HD
BRANCH   4   7
ATOM      7  C   UNL     1      62.771  49.983  58.044  0.00  0.00    +0.000 A 
ATOM      8  C   UNL     1      63.446  50.264  59.232  0.00  0.00    +0.000 A 
ATOM      9  C   UNL     1      63.497  49.593  56.920  0.00  0.00    +0.000 A 
ATOM     10  C   UNL     1      64.833  50.156  59.297  0.00  0.00    +0.000 A 
ATOM     11  C   UNL     1      64.886  49.484  56.982  0.00  0.00    +0.000 A 
ATOM     12  C   UNL     1      65.553  49.766  58.171  0.00  0.00    +0.000 A 
ENDBRANCH   4   7
ENDBRANCH   2   5
BRANCH   1  13
ATOM     13  C   UNL     1      56.194  50.792  57.997  0.00  0.00    +0.000 C 
ATOM     14  C   UNL     1      54.671  50.625  58.036  0.00  0.00    +0.000 C 
BRANCH  14  15
ATOM     15  C   UNL     1      53.150  50.459  58.075  0.00  0.00    +0.000 C 
ATOM     16  C   UNL     1      51.627  50.294  58.116  0.00  0.00    +0.000 C 
BRANCH  16  19
ATOM     17  O   UNL     1      49.518  50.833  58.902  0.00  0.00    +0.000 OA
ATOM     18  N   UNL     1      49.675  49.200  57.312  0.00  0.00    +0.000 N 
ATOM     19  C   UNL     1      50.197  50.142  58.154  0.00  0.00    +0.000 C 
ATOM     20  H   UNL     1      50.216  48.647  56.659  0.00  0.00    +0.000 HD
BRANCH  18  21
ATOM     21  O   UNL     1      48.272  49.043  57.296  0.00  0.00    +0.000 OA
ATOM     22  H   UNL     1      48.149  48.261  56.714  0.00  0.00    +0.000 HD
ENDBRANCH  18  21
ENDBRANCH  16  19
ENDBRANCH  14  15
ENDBRANCH   1  13
TORSDOF 6
ENDMDL
MODEL 6
REMARK VINA RESULT:      -4.6      9.533     13.659
REMARK  Name = Vorinostat.pdbqt.pdb
REMARK  6 active torsions:
REMARK  status: ('A' for Active; 'I' for Inactive)
REMARK    1  A    between atoms: C_1  and  C_2
REMARK    2  A    between atoms: C_3  and  C_4
REMARK    3  A    between atoms: C_5  and  C_8
REMARK    4  A    between atoms: N_7  and  O_10
REMARK    5  A    between atoms: C_12  and  C_15
REMARK    6  A    between atoms: N_14  and  C_17
REMARK                            x       y       z     vdW  Elec       q    Type
REMARK                         _______ _______ _______ _____ _____    ______ ____
ROOT
ATOM      1  C   UNL     1      53.338  40.757  70.927  0.00  0.00    +0.000 C 
ATOM      2  C   UNL     1      54.740  40.167  70.750  0.00  0.00    +0.000 C 
ENDROOT
BRANCH   2   5
ATOM      3  O   UNL     1      56.686  39.288  71.584  0.00  0.00    +0.000 OA
ATOM      4  N   UNL     1      56.468  39.510  69.274  0.00  0.00    +0.000 N 
ATOM      5  C   UNL     1      56.062  39.611  70.585  0.00  0.00    +0.000 C 
ATOM      6  H   UNL     1      55.822  39.827  68.562  0.00  0.00    +0.000 HD
BRANCH   4   7
ATOM      7  C   UNL     1      57.705  39.006  68.836  0.00  0.00    +0.000 A 
ATOM      8  C   UNL     1      57.797  37.636  68.584  0.00  0.00    +0.000 A 
ATOM      9  C   UNL     1      58.826  39.812  68.647  0.00  0.00    +0.000 A 
ATOM     10  C   UNL     1      58.997  37.079  68.148  0.00  0.00    +0.000 A 
ATOM     11  C   UNL     1      60.028  39.257  68.211  0.00  0.00    +0.000 A 
ATOM     12  C   UNL     1      60.113  37.890  67.961  0.00  0.00    +0.000 A 
ENDBRANCH   4   7
ENDBRANCH   2   5
BRANCH   1  13
ATOM     13  C   UNL     1      51.935  41.346  71.105  0.00  0.00    +0.000 C 
ATOM     14  C   UNL     1      50.532  41.935  71.282  0.00  0.00    +0.000 C 
BRANCH  14  15
ATOM     15  C   UNL     1      49.131  42.525  71.460  0.00  0.00    +0.000 C 
ATOM     16  C   UNL     1      47.728  43.116  71.637  0.00  0.00    +0.000 C 
BRANCH  16  19
ATOM     17  O   UNL     1      45.671  43.263  72.687  0.00  0.00    +0.000 OA
ATOM     18  N   UNL     1      46.068  44.662  70.924  0.00  0.00    +0.000 N 
ATOM     19  C   UNL     1      46.412  43.672  71.801  0.00  0.00    +0.000 C 
ATOM     20  H   UNL     1      46.681  45.039  70.213  0.00  0.00    +0.000 HD
BRANCH  18  21
ATOM     21  O   UNL     1      44.796  45.256  71.074  0.00  0.00    +0.000 OA
ATOM     22  H   UNL     1      44.189  44.486  71.012  0.00  0.00    +0.000 HD
ENDBRANCH  18  21
ENDBRANCH  16  19
ENDBRANCH  14  15
ENDBRANCH   1  13
TORSDOF 6
ENDMDL
MODEL 7
REMARK VINA RESULT:      -4.5     49.397     52.771
REMARK  Name = Vorinostat.pdbqt.pdb
REMARK  6 active torsions:
REMARK  status: ('A' for Active; 'I' for Inactive)
REMARK    1  A    between atoms: C_1  and  C_2
REMARK    2  A    between atoms: C_3  and  C_4
REMARK    3  A    between atoms: C_5  and  C_8
REMARK    4  A    between atoms: N_7  and  O_10
REMARK    5  A    between atoms: C_12  and  C_15
REMARK    6  A    between atoms: N_14  and  C_17
REMARK                            x       y       z     vdW  Elec       q    Type
REMARK                         _______ _______ _______ _____ _____    ______ ____
ROOT
ATOM      1  C   UNL     1      64.024  78.095  93.689  0.00  0.00    +0.000 C 
ATOM      2  C   UNL     1      62.957  77.720  92.656  0.00  0.00    +0.000 C 
ENDROOT
BRANCH   2   5
ATOM      3  O   UNL     1      61.762  76.184  91.444  0.00  0.00    +0.000 OA
ATOM      4  N   UNL     1      61.304  78.448  91.128  0.00  0.00    +0.000 N 
ATOM      5  C   UNL     1      61.950  77.367  91.683  0.00  0.00    +0.000 C 
ATOM      6  H   UNL     1      61.585  79.369  91.442  0.00  0.00    +0.000 HD
BRANCH   4   7
ATOM      7  C   UNL     1      60.286  78.385  90.161  0.00  0.00    +0.000 A 
ATOM      8  C   UNL     1      58.963  78.439  90.603  0.00  0.00    +0.000 A 
ATOM      9  C   UNL     1      60.546  78.273  88.796  0.00  0.00    +0.000 A 
ATOM     10  C   UNL     1      57.912  78.381  89.691  0.00  0.00    +0.000 A 
ATOM     11  C   UNL     1      59.497  78.215  87.881  0.00  0.00    +0.000 A 
ATOM     12  C   UNL     1      58.180  78.270  88.329  0.00  0.00    +0.000 A 
ENDBRANCH   4   7
ENDBRANCH   2   5
BRANCH   1  13
ATOM     13  C   UNL     1      65.091  78.472  94.721  0.00  0.00    +0.000 C 
ATOM     14  C   UNL     1      66.158  78.848  95.754  0.00  0.00    +0.000 C 
BRANCH  14  15
ATOM     15  C   UNL     1      67.224  79.225  96.786  0.00  0.00    +0.000 C 
ATOM     16  C   UNL     1      68.291  79.601  97.819  0.00  0.00    +0.000 C 
BRANCH  16  19
ATOM     17  O   UNL     1      69.159  79.645  99.964  0.00  0.00    +0.000 OA
ATOM     18  N   UNL     1      70.377  80.635  98.304  0.00  0.00    +0.000 N 
ATOM     19  C   UNL     1      69.295  79.955  98.787  0.00  0.00    +0.000 C 
ATOM     20  H   UNL     1      70.525  80.864  97.329  0.00  0.00    +0.000 HD
BRANCH  18  21
ATOM     21  O   UNL     1      71.400  80.971  99.217  0.00  0.00    +0.000 OA
ATOM     22  H   UNL     1      71.460  80.167  99.779  0.00  0.00    +0.000 HD
ENDBRANCH  18  21
ENDBRANCH  16  19
ENDBRANCH  14  15
ENDBRANCH   1  13
TORSDOF 6
ENDMDL
MODEL 8
REMARK VINA RESULT:      -4.4     21.732     23.892
REMARK  Name = Vorinostat.pdbqt.pdb
REMARK  6 active torsions:
REMARK  status: ('A' for Active; 'I' for Inactive)
REMARK    1  A    between atoms: C_1  and  C_2
REMARK    2  A    between atoms: C_3  and  C_4
REMARK    3  A    between atoms: C_5  and  C_8
REMARK    4  A    between atoms: N_7  and  O_10
REMARK    5  A    between atoms: C_12  and  C_15
REMARK    6  A    between atoms: N_14  and  C_17
REMARK                            x       y       z     vdW  Elec       q    Type
REMARK                         _______ _______ _______ _____ _____    ______ ____
ROOT
ATOM      1  C   UNL     1      61.230  57.814  60.323  0.00  0.00    +0.000 C 
ATOM      2  C   UNL     1      61.770  56.392  60.497  0.00  0.00    +0.000 C 
ENDROOT
BRANCH   2   5
ATOM      3  O   UNL     1      62.767  54.741  61.738  0.00  0.00    +0.000 OA
ATOM      4  N   UNL     1      62.143  54.258  59.544  0.00  0.00    +0.000 N 
ATOM      5  C   UNL     1      62.278  55.049  60.662  0.00  0.00    +0.000 C 
ATOM      6  H   UNL     1      61.712  54.676  58.729  0.00  0.00    +0.000 HD
BRANCH   4   7
ATOM      7  C   UNL     1      62.552  52.918  59.436  0.00  0.00    +0.000 A 
ATOM      8  C   UNL     1      61.563  51.934  59.422  0.00  0.00    +0.000 A 
ATOM      9  C   UNL     1      63.892  52.542  59.342  0.00  0.00    +0.000 A 
ATOM     10  C   UNL     1      61.909  50.588  59.317  0.00  0.00    +0.000 A 
ATOM     11  C   UNL     1      64.240  51.197  59.236  0.00  0.00    +0.000 A 
ATOM     12  C   UNL     1      63.248  50.220  59.223  0.00  0.00    +0.000 A 
ENDBRANCH   4   7
ENDBRANCH   2   5
BRANCH   1  13
ATOM     13  C   UNL     1      60.688  59.235  60.148  0.00  0.00    +0.000 C 
ATOM     14  C   UNL     1      60.146  60.657  59.973  0.00  0.00    +0.000 C 
BRANCH  14  15
ATOM     15  C   UNL     1      59.603  62.078  59.798  0.00  0.00    +0.000 C 
ATOM     16  C   UNL     1      59.061  63.501  59.623  0.00  0.00    +0.000 C 
BRANCH  16  19
ATOM     17  O   UNL     1      57.364  65.075  59.624  0.00  0.00    +0.000 OA
ATOM     18  N   UNL     1      59.475  65.787  59.115  0.00  0.00    +0.000 N 
ATOM     19  C   UNL     1      58.554  64.836  59.457  0.00  0.00    +0.000 C 
ATOM     20  H   UNL     1      60.468  65.616  59.012  0.00  0.00    +0.000 HD
BRANCH  18  21
ATOM     21  O   UNL     1      59.022  67.117  58.975  0.00  0.00    +0.000 OA
ATOM     22  H   UNL     1      58.074  67.049  59.224  0.00  0.00    +0.000 HD
ENDBRANCH  18  21
ENDBRANCH  16  19
ENDBRANCH  14  15
ENDBRANCH   1  13
TORSDOF 6
ENDMDL
MODEL 9
REMARK VINA RESULT:      -4.3     16.401     20.281
REMARK  Name = Vorinostat.pdbqt.pdb
REMARK  6 active torsions:
REMARK  status: ('A' for Active; 'I' for Inactive)
REMARK    1  A    between atoms: C_1  and  C_2
REMARK    2  A    between atoms: C_3  and  C_4
REMARK    3  A    between atoms: C_5  and  C_8
REMARK    4  A    between atoms: N_7  and  O_10
REMARK    5  A    between atoms: C_12  and  C_15
REMARK    6  A    between atoms: N_14  and  C_17
REMARK                            x       y       z     vdW  Elec       q    Type
REMARK                         _______ _______ _______ _____ _____    ______ ____
ROOT
ATOM      1  C   UNL     1      58.571  51.453  58.339  0.00  0.00    +0.000 C 
ATOM      2  C   UNL     1      59.761  52.177  58.976  0.00  0.00    +0.000 C 
ENDROOT
BRANCH   2   5
ATOM      3  O   UNL     1      61.987  52.347  59.497  0.00  0.00    +0.000 OA
ATOM      4  N   UNL     1      60.552  54.048  60.188  0.00  0.00    +0.000 N 
ATOM      5  C   UNL     1      60.882  52.860  59.577  0.00  0.00    +0.000 C 
ATOM      6  H   UNL     1      59.579  54.329  60.162  0.00  0.00    +0.000 HD
BRANCH   4   7
ATOM      7  C   UNL     1      61.449  54.907  60.846  0.00  0.00    +0.000 A 
ATOM      8  C   UNL     1      61.562  54.791  62.232  0.00  0.00    +0.000 A 
ATOM      9  C   UNL     1      62.218  55.856  60.174  0.00  0.00    +0.000 A 
ATOM     10  C   UNL     1      62.435  55.616  62.939  0.00  0.00    +0.000 A 
ATOM     11  C   UNL     1      63.092  56.682  60.879  0.00  0.00    +0.000 A 
ATOM     12  C   UNL     1      63.200  56.561  62.262  0.00  0.00    +0.000 A 
ENDBRANCH   4   7
ENDBRANCH   2   5
BRANCH   1  13
ATOM     13  C   UNL     1      57.380  50.729  57.704  0.00  0.00    +0.000 C 
ATOM     14  C   UNL     1      56.190  50.004  57.067  0.00  0.00    +0.000 C 
BRANCH  14  15
ATOM     15  C   UNL     1      55.000  49.280  56.431  0.00  0.00    +0.000 C 
ATOM     16  C   UNL     1      53.811  48.556  55.793  0.00  0.00    +0.000 C 
BRANCH  16  19
ATOM     17  O   UNL     1      52.860  46.819  54.595  0.00  0.00    +0.000 OA
ATOM     18  N   UNL     1      51.477  48.476  55.344  0.00  0.00    +0.000 N 
ATOM     19  C   UNL     1      52.695  47.875  55.193  0.00  0.00    +0.000 C 
ATOM     20  H   UNL     1      51.316  49.327  55.868  0.00  0.00    +0.000 HD
BRANCH  18  21
ATOM     21  O   UNL     1      50.351  47.821  54.797  0.00  0.00    +0.000 OA
ATOM     22  H   UNL     1      49.668  47.952  55.491  0.00  0.00    +0.000 HD
ENDBRANCH  18  21
ENDBRANCH  16  19
ENDBRANCH  14  15
ENDBRANCH   1  13
TORSDOF 6
ENDMDL
