MODEL 1
REMARK VINA RESULT:      -8.0      0.000      0.000
REMARK  Name = 10074640_Masitinib.pdbqt.pdb
REMARK  6 active torsions:
REMARK  status: ('A' for Active; 'I' for Inactive)
REMARK    1  A    between atoms: C_1  and  N_22
REMARK    2  A    between atoms: C_2  and  N_9
REMARK    3  A    between atoms: C_12  and  C_16
REMARK    4  A    between atoms: C_23  and  C_30
REMARK    5  A    between atoms: C_25  and  C_31
REMARK    6  A    between atoms: C_31  and  N_32
REMARK                            x       y       z     vdW  Elec       q    Type
REMARK                         _______ _______ _______ _____ _____    ______ ____
ROOT
ATOM      1  C   UNL     1      20.498  13.120  17.004  0.00  0.00    +0.000 A 
ATOM      2  C   UNL     1      21.346  15.408  17.214  0.00  0.00    +0.000 A 
ATOM      3  C   UNL     1      21.110  14.132  17.744  0.00  0.00    +0.000 A 
ATOM      4  C   UNL     1      20.936  15.638  15.886  0.00  0.00    +0.000 A 
ATOM      5  C   UNL     1      20.126  13.373  15.685  0.00  0.00    +0.000 A 
ATOM      6  C   UNL     1      20.335  14.632  15.129  0.00  0.00    +0.000 A 
ATOM      7  C   UNL     1      21.142  16.992  15.239  0.00  0.00    +0.000 C 
ENDROOT
BRANCH   2   9
ATOM      8  S   UNL     1      22.446  18.413  19.674  0.00  0.00    +0.000 S 
ATOM      9  N   UNL     1      22.007  16.417  17.955  0.00  0.00    +0.000 N 
ATOM     10  N   UNL     1      20.361  16.918  19.598  0.00  0.00    +0.000 NA
ATOM     11  C   UNL     1      21.512  17.123  18.996  0.00  0.00    +0.000 A 
ATOM     12  C   UNL     1      20.164  17.827  20.621  0.00  0.00    +0.000 A 
ATOM     13  C   UNL     1      21.203  18.709  20.791  0.00  0.00    +0.000 A 
ATOM     14  H   UNL     1      22.963  16.587  17.651  0.00  0.00    +0.000 HD
BRANCH  12  16
ATOM     15  N   UNL     1      16.556  17.596  21.554  0.00  0.00    +0.000 NA
ATOM     16  C   UNL     1      18.968  17.815  21.433  0.00  0.00    +0.000 A 
ATOM     17  C   UNL     1      19.018  17.955  22.817  0.00  0.00    +0.000 A 
ATOM     18  C   UNL     1      17.718  17.646  20.856  0.00  0.00    +0.000 A 
ATOM     19  C   UNL     1      17.849  17.922  23.570  0.00  0.00    +0.000 A 
ATOM     20  C   UNL     1      16.654  17.741  22.893  0.00  0.00    +0.000 A 
ENDBRANCH  12  16
ENDBRANCH   2   9
BRANCH   1  22
ATOM     21  O   UNL     1      22.302  10.844  17.054  0.00  0.00    +0.000 OA
ATOM     22  N   UNL     1      20.256  11.832  17.523  0.00  0.00    +0.000 N 
ATOM     23  C   UNL     1      21.152  10.775  17.470  0.00  0.00    +0.000 C 
ATOM     24  H   UNL     1      19.366  11.700  17.991  0.00  0.00    +0.000 HD
BRANCH  23  30
ATOM     25  C   UNL     1      19.795   6.982  18.885  0.00  0.00    +0.000 A 
ATOM     26  C   UNL     1      19.244   8.144  19.420  0.00  0.00    +0.000 A 
ATOM     27  C   UNL     1      20.779   7.059  17.903  0.00  0.00    +0.000 A 
ATOM     28  C   UNL     1      19.680   9.389  18.971  0.00  0.00    +0.000 A 
ATOM     29  C   UNL     1      21.214   8.304  17.455  0.00  0.00    +0.000 A 
ATOM     30  C   UNL     1      20.667   9.474  17.989  0.00  0.00    +0.000 A 
BRANCH  25  31
ATOM     31  C   UNL     1      19.348   5.708  19.343  0.00  0.00    +0.000 C 
BRANCH  31  32
ATOM     32  N   UNL     1      18.889   4.407  19.813  0.00  0.00    +0.000 N 
ATOM     33  N   UNL     1      15.783   3.314  18.486  0.00  0.00    +0.000 N 
ATOM     34  C   UNL     1      17.486   4.586  20.279  0.00  0.00    +0.000 C 
ATOM     35  C   UNL     1      18.546   3.607  18.604  0.00  0.00    +0.000 C 
ATOM     36  C   UNL     1      16.126   4.100  19.702  0.00  0.00    +0.000 C 
ATOM     37  C   UNL     1      17.186   3.122  18.027  0.00  0.00    +0.000 C 
ATOM     38  C   UNL     1      15.301   2.016  18.938  0.00  0.00    +0.000 C 
ENDBRANCH  31  32
ENDBRANCH  25  31
ENDBRANCH  23  30
ENDBRANCH   1  22
TORSDOF 6
ENDMDL
MODEL 2
REMARK VINA RESULT:      -7.5     16.496     21.888
REMARK  Name = 10074640_Masitinib.pdbqt.pdb
REMARK  6 active torsions:
REMARK  status: ('A' for Active; 'I' for Inactive)
REMARK    1  A    between atoms: C_1  and  N_22
REMARK    2  A    between atoms: C_2  and  N_9
REMARK    3  A    between atoms: C_12  and  C_16
REMARK    4  A    between atoms: C_23  and  C_30
REMARK    5  A    between atoms: C_25  and  C_31
REMARK    6  A    between atoms: C_31  and  N_32
REMARK                            x       y       z     vdW  Elec       q    Type
REMARK                         _______ _______ _______ _____ _____    ______ ____
ROOT
ATOM      1  C   UNL     1      28.235   2.279   4.689  0.00  0.00    +0.000 A 
ATOM      2  C   UNL     1      27.513   0.003   5.236  0.00  0.00    +0.000 A 
ATOM      3  C   UNL     1      27.309   1.389   5.236  0.00  0.00    +0.000 A 
ATOM      4  C   UNL     1      28.707  -0.470   4.656  0.00  0.00    +0.000 A 
ATOM      5  C   UNL     1      29.394   1.776   4.102  0.00  0.00    +0.000 A 
ATOM      6  C   UNL     1      29.636   0.405   4.093  0.00  0.00    +0.000 A 
ATOM      7  C   UNL     1      29.013  -1.954   4.623  0.00  0.00    +0.000 C 
ENDROOT
BRANCH   2   9
ATOM      8  S   UNL     1      24.321  -2.345   6.001  0.00  0.00    +0.000 S 
ATOM      9  N   UNL     1      26.551  -0.897   5.752  0.00  0.00    +0.000 N 
ATOM     10  N   UNL     1      25.106  -1.136   3.878  0.00  0.00    +0.000 NA
ATOM     11  C   UNL     1      25.440  -1.351   5.131  0.00  0.00    +0.000 A 
ATOM     12  C   UNL     1      23.902  -1.740   3.571  0.00  0.00    +0.000 A 
ATOM     13  C   UNL     1      23.344  -2.435   4.616  0.00  0.00    +0.000 A 
ATOM     14  H   UNL     1      26.765  -1.230   6.690  0.00  0.00    +0.000 HD
BRANCH  12  16
ATOM     15  N   UNL     1      21.332  -1.782   0.863  0.00  0.00    +0.000 NA
ATOM     16  C   UNL     1      23.313  -1.646   2.254  0.00  0.00    +0.000 A 
ATOM     17  C   UNL     1      24.067  -1.304   1.134  0.00  0.00    +0.000 A 
ATOM     18  C   UNL     1      21.959  -1.880   2.061  0.00  0.00    +0.000 A 
ATOM     19  C   UNL     1      23.465  -1.206  -0.115  0.00  0.00    +0.000 A 
ATOM     20  C   UNL     1      22.105  -1.452  -0.194  0.00  0.00    +0.000 A 
ENDBRANCH  12  16
ENDBRANCH   2   9
BRANCH   1  22
ATOM     21  O   UNL     1      26.784   3.871   2.741  0.00  0.00    +0.000 OA
ATOM     22  N   UNL     1      28.042   3.675   4.681  0.00  0.00    +0.000 N 
ATOM     23  C   UNL     1      27.375   4.376   3.688  0.00  0.00    +0.000 C 
ATOM     24  H   UNL     1      28.401   4.179   5.484  0.00  0.00    +0.000 HD
BRANCH  23  30
ATOM     25  C   UNL     1      27.258   8.623   4.115  0.00  0.00    +0.000 A 
ATOM     26  C   UNL     1      28.099   8.059   3.158  0.00  0.00    +0.000 A 
ATOM     27  C   UNL     1      26.469   7.810   4.924  0.00  0.00    +0.000 A 
ATOM     28  C   UNL     1      28.150   6.674   3.011  0.00  0.00    +0.000 A 
ATOM     29  C   UNL     1      26.522   6.427   4.775  0.00  0.00    +0.000 A 
ATOM     30  C   UNL     1      27.364   5.853   3.819  0.00  0.00    +0.000 A 
BRANCH  25  31
ATOM     31  C   UNL     1      27.205  10.040   4.266  0.00  0.00    +0.000 C 
BRANCH  31  32
ATOM     32  N   UNL     1      27.152  11.488   4.422  0.00  0.00    +0.000 N 
ATOM     33  N   UNL     1      29.977  12.958   5.991  0.00  0.00    +0.000 N 
ATOM     34  C   UNL     1      27.461  11.780   5.849  0.00  0.00    +0.000 C 
ATOM     35  C   UNL     1      28.429  12.029   3.876  0.00  0.00    +0.000 C 
ATOM     36  C   UNL     1      28.696  12.433   6.535  0.00  0.00    +0.000 C 
ATOM     37  C   UNL     1      29.663  12.680   4.562  0.00  0.00    +0.000 C 
ATOM     38  C   UNL     1      29.951  14.404   6.159  0.00  0.00    +0.000 C 
ENDBRANCH  31  32
ENDBRANCH  25  31
ENDBRANCH  23  30
ENDBRANCH   1  22
TORSDOF 6
ENDMDL
MODEL 3
REMARK VINA RESULT:      -7.4     27.507     33.128
REMARK  Name = 10074640_Masitinib.pdbqt.pdb
REMARK  6 active torsions:
REMARK  status: ('A' for Active; 'I' for Inactive)
REMARK    1  A    between atoms: C_1  and  N_22
REMARK    2  A    between atoms: C_2  and  N_9
REMARK    3  A    between atoms: C_12  and  C_16
REMARK    4  A    between atoms: C_23  and  C_30
REMARK    5  A    between atoms: C_25  and  C_31
REMARK    6  A    between atoms: C_31  and  N_32
REMARK                            x       y       z     vdW  Elec       q    Type
REMARK                         _______ _______ _______ _____ _____    ______ ____
ROOT
ATOM      1  C   UNL     1      20.699  -9.259  44.496  0.00  0.00    +0.000 A 
ATOM      2  C   UNL     1      21.971 -10.807  45.904  0.00  0.00    +0.000 A 
ATOM      3  C   UNL     1      21.186 -10.537  44.776  0.00  0.00    +0.000 A 
ATOM      4  C   UNL     1      22.257  -9.727  46.762  0.00  0.00    +0.000 A 
ATOM      5  C   UNL     1      21.020  -8.208  45.352  0.00  0.00    +0.000 A 
ATOM      6  C   UNL     1      21.789  -8.441  46.489  0.00  0.00    +0.000 A 
ATOM      7  C   UNL     1      23.089  -9.933  48.012  0.00  0.00    +0.000 C 
ENDROOT
BRANCH   2   9
ATOM      8  S   UNL     1      24.157 -14.188  46.191  0.00  0.00    +0.000 S 
ATOM      9  N   UNL     1      22.498 -12.096  46.160  0.00  0.00    +0.000 N 
ATOM     10  N   UNL     1      24.772 -11.784  45.538  0.00  0.00    +0.000 NA
ATOM     11  C   UNL     1      23.759 -12.524  45.931  0.00  0.00    +0.000 A 
ATOM     12  C   UNL     1      25.918 -12.543  45.393  0.00  0.00    +0.000 A 
ATOM     13  C   UNL     1      25.752 -13.870  45.706  0.00  0.00    +0.000 A 
ATOM     14  H   UNL     1      21.826 -12.735  46.581  0.00  0.00    +0.000 HD
BRANCH  12  16
ATOM     15  N   UNL     1      29.266 -10.898  45.562  0.00  0.00    +0.000 NA
ATOM     16  C   UNL     1      27.170 -11.962  44.963  0.00  0.00    +0.000 A 
ATOM     17  C   UNL     1      27.541 -11.922  43.622  0.00  0.00    +0.000 A 
ATOM     18  C   UNL     1      28.062 -11.432  45.886  0.00  0.00    +0.000 A 
ATOM     19  C   UNL     1      28.761 -11.371  43.246  0.00  0.00    +0.000 A 
ATOM     20  C   UNL     1      29.579 -10.878  44.249  0.00  0.00    +0.000 A 
ENDBRANCH  12  16
ENDBRANCH   2   9
BRANCH   1  22
ATOM     21  O   UNL     1      21.315  -7.465  42.295  0.00  0.00    +0.000 OA
ATOM     22  N   UNL     1      19.910  -8.972  43.364  0.00  0.00    +0.000 N 
ATOM     23  C   UNL     1      20.249  -8.064  42.372  0.00  0.00    +0.000 C 
ATOM     24  H   UNL     1      19.050  -9.501  43.274  0.00  0.00    +0.000 HD
BRANCH  23  30
ATOM     25  C   UNL     1      17.365  -7.318  39.313  0.00  0.00    +0.000 A 
ATOM     26  C   UNL     1      17.190  -8.409  40.160  0.00  0.00    +0.000 A 
ATOM     27  C   UNL     1      18.469  -6.484  39.460  0.00  0.00    +0.000 A 
ATOM     28  C   UNL     1      18.125  -8.667  41.161  0.00  0.00    +0.000 A 
ATOM     29  C   UNL     1      19.404  -6.744  40.460  0.00  0.00    +0.000 A 
ATOM     30  C   UNL     1      19.236  -7.837  41.313  0.00  0.00    +0.000 A 
BRANCH  25  31
ATOM     31  C   UNL     1      16.407  -7.053  38.290  0.00  0.00    +0.000 C 
BRANCH  31  32
ATOM     32  N   UNL     1      15.430  -6.781  37.243  0.00  0.00    +0.000 N 
ATOM     33  N   UNL     1      16.682  -5.069  34.395  0.00  0.00    +0.000 N 
ATOM     34  C   UNL     1      15.538  -5.332  36.917  0.00  0.00    +0.000 C 
ATOM     35  C   UNL     1      16.021  -7.268  35.964  0.00  0.00    +0.000 C 
ATOM     36  C   UNL     1      16.079  -4.582  35.666  0.00  0.00    +0.000 C 
ATOM     37  C   UNL     1      16.562  -6.518  34.714  0.00  0.00    +0.000 C 
ATOM     38  C   UNL     1      15.728  -4.785  33.333  0.00  0.00    +0.000 C 
ENDBRANCH  31  32
ENDBRANCH  25  31
ENDBRANCH  23  30
ENDBRANCH   1  22
TORSDOF 6
ENDMDL
MODEL 4
REMARK VINA RESULT:      -7.1     35.583     38.402
REMARK  Name = 10074640_Masitinib.pdbqt.pdb
REMARK  6 active torsions:
REMARK  status: ('A' for Active; 'I' for Inactive)
REMARK    1  A    between atoms: C_1  and  N_22
REMARK    2  A    between atoms: C_2  and  N_9
REMARK    3  A    between atoms: C_12  and  C_16
REMARK    4  A    between atoms: C_23  and  C_30
REMARK    5  A    between atoms: C_25  and  C_31
REMARK    6  A    between atoms: C_31  and  N_32
REMARK                            x       y       z     vdW  Elec       q    Type
REMARK                         _______ _______ _______ _____ _____    ______ ____
ROOT
ATOM      1  C   UNL     1      49.901   0.494  39.421  0.00  0.00    +0.000 A 
ATOM      2  C   UNL     1      50.205  -1.662  40.543  0.00  0.00    +0.000 A 
ATOM      3  C   UNL     1      50.322  -0.837  39.416  0.00  0.00    +0.000 A 
ATOM      4  C   UNL     1      49.638  -1.092  41.700  0.00  0.00    +0.000 A 
ATOM      5  C   UNL     1      49.367   1.034  40.589  0.00  0.00    +0.000 A 
ATOM      6  C   UNL     1      49.226   0.241  41.724  0.00  0.00    +0.000 A 
ATOM      7  C   UNL     1      49.464  -1.916  42.960  0.00  0.00    +0.000 C 
ENDROOT
BRANCH   2   9
ATOM      8  S   UNL     1      51.085  -5.533  39.814  0.00  0.00    +0.000 S 
ATOM      9  N   UNL     1      50.672  -2.998  40.546  0.00  0.00    +0.000 N 
ATOM     10  N   UNL     1      50.110  -3.675  38.336  0.00  0.00    +0.000 NA
ATOM     11  C   UNL     1      50.563  -3.904  39.548  0.00  0.00    +0.000 A 
ATOM     12  C   UNL     1      50.129  -4.825  37.570  0.00  0.00    +0.000 A 
ATOM     13  C   UNL     1      50.629  -5.924  38.227  0.00  0.00    +0.000 A 
ATOM     14  H   UNL     1      51.152  -3.260  41.404  0.00  0.00    +0.000 HD
BRANCH  12  16
ATOM     15  N   UNL     1      47.966  -5.467  34.595  0.00  0.00    +0.000 NA
ATOM     16  C   UNL     1      49.674  -4.838  36.198  0.00  0.00    +0.000 A 
ATOM     17  C   UNL     1      50.404  -4.240  35.175  0.00  0.00    +0.000 A 
ATOM     18  C   UNL     1      48.472  -5.441  35.854  0.00  0.00    +0.000 A 
ATOM     19  C   UNL     1      49.927  -4.256  33.869  0.00  0.00    +0.000 A 
ATOM     20  C   UNL     1      48.712  -4.878  33.637  0.00  0.00    +0.000 A 
ENDBRANCH  12  16
ENDBRANCH   2   9
BRANCH   1  22
ATOM     21  O   UNL     1      48.724   0.130  36.791  0.00  0.00    +0.000 OA
ATOM     22  N   UNL     1      50.014   1.336  38.296  0.00  0.00    +0.000 N 
ATOM     23  C   UNL     1      49.460   1.073  37.052  0.00  0.00    +0.000 C 
ATOM     24  H   UNL     1      50.517   2.204  38.437  0.00  0.00    +0.000 HD
BRANCH  23  30
ATOM     25  C   UNL     1      50.341   3.790  33.878  0.00  0.00    +0.000 A 
ATOM     26  C   UNL     1      50.882   4.021  35.140  0.00  0.00    +0.000 A 
ATOM     27  C   UNL     1      49.519   2.688  33.657  0.00  0.00    +0.000 A 
ATOM     28  C   UNL     1      50.601   3.145  36.186  0.00  0.00    +0.000 A 
ATOM     29  C   UNL     1      49.238   1.814  34.703  0.00  0.00    +0.000 A 
ATOM     30  C   UNL     1      49.776   2.040  35.973  0.00  0.00    +0.000 A 
BRANCH  25  31
ATOM     31  C   UNL     1      50.630   4.686  32.807  0.00  0.00    +0.000 C 
BRANCH  31  32
ATOM     32  N   UNL     1      50.923   5.601  31.710  0.00  0.00    +0.000 N 
ATOM     33  N   UNL     1      50.256   4.346  28.457  0.00  0.00    +0.000 N 
ATOM     34  C   UNL     1      51.766   4.852  30.737  0.00  0.00    +0.000 C 
ATOM     35  C   UNL     1      49.707   5.650  30.851  0.00  0.00    +0.000 C 
ATOM     36  C   UNL     1      51.476   4.310  29.308  0.00  0.00    +0.000 C 
ATOM     37  C   UNL     1      49.417   5.107  29.423  0.00  0.00    +0.000 C 
ATOM     38  C   UNL     1      50.540   5.240  27.343  0.00  0.00    +0.000 C 
ENDBRANCH  31  32
ENDBRANCH  25  31
ENDBRANCH  23  30
ENDBRANCH   1  22
TORSDOF 6
ENDMDL
MODEL 5
REMARK VINA RESULT:      -7.0     29.431     33.687
REMARK  Name = 10074640_Masitinib.pdbqt.pdb
REMARK  6 active torsions:
REMARK  status: ('A' for Active; 'I' for Inactive)
REMARK    1  A    between atoms: C_1  and  N_22
REMARK    2  A    between atoms: C_2  and  N_9
REMARK    3  A    between atoms: C_12  and  C_16
REMARK    4  A    between atoms: C_23  and  C_30
REMARK    5  A    between atoms: C_25  and  C_31
REMARK    6  A    between atoms: C_31  and  N_32
REMARK                            x       y       z     vdW  Elec       q    Type
REMARK                         _______ _______ _______ _____ _____    ______ ____
ROOT
ATOM      1  C   UNL     1      31.073 -16.153  32.338  0.00  0.00    +0.000 A 
ATOM      2  C   UNL     1      33.392 -16.749  32.856  0.00  0.00    +0.000 A 
ATOM      3  C   UNL     1      32.036 -16.674  33.204  0.00  0.00    +0.000 A 
ATOM      4  C   UNL     1      33.756 -16.271  31.582  0.00  0.00    +0.000 A 
ATOM      5  C   UNL     1      31.463 -15.711  31.076  0.00  0.00    +0.000 A 
ATOM      6  C   UNL     1      32.803 -15.760  30.700  0.00  0.00    +0.000 A 
ATOM      7  C   UNL     1      35.202 -16.303  31.130  0.00  0.00    +0.000 C 
ENDROOT
BRANCH   2   9
ATOM      8  S   UNL     1      36.285 -17.548  35.554  0.00  0.00    +0.000 S 
ATOM      9  N   UNL     1      34.357 -17.318  33.721  0.00  0.00    +0.000 N 
ATOM     10  N   UNL     1      34.858 -15.461  35.120  0.00  0.00    +0.000 NA
ATOM     11  C   UNL     1      35.045 -16.693  34.702  0.00  0.00    +0.000 A 
ATOM     12  C   UNL     1      35.740 -15.137  36.133  0.00  0.00    +0.000 A 
ATOM     13  C   UNL     1      36.585 -16.161  36.485  0.00  0.00    +0.000 A 
ATOM     14  H   UNL     1      34.507 -18.313  33.567  0.00  0.00    +0.000 HD
BRANCH  12  16
ATOM     15  N   UNL     1      35.347 -12.497  38.744  0.00  0.00    +0.000 NA
ATOM     16  C   UNL     1      35.740 -13.834  36.760  0.00  0.00    +0.000 A 
ATOM     17  C   UNL     1      36.146 -12.690  36.078  0.00  0.00    +0.000 A 
ATOM     18  C   UNL     1      35.346 -13.681  38.081  0.00  0.00    +0.000 A 
ATOM     19  C   UNL     1      36.150 -11.455  36.717  0.00  0.00    +0.000 A 
ATOM     20  C   UNL     1      35.745 -11.416  38.041  0.00  0.00    +0.000 A 
ENDBRANCH  12  16
ENDBRANCH   2   9
BRANCH   1  22
ATOM     21  O   UNL     1      29.053 -18.228  32.110  0.00  0.00    +0.000 OA
ATOM     22  N   UNL     1      29.707 -16.073  32.673  0.00  0.00    +0.000 N 
ATOM     23  C   UNL     1      28.786 -17.095  32.492  0.00  0.00    +0.000 C 
ATOM     24  H   UNL     1      29.402 -15.207  33.103  0.00  0.00    +0.000 HD
BRANCH  23  30
ATOM     25  C   UNL     1      24.716 -16.266  33.481  0.00  0.00    +0.000 A 
ATOM     26  C   UNL     1      25.356 -15.482  32.525  0.00  0.00    +0.000 A 
ATOM     27  C   UNL     1      25.397 -17.305  34.109  0.00  0.00    +0.000 A 
ATOM     28  C   UNL     1      26.685 -15.738  32.195  0.00  0.00    +0.000 A 
ATOM     29  C   UNL     1      26.726 -17.559  33.779  0.00  0.00    +0.000 A 
ATOM     30  C   UNL     1      27.376 -16.776  32.821  0.00  0.00    +0.000 A 
BRANCH  25  31
ATOM     31  C   UNL     1      23.355 -16.005  33.818  0.00  0.00    +0.000 C 
BRANCH  31  32
ATOM     32  N   UNL     1      21.963 -15.739  34.161  0.00  0.00    +0.000 N 
ATOM     33  N   UNL     1      20.406 -13.142  32.308  0.00  0.00    +0.000 N 
ATOM     34  C   UNL     1      21.850 -14.273  34.399  0.00  0.00    +0.000 C 
ATOM     35  C   UNL     1      21.196 -15.745  32.884  0.00  0.00    +0.000 C 
ATOM     36  C   UNL     1      21.160 -13.137  33.591  0.00  0.00    +0.000 C 
ATOM     37  C   UNL     1      20.506 -14.609  32.076  0.00  0.00    +0.000 C 
ATOM     38  C   UNL     1      19.015 -12.855  32.630  0.00  0.00    +0.000 C 
ENDBRANCH  31  32
ENDBRANCH  25  31
ENDBRANCH  23  30
ENDBRANCH   1  22
TORSDOF 6
ENDMDL
MODEL 6
REMARK VINA RESULT:      -6.9     35.704     38.574
REMARK  Name = 10074640_Masitinib.pdbqt.pdb
REMARK  6 active torsions:
REMARK  status: ('A' for Active; 'I' for Inactive)
REMARK    1  A    between atoms: C_1  and  N_22
REMARK    2  A    between atoms: C_2  and  N_9
REMARK    3  A    between atoms: C_12  and  C_16
REMARK    4  A    between atoms: C_23  and  C_30
REMARK    5  A    between atoms: C_25  and  C_31
REMARK    6  A    between atoms: C_31  and  N_32
REMARK                            x       y       z     vdW  Elec       q    Type
REMARK                         _______ _______ _______ _____ _____    ______ ____
ROOT
ATOM      1  C   UNL     1      49.840   0.782  39.153  0.00  0.00    +0.000 A 
ATOM      2  C   UNL     1      50.060  -1.360  40.319  0.00  0.00    +0.000 A 
ATOM      3  C   UNL     1      50.173  -0.573  39.165  0.00  0.00    +0.000 A 
ATOM      4  C   UNL     1      49.589  -0.726  41.485  0.00  0.00    +0.000 A 
ATOM      5  C   UNL     1      49.399   1.384  40.329  0.00  0.00    +0.000 A 
ATOM      6  C   UNL     1      49.264   0.631  41.492  0.00  0.00    +0.000 A 
ATOM      7  C   UNL     1      49.424  -1.506  42.775  0.00  0.00    +0.000 C 
ENDROOT
BRANCH   2   9
ATOM      8  S   UNL     1      50.720  -5.279  39.616  0.00  0.00    +0.000 S 
ATOM      9  N   UNL     1      50.440  -2.723  40.337  0.00  0.00    +0.000 N 
ATOM     10  N   UNL     1      49.927  -3.364  38.104  0.00  0.00    +0.000 NA
ATOM     11  C   UNL     1      50.315  -3.620  39.334  0.00  0.00    +0.000 A 
ATOM     12  C   UNL     1      49.904  -4.512  37.337  0.00  0.00    +0.000 A 
ATOM     13  C   UNL     1      50.305  -5.641  38.010  0.00  0.00    +0.000 A 
ATOM     14  H   UNL     1      50.867  -3.016  41.213  0.00  0.00    +0.000 HD
BRANCH  12  16
ATOM     15  N   UNL     1      48.520  -3.278  34.096  0.00  0.00    +0.000 NA
ATOM     16  C   UNL     1      49.505  -4.496  35.948  0.00  0.00    +0.000 A 
ATOM     17  C   UNL     1      49.727  -5.582  35.106  0.00  0.00    +0.000 A 
ATOM     18  C   UNL     1      48.895  -3.378  35.396  0.00  0.00    +0.000 A 
ATOM     19  C   UNL     1      49.345  -5.525  33.770  0.00  0.00    +0.000 A 
ATOM     20  C   UNL     1      48.752  -4.358  33.320  0.00  0.00    +0.000 A 
ENDBRANCH  12  16
ENDBRANCH   2   9
BRANCH   1  22
ATOM     21  O   UNL     1      48.751   0.274  36.508  0.00  0.00    +0.000 OA
ATOM     22  N   UNL     1      49.950   1.586  38.000  0.00  0.00    +0.000 N 
ATOM     23  C   UNL     1      49.442   1.256  36.753  0.00  0.00    +0.000 C 
ATOM     24  H   UNL     1      50.414   2.479  38.122  0.00  0.00    +0.000 HD
BRANCH  23  30
ATOM     25  C   UNL     1      50.294   3.892  33.504  0.00  0.00    +0.000 A 
ATOM     26  C   UNL     1      50.867   4.140  34.749  0.00  0.00    +0.000 A 
ATOM     27  C   UNL     1      49.451   2.800  33.324  0.00  0.00    +0.000 A 
ATOM     28  C   UNL     1      50.595   3.291  35.819  0.00  0.00    +0.000 A 
ATOM     29  C   UNL     1      49.179   1.952  34.395  0.00  0.00    +0.000 A 
ATOM     30  C   UNL     1      49.749   2.195  35.647  0.00  0.00    +0.000 A 
BRANCH  25  31
ATOM     31  C   UNL     1      50.574   4.761  32.408  0.00  0.00    +0.000 C 
BRANCH  31  32
ATOM     32  N   UNL     1      50.857   5.648  31.287  0.00  0.00    +0.000 N 
ATOM     33  N   UNL     1      53.229   8.210  31.931  0.00  0.00    +0.000 N 
ATOM     34  C   UNL     1      50.709   7.042  31.792  0.00  0.00    +0.000 C 
ATOM     35  C   UNL     1      52.339   5.698  31.139  0.00  0.00    +0.000 C 
ATOM     36  C   UNL     1      51.747   8.167  32.065  0.00  0.00    +0.000 C 
ATOM     37  C   UNL     1      53.377   6.823  31.413  0.00  0.00    +0.000 C 
ATOM     38  C   UNL     1      53.531   9.112  30.828  0.00  0.00    +0.000 C 
ENDBRANCH  31  32
ENDBRANCH  25  31
ENDBRANCH  23  30
ENDBRANCH   1  22
TORSDOF 6
ENDMDL
MODEL 7
REMARK VINA RESULT:      -6.9     31.220     36.002
REMARK  Name = 10074640_Masitinib.pdbqt.pdb
REMARK  6 active torsions:
REMARK  status: ('A' for Active; 'I' for Inactive)
REMARK    1  A    between atoms: C_1  and  N_22
REMARK    2  A    between atoms: C_2  and  N_9
REMARK    3  A    between atoms: C_12  and  C_16
REMARK    4  A    between atoms: C_23  and  C_30
REMARK    5  A    between atoms: C_25  and  C_31
REMARK    6  A    between atoms: C_31  and  N_32
REMARK                            x       y       z     vdW  Elec       q    Type
REMARK                         _______ _______ _______ _____ _____    ______ ____
ROOT
ATOM      1  C   UNL     1      35.755 -13.752  36.840  0.00  0.00    +0.000 A 
ATOM      2  C   UNL     1      34.935 -15.817  35.810  0.00  0.00    +0.000 A 
ATOM      3  C   UNL     1      34.881 -14.840  36.813  0.00  0.00    +0.000 A 
ATOM      4  C   UNL     1      35.919 -15.661  34.813  0.00  0.00    +0.000 A 
ATOM      5  C   UNL     1      36.700 -13.615  35.826  0.00  0.00    +0.000 A 
ATOM      6  C   UNL     1      36.790 -14.572  34.819  0.00  0.00    +0.000 A 
ATOM      7  C   UNL     1      36.054 -16.678  33.698  0.00  0.00    +0.000 C 
ENDROOT
BRANCH   2   9
ATOM      8  S   UNL     1      31.821 -18.324  35.255  0.00  0.00    +0.000 S 
ATOM      9  N   UNL     1      34.019 -16.895  35.763  0.00  0.00    +0.000 N 
ATOM     10  N   UNL     1      32.436 -16.072  34.189  0.00  0.00    +0.000 NA
ATOM     11  C   UNL     1      32.865 -16.957  35.061  0.00  0.00    +0.000 A 
ATOM     12  C   UNL     1      31.215 -16.443  33.661  0.00  0.00    +0.000 A 
ATOM     13  C   UNL     1      30.741 -17.641  34.138  0.00  0.00    +0.000 A 
ATOM     14  H   UNL     1      34.306 -17.699  36.317  0.00  0.00    +0.000 HD
BRANCH  12  16
ATOM     15  N   UNL     1      30.648 -14.255  30.689  0.00  0.00    +0.000 NA
ATOM     16  C   UNL     1      30.527 -15.631  32.682  0.00  0.00    +0.000 A 
ATOM     17  C   UNL     1      29.146 -15.454  32.711  0.00  0.00    +0.000 A 
ATOM     18  C   UNL     1      31.226 -15.007  31.659  0.00  0.00    +0.000 A 
ATOM     19  C   UNL     1      28.516 -14.680  31.744  0.00  0.00    +0.000 A 
ATOM     20  C   UNL     1      29.308 -14.109  30.762  0.00  0.00    +0.000 A 
ENDBRANCH  12  16
ENDBRANCH   2   9
BRANCH   1  22
ATOM     21  O   UNL     1      35.989 -10.874  36.519  0.00  0.00    +0.000 OA
ATOM     22  N   UNL     1      35.711 -12.761  37.841  0.00  0.00    +0.000 N 
ATOM     23  C   UNL     1      35.878 -11.402  37.619  0.00  0.00    +0.000 C 
ATOM     24  H   UNL     1      35.514 -13.085  38.781  0.00  0.00    +0.000 HD
BRANCH  23  30
ATOM     25  C   UNL     1      35.886  -8.982  41.136  0.00  0.00    +0.000 A 
ATOM     26  C   UNL     1      35.949  -8.367  39.888  0.00  0.00    +0.000 A 
ATOM     27  C   UNL     1      35.826 -10.369  41.234  0.00  0.00    +0.000 A 
ATOM     28  C   UNL     1      35.950  -9.144  38.732  0.00  0.00    +0.000 A 
ATOM     29  C   UNL     1      35.829 -11.145  40.078  0.00  0.00    +0.000 A 
ATOM     30  C   UNL     1      35.893 -10.535  38.822  0.00  0.00    +0.000 A 
BRANCH  25  31
ATOM     31  C   UNL     1      35.883  -8.186  42.320  0.00  0.00    +0.000 C 
BRANCH  31  32
ATOM     32  N   UNL     1      35.877  -7.373  43.529  0.00  0.00    +0.000 N 
ATOM     33  N   UNL     1      36.666  -9.096  46.531  0.00  0.00    +0.000 N 
ATOM     34  C   UNL     1      35.027  -8.084  44.524  0.00  0.00    +0.000 C 
ATOM     35  C   UNL     1      37.169  -7.625  44.226  0.00  0.00    +0.000 C 
ATOM     36  C   UNL     1      35.372  -8.832  45.844  0.00  0.00    +0.000 C 
ATOM     37  C   UNL     1      37.514  -8.373  45.545  0.00  0.00    +0.000 C 
ATOM     38  C   UNL     1      36.667  -8.307  47.755  0.00  0.00    +0.000 C 
ENDBRANCH  31  32
ENDBRANCH  25  31
ENDBRANCH  23  30
ENDBRANCH   1  22
TORSDOF 6
ENDMDL
MODEL 8
REMARK VINA RESULT:      -6.6     29.792     33.567
REMARK  Name = 10074640_Masitinib.pdbqt.pdb
REMARK  6 active torsions:
REMARK  status: ('A' for Active; 'I' for Inactive)
REMARK    1  A    between atoms: C_1  and  N_22
REMARK    2  A    between atoms: C_2  and  N_9
REMARK    3  A    between atoms: C_12  and  C_16
REMARK    4  A    between atoms: C_23  and  C_30
REMARK    5  A    between atoms: C_25  and  C_31
REMARK    6  A    between atoms: C_31  and  N_32
REMARK                            x       y       z     vdW  Elec       q    Type
REMARK                         _______ _______ _______ _____ _____    ______ ____
ROOT
ATOM      1  C   UNL     1      47.513  -5.950   7.361  0.00  0.00    +0.000 A 
ATOM      2  C   UNL     1      49.418  -7.379   7.934  0.00  0.00    +0.000 A 
ATOM      3  C   UNL     1      48.385  -6.505   8.299  0.00  0.00    +0.000 A 
ATOM      4  C   UNL     1      49.548  -7.683   6.565  0.00  0.00    +0.000 A 
ATOM      5  C   UNL     1      47.655  -6.290   6.017  0.00  0.00    +0.000 A 
ATOM      6  C   UNL     1      48.676  -7.147   5.617  0.00  0.00    +0.000 A 
ATOM      7  C   UNL     1      50.645  -8.611   6.082  0.00  0.00    +0.000 C 
ENDROOT
BRANCH   2   9
ATOM      8  S   UNL     1      51.544  -8.451  11.193  0.00  0.00    +0.000 S 
ATOM      9  N   UNL     1      50.272  -7.972   8.894  0.00  0.00    +0.000 N 
ATOM     10  N   UNL     1      49.501  -6.929  10.888  0.00  0.00    +0.000 NA
ATOM     11  C   UNL     1      50.323  -7.705  10.219  0.00  0.00    +0.000 A 
ATOM     12  C   UNL     1      49.844  -6.871  12.225  0.00  0.00    +0.000 A 
ATOM     13  C   UNL     1      50.934  -7.641  12.554  0.00  0.00    +0.000 A 
ATOM     14  H   UNL     1      50.887  -8.685   8.509  0.00  0.00    +0.000 HD
BRANCH  12  16
ATOM     15  N   UNL     1      47.043  -4.910  13.724  0.00  0.00    +0.000 NA
ATOM     16  C   UNL     1      49.096  -6.077  13.174  0.00  0.00    +0.000 A 
ATOM     17  C   UNL     1      49.613  -5.741  14.421  0.00  0.00    +0.000 A 
ATOM     18  C   UNL     1      47.816  -5.633  12.875  0.00  0.00    +0.000 A 
ATOM     19  C   UNL     1      48.859  -4.990  15.316  0.00  0.00    +0.000 A 
ATOM     20  C   UNL     1      47.590  -4.604  14.920  0.00  0.00    +0.000 A 
ENDBRANCH  12  16
ENDBRANCH   2   9
BRANCH   1  22
ATOM     21  O   UNL     1      47.703  -3.135   8.051  0.00  0.00    +0.000 OA
ATOM     22  N   UNL     1      46.469  -5.071   7.713  0.00  0.00    +0.000 N 
ATOM     23  C   UNL     1      46.641  -3.744   8.078  0.00  0.00    +0.000 C 
ATOM     24  H   UNL     1      45.530  -5.449   7.661  0.00  0.00    +0.000 HD
BRANCH  23  30
ATOM     25  C   UNL     1      43.118  -1.714   9.383  0.00  0.00    +0.000 A 
ATOM     26  C   UNL     1      43.619  -1.455   8.109  0.00  0.00    +0.000 A 
ATOM     27  C   UNL     1      43.762  -2.620  10.220  0.00  0.00    +0.000 A 
ATOM     28  C   UNL     1      44.770  -2.108   7.672  0.00  0.00    +0.000 A 
ATOM     29  C   UNL     1      44.912  -3.271   9.782  0.00  0.00    +0.000 A 
ATOM     30  C   UNL     1      45.422  -3.016   8.506  0.00  0.00    +0.000 A 
BRANCH  25  31
ATOM     31  C   UNL     1      41.940  -1.047   9.831  0.00  0.00    +0.000 C 
BRANCH  31  32
ATOM     32  N   UNL     1      40.736  -0.366  10.291  0.00  0.00    +0.000 N 
ATOM     33  N   UNL     1      38.111  -0.134   7.912  0.00  0.00    +0.000 N 
ATOM     34  C   UNL     1      40.405   0.664   9.267  0.00  0.00    +0.000 C 
ATOM     35  C   UNL     1      39.587  -1.263   9.981  0.00  0.00    +0.000 C 
ATOM     36  C   UNL     1      39.250   0.770   8.231  0.00  0.00    +0.000 C 
ATOM     37  C   UNL     1      38.432  -1.157   8.944  0.00  0.00    +0.000 C 
ATOM     38  C   UNL     1      36.896   0.542   8.345  0.00  0.00    +0.000 C 
ENDBRANCH  31  32
ENDBRANCH  25  31
ENDBRANCH  23  30
ENDBRANCH   1  22
TORSDOF 6
ENDMDL
MODEL 9
REMARK VINA RESULT:      -6.5     31.151     36.390
REMARK  Name = 10074640_Masitinib.pdbqt.pdb
REMARK  6 active torsions:
REMARK  status: ('A' for Active; 'I' for Inactive)
REMARK    1  A    between atoms: C_1  and  N_22
REMARK    2  A    between atoms: C_2  and  N_9
REMARK    3  A    between atoms: C_12  and  C_16
REMARK    4  A    between atoms: C_23  and  C_30
REMARK    5  A    between atoms: C_25  and  C_31
REMARK    6  A    between atoms: C_31  and  N_32
REMARK                            x       y       z     vdW  Elec       q    Type
REMARK                         _______ _______ _______ _____ _____    ______ ____
ROOT
ATOM      1  C   UNL     1      35.478 -13.654  37.149  0.00  0.00    +0.000 A 
ATOM      2  C   UNL     1      35.192 -15.573  35.655  0.00  0.00    +0.000 A 
ATOM      3  C   UNL     1      34.845 -14.849  36.803  0.00  0.00    +0.000 A 
ATOM      4  C   UNL     1      36.219 -15.045  34.848  0.00  0.00    +0.000 A 
ATOM      5  C   UNL     1      36.474 -13.147  36.317  0.00  0.00    +0.000 A 
ATOM      6  C   UNL     1      36.852 -13.845  35.173  0.00  0.00    +0.000 A 
ATOM      7  C   UNL     1      36.664 -15.770  33.594  0.00  0.00    +0.000 C 
ENDROOT
BRANCH   2   9
ATOM      8  S   UNL     1      32.750 -18.422  34.167  0.00  0.00    +0.000 S 
ATOM      9  N   UNL     1      34.517 -16.761  35.286  0.00  0.00    +0.000 N 
ATOM     10  N   UNL     1      33.107 -15.957  33.547  0.00  0.00    +0.000 NA
ATOM     11  C   UNL     1      33.536 -16.892  34.365  0.00  0.00    +0.000 A 
ATOM     12  C   UNL     1      32.088 -16.427  32.741  0.00  0.00    +0.000 A 
ATOM     13  C   UNL     1      31.773 -17.747  32.954  0.00  0.00    +0.000 A 
ATOM     14  H   UNL     1      34.849 -17.588  35.777  0.00  0.00    +0.000 HD
BRANCH  12  16
ATOM     15  N   UNL     1      29.894 -13.782  31.282  0.00  0.00    +0.000 NA
ATOM     16  C   UNL     1      31.441 -15.587  31.758  0.00  0.00    +0.000 A 
ATOM     17  C   UNL     1      31.724 -15.693  30.399  0.00  0.00    +0.000 A 
ATOM     18  C   UNL     1      30.518 -14.625  32.142  0.00  0.00    +0.000 A 
ATOM     19  C   UNL     1      31.096 -14.858  29.483  0.00  0.00    +0.000 A 
ATOM     20  C   UNL     1      30.197 -13.926  29.975  0.00  0.00    +0.000 A 
ENDBRANCH  12  16
ENDBRANCH   2   9
BRANCH   1  22
ATOM     21  O   UNL     1      36.996 -13.383  39.611  0.00  0.00    +0.000 OA
ATOM     22  N   UNL     1      35.139 -12.915  38.300  0.00  0.00    +0.000 N 
ATOM     23  C   UNL     1      35.894 -12.869  39.463  0.00  0.00    +0.000 C 
ATOM     24  H   UNL     1      34.293 -12.361  38.241  0.00  0.00    +0.000 HD
BRANCH  23  30
ATOM     25  C   UNL     1      34.145 -10.739  42.724  0.00  0.00    +0.000 A 
ATOM     26  C   UNL     1      35.164 -10.138  41.988  0.00  0.00    +0.000 A 
ATOM     27  C   UNL     1      33.706 -12.020  42.401  0.00  0.00    +0.000 A 
ATOM     28  C   UNL     1      35.746 -10.823  40.924  0.00  0.00    +0.000 A 
ATOM     29  C   UNL     1      34.290 -12.703  41.337  0.00  0.00    +0.000 A 
ATOM     30  C   UNL     1      35.314 -12.108  40.596  0.00  0.00    +0.000 A 
BRANCH  25  31
ATOM     31  C   UNL     1      33.547 -10.038  43.812  0.00  0.00    +0.000 C 
BRANCH  31  32
ATOM     32  N   UNL     1      32.938  -9.321  44.926  0.00  0.00    +0.000 N 
ATOM     33  N   UNL     1      34.883  -9.177  47.893  0.00  0.00    +0.000 N 
ATOM     34  C   UNL     1      33.018 -10.219  46.112  0.00  0.00    +0.000 C 
ATOM     35  C   UNL     1      33.948  -8.339  45.411  0.00  0.00    +0.000 C 
ATOM     36  C   UNL     1      33.863 -10.151  47.416  0.00  0.00    +0.000 C 
ATOM     37  C   UNL     1      34.794  -8.272  46.714  0.00  0.00    +0.000 C 
ATOM     38  C   UNL     1      34.299  -8.466  49.021  0.00  0.00    +0.000 C 
ENDBRANCH  31  32
ENDBRANCH  25  31
ENDBRANCH  23  30
ENDBRANCH   1  22
TORSDOF 6
ENDMDL
