MODEL 1
REMARK VINA RESULT:      -8.3      0.000      0.000
REMARK  Name = 101808842_CandidaspongiolideB.pdbqt.pdb
REMARK  12 active torsions:
REMARK  status: ('A' for Active; 'I' for Inactive)
REMARK    1  A    between atoms: C_6  and  C_42
REMARK    2  A    between atoms: C_7  and  O_28
REMARK    3  A    between atoms: C_10  and  O_30
REMARK    4  A    between atoms: C_13  and  O_32
REMARK    5  A    between atoms: C_19  and  O_34
REMARK    6  A    between atoms: C_20  and  O_38
REMARK    7  A    between atoms: C_21  and  O_36
REMARK    8  A    between atoms: O_38  and  C_40
REMARK    9  A    between atoms: C_42  and  C_44
REMARK   10  A    between atoms: C_42  and  O_52
REMARK   11  A    between atoms: C_45  and  C_47
REMARK   12  A    between atoms: C_47  and  C_49
REMARK                            x       y       z     vdW  Elec       q    Type
REMARK                         _______ _______ _______ _____ _____    ______ ____
ROOT
ATOM      1  O   UNL     1      43.957   3.743  11.085  0.00  0.00    +0.000 OA
ATOM      2  O   UNL     1      38.702   4.804  15.383  0.00  0.00    +0.000 OA
ATOM      3  O   UNL     1      41.266   6.157  12.283  0.00  0.00    +0.000 OA
ATOM      4  O   UNL     1      38.513   4.013  13.224  0.00  0.00    +0.000 OA
ATOM      5  O   UNL     1      39.208   1.160  12.844  0.00  0.00    +0.000 OA
ATOM      6  C   UNL     1      41.024   6.073  14.610  0.00  0.00    +0.000 C 
ATOM      7  C   UNL     1      42.690   4.497  13.414  0.00  0.00    +0.000 C 
ATOM      8  C   UNL     1      41.630   5.616  13.328  0.00  0.00    +0.000 C 
ATOM      9  C   UNL     1      39.808   5.465  15.035  0.00  0.00    +0.000 C 
ATOM     10  C   UNL     1      42.021   3.109  13.356  0.00  0.00    +0.000 C 
ATOM     11  C   UNL     1      42.454   2.268  12.288  0.00  0.00    +0.000 C 
ATOM     12  C   UNL     1      43.519   4.416  12.170  0.00  0.00    +0.000 C 
ATOM     13  C   UNL     1      43.377   2.376  11.115  0.00  0.00    +0.000 C 
ATOM     14  C   UNL     1      42.633   2.111   9.798  0.00  0.00    +0.000 C 
ATOM     15  C   UNL     1      41.207   2.091   9.749  0.00  0.00    +0.000 C 
ATOM     16  C   UNL     1      43.271   1.740   8.463  0.00  0.00    +0.000 C 
ATOM     17  C   UNL     1      38.181   4.019  14.400  0.00  0.00    +0.000 C 
ATOM     18  C   UNL     1      39.911   2.060   9.784  0.00  0.00    +0.000 C 
ATOM     19  C   UNL     1      37.187   3.075  14.963  0.00  0.00    +0.000 C 
ATOM     20  C   UNL     1      39.185   0.820   9.929  0.00  0.00    +0.000 C 
ATOM     21  C   UNL     1      36.791   1.880  14.244  0.00  0.00    +0.000 C 
ATOM     22  C   UNL     1      38.068   0.571  10.839  0.00  0.00    +0.000 C 
ATOM     23  C   UNL     1      36.862   1.663  12.806  0.00  0.00    +0.000 C 
ATOM     24  C   UNL     1      38.139   1.143  12.224  0.00  0.00    +0.000 C 
ATOM     25  C   UNL     1      39.210   3.386   9.869  0.00  0.00    +0.000 C 
ATOM     26  C   UNL     1      37.132  -0.608  10.580  0.00  0.00    +0.000 C 
ATOM     27  C   UNL     1      35.737   2.203  11.930  0.00  0.00    +0.000 C 
ENDROOT
BRANCH   7  28
ATOM     28  O   UNL     1      43.552   4.542  14.533  0.00  0.00    +0.000 OA
ATOM     29  H   UNL     1      43.141   3.986  15.220  0.00  0.00    +0.000 HD
ENDBRANCH   7  28
BRANCH  10  30
ATOM     30  O   UNL     1      41.088   2.697  14.272  0.00  0.00    +0.000 OA
ATOM     31  H   UNL     1      41.427   2.783  15.188  0.00  0.00    +0.000 HD
ENDBRANCH  10  30
BRANCH  13  32
ATOM     32  O   UNL     1      44.434   1.439  11.305  0.00  0.00    +0.000 OA
ATOM     33  H   UNL     1      45.160   1.742  10.736  0.00  0.00    +0.000 HD
ENDBRANCH  13  32
BRANCH  19  34
ATOM     34  O   UNL     1      36.700   3.205  16.250  0.00  0.00    +0.000 OA
ATOM     35  H   UNL     1      37.332   3.638  16.860  0.00  0.00    +0.000 HD
ENDBRANCH  19  34
BRANCH  21  36
ATOM     36  O   UNL     1      35.950   1.034  14.947  0.00  0.00    +0.000 OA
ATOM     37  C   UNL     1      36.534  -0.235  15.106  0.00  0.00    +0.000 C 
ENDBRANCH  21  36
BRANCH  20  38
ATOM     38  O   UNL     1      39.408  -0.123   8.897  0.00  0.00    +0.000 OA
BRANCH  38  40
ATOM     39  O   UNL     1      37.889   0.770   7.372  0.00  0.00    +0.000 OA
ATOM     40  C   UNL     1      38.989   0.363   7.700  0.00  0.00    +0.000 C 
ATOM     41  C   UNL     1      40.001   0.328   6.617  0.00  0.00    +0.000 C 
ENDBRANCH  38  40
ENDBRANCH  20  38
BRANCH   6  42
ATOM     42  C   UNL     1      41.567   7.250  15.250  0.00  0.00    +0.000 C 
BRANCH  42  44
ATOM     43  O   UNL     1      41.264   6.531  17.655  0.00  0.00    +0.000 OA
ATOM     44  C   UNL     1      41.265   7.589  16.666  0.00  0.00    +0.000 C 
ATOM     45  C   UNL     1      42.380   7.316  17.566  0.00  0.00    +0.000 C 
ATOM     46  C   UNL     1      40.084   8.569  16.970  0.00  0.00    +0.000 C 
BRANCH  45  47
ATOM     47  C   UNL     1      42.713   8.112  18.709  0.00  0.00    +0.000 C 
ATOM     48  C   UNL     1      43.310   9.485  18.531  0.00  0.00    +0.000 C 
BRANCH  47  49
ATOM     49  C   UNL     1      42.102   7.855  19.963  0.00  0.00    +0.000 C 
ATOM     50  C   UNL     1      41.525   7.647  20.992  0.00  0.00    +0.000 C 
ATOM     51  C   UNL     1      40.684   7.419  22.252  0.00  0.00    +0.000 C 
ENDBRANCH  47  49
ENDBRANCH  45  47
ENDBRANCH  42  44
BRANCH  42  52
ATOM     52  O   UNL     1      42.413   8.019  14.461  0.00  0.00    +0.000 OA
ATOM     53  H   UNL     1      42.410   7.728  13.527  0.00  0.00    +0.000 HD
ENDBRANCH  42  52
ENDBRANCH   6  42
TORSDOF 12
ENDMDL
MODEL 2
REMARK VINA RESULT:      -7.0     19.073     23.678
REMARK  Name = 101808842_CandidaspongiolideB.pdbqt.pdb
REMARK  12 active torsions:
REMARK  status: ('A' for Active; 'I' for Inactive)
REMARK    1  A    between atoms: C_6  and  C_42
REMARK    2  A    between atoms: C_7  and  O_28
REMARK    3  A    between atoms: C_10  and  O_30
REMARK    4  A    between atoms: C_13  and  O_32
REMARK    5  A    between atoms: C_19  and  O_34
REMARK    6  A    between atoms: C_20  and  O_38
REMARK    7  A    between atoms: C_21  and  O_36
REMARK    8  A    between atoms: O_38  and  C_40
REMARK    9  A    between atoms: C_42  and  C_44
REMARK   10  A    between atoms: C_42  and  O_52
REMARK   11  A    between atoms: C_45  and  C_47
REMARK   12  A    between atoms: C_47  and  C_49
REMARK                            x       y       z     vdW  Elec       q    Type
REMARK                         _______ _______ _______ _____ _____    ______ ____
ROOT
ATOM      1  O   UNL     1      49.568   5.009  29.730  0.00  0.00    +0.000 OA
ATOM      2  O   UNL     1      50.428  -0.753  33.373  0.00  0.00    +0.000 OA
ATOM      3  O   UNL     1      51.579   1.808  30.189  0.00  0.00    +0.000 OA
ATOM      4  O   UNL     1      51.528   1.238  33.757  0.00  0.00    +0.000 OA
ATOM      5  O   UNL     1      49.948   3.322  35.146  0.00  0.00    +0.000 OA
ATOM      6  C   UNL     1      50.190   0.003  30.732  0.00  0.00    +0.000 C 
ATOM      7  C   UNL     1      49.196   2.373  30.443  0.00  0.00    +0.000 C 
ATOM      8  C   UNL     1      50.428   1.443  30.434  0.00  0.00    +0.000 C 
ATOM      9  C   UNL     1      50.330  -0.438  32.079  0.00  0.00    +0.000 C 
ATOM     10  C   UNL     1      48.937   2.919  31.861  0.00  0.00    +0.000 C 
ATOM     11  C   UNL     1      48.949   4.342  31.977  0.00  0.00    +0.000 C 
ATOM     12  C   UNL     1      49.465   3.664  29.733  0.00  0.00    +0.000 C 
ATOM     13  C   UNL     1      49.211   5.511  31.082  0.00  0.00    +0.000 C 
ATOM     14  C   UNL     1      50.359   6.376  31.622  0.00  0.00    +0.000 C 
ATOM     15  C   UNL     1      51.217   5.899  32.657  0.00  0.00    +0.000 C 
ATOM     16  C   UNL     1      50.654   7.822  31.236  0.00  0.00    +0.000 C 
ATOM     17  C   UNL     1      50.973   0.223  34.150  0.00  0.00    +0.000 C 
ATOM     18  C   UNL     1      51.940   5.411  33.617  0.00  0.00    +0.000 C 
ATOM     19  C   UNL     1      50.728  -0.060  35.584  0.00  0.00    +0.000 C 
ATOM     20  C   UNL     1      51.658   5.704  35.003  0.00  0.00    +0.000 C 
ATOM     21  C   UNL     1      50.828   0.983  36.586  0.00  0.00    +0.000 C 
ATOM     22  C   UNL     1      51.608   4.738  36.099  0.00  0.00    +0.000 C 
ATOM     23  C   UNL     1      51.598   2.214  36.490  0.00  0.00    +0.000 C 
ATOM     24  C   UNL     1      50.964   3.407  35.844  0.00  0.00    +0.000 C 
ATOM     25  C   UNL     1      52.955   4.372  33.233  0.00  0.00    +0.000 C 
ATOM     26  C   UNL     1      51.738   5.225  37.541  0.00  0.00    +0.000 C 
ATOM     27  C   UNL     1      53.087   2.172  36.816  0.00  0.00    +0.000 C 
ENDROOT
BRANCH   7  28
ATOM     28  O   UNL     1      47.996   1.820  29.940  0.00  0.00    +0.000 OA
ATOM     29  H   UNL     1      48.183   1.546  29.023  0.00  0.00    +0.000 HD
ENDBRANCH   7  28
BRANCH  10  30
ATOM     30  O   UNL     1      48.694   2.105  32.936  0.00  0.00    +0.000 OA
ATOM     31  H   UNL     1      47.737   1.914  33.028  0.00  0.00    +0.000 HD
ENDBRANCH  10  30
BRANCH  13  32
ATOM     32  O   UNL     1      48.004   6.263  30.983  0.00  0.00    +0.000 OA
ATOM     33  H   UNL     1      48.184   6.965  30.337  0.00  0.00    +0.000 HD
ENDBRANCH  13  32
BRANCH  19  34
ATOM     34  O   UNL     1      50.255  -1.284  36.019  0.00  0.00    +0.000 OA
ATOM     35  H   UNL     1      50.718  -1.614  36.817  0.00  0.00    +0.000 HD
ENDBRANCH  19  34
BRANCH  21  36
ATOM     36  O   UNL     1      50.452   0.598  37.862  0.00  0.00    +0.000 OA
ATOM     37  C   UNL     1      49.170   1.084  38.175  0.00  0.00    +0.000 C 
ENDBRANCH  21  36
BRANCH  20  38
ATOM     38  O   UNL     1      51.719   7.076  35.345  0.00  0.00    +0.000 OA
BRANCH  38  40
ATOM     39  O   UNL     1      54.030   7.207  35.613  0.00  0.00    +0.000 OA
ATOM     40  C   UNL     1      52.968   7.568  35.141  0.00  0.00    +0.000 C 
ATOM     41  C   UNL     1      53.037   8.765  34.267  0.00  0.00    +0.000 C 
ENDBRANCH  38  40
ENDBRANCH  20  38
BRANCH   6  42
ATOM     42  C   UNL     1      50.046  -0.916  29.626  0.00  0.00    +0.000 C 
BRANCH  42  44
ATOM     43  O   UNL     1      50.445  -3.346  29.051  0.00  0.00    +0.000 OA
ATOM     44  C   UNL     1      49.732  -2.355  29.831  0.00  0.00    +0.000 C 
ATOM     45  C   UNL     1      50.870  -3.119  30.332  0.00  0.00    +0.000 C 
ATOM     46  C   UNL     1      48.234  -2.789  29.955  0.00  0.00    +0.000 C 
BRANCH  45  47
ATOM     47  C   UNL     1      50.772  -4.208  31.256  0.00  0.00    +0.000 C 
ATOM     48  C   UNL     1      51.902  -5.198  31.385  0.00  0.00    +0.000 C 
BRANCH  47  49
ATOM     49  C   UNL     1      49.875  -4.138  32.351  0.00  0.00    +0.000 C 
ATOM     50  C   UNL     1      49.161  -4.040  33.309  0.00  0.00    +0.000 C 
ATOM     51  C   UNL     1      48.344  -3.862  34.592  0.00  0.00    +0.000 C 
ENDBRANCH  47  49
ENDBRANCH  45  47
ENDBRANCH  42  44
BRANCH  42  52
ATOM     52  O   UNL     1      50.188  -0.355  28.364  0.00  0.00    +0.000 OA
ATOM     53  H   UNL     1      50.570   0.546  28.402  0.00  0.00    +0.000 HD
ENDBRANCH  42  52
ENDBRANCH   6  42
TORSDOF 12
ENDMDL
MODEL 3
REMARK VINA RESULT:      -6.9     29.831     33.088
REMARK  Name = 101808842_CandidaspongiolideB.pdbqt.pdb
REMARK  12 active torsions:
REMARK  status: ('A' for Active; 'I' for Inactive)
REMARK    1  A    between atoms: C_6  and  C_42
REMARK    2  A    between atoms: C_7  and  O_28
REMARK    3  A    between atoms: C_10  and  O_30
REMARK    4  A    between atoms: C_13  and  O_32
REMARK    5  A    between atoms: C_19  and  O_34
REMARK    6  A    between atoms: C_20  and  O_38
REMARK    7  A    between atoms: C_21  and  O_36
REMARK    8  A    between atoms: O_38  and  C_40
REMARK    9  A    between atoms: C_42  and  C_44
REMARK   10  A    between atoms: C_42  and  O_52
REMARK   11  A    between atoms: C_45  and  C_47
REMARK   12  A    between atoms: C_47  and  C_49
REMARK                            x       y       z     vdW  Elec       q    Type
REMARK                         _______ _______ _______ _____ _____    ______ ____
ROOT
ATOM      1  O   UNL     1      18.749   7.504  33.944  0.00  0.00    +0.000 OA
ATOM      2  O   UNL     1      18.426   7.147  40.799  0.00  0.00    +0.000 OA
ATOM      3  O   UNL     1      17.237   8.931  37.135  0.00  0.00    +0.000 OA
ATOM      4  O   UNL     1      16.987   6.081  39.344  0.00  0.00    +0.000 OA
ATOM      5  O   UNL     1      18.053   3.638  38.055  0.00  0.00    +0.000 OA
ATOM      6  C   UNL     1      18.828   9.053  38.848  0.00  0.00    +0.000 C 
ATOM      7  C   UNL     1      19.457   8.038  36.554  0.00  0.00    +0.000 C 
ATOM      8  C   UNL     1      18.397   8.688  37.470  0.00  0.00    +0.000 C 
ATOM      9  C   UNL     1      18.614   8.109  39.893  0.00  0.00    +0.000 C 
ATOM     10  C   UNL     1      19.469   6.507  36.737  0.00  0.00    +0.000 C 
ATOM     11  C   UNL     1      19.218   5.751  35.553  0.00  0.00    +0.000 C 
ATOM     12  C   UNL     1      19.065   8.105  35.110  0.00  0.00    +0.000 C 
ATOM     13  C   UNL     1      18.872   6.034  34.125  0.00  0.00    +0.000 C 
ATOM     14  C   UNL     1      17.548   5.362  33.732  0.00  0.00    +0.000 C 
ATOM     15  C   UNL     1      16.669   4.830  34.721  0.00  0.00    +0.000 C 
ATOM     16  C   UNL     1      17.070   5.081  32.311  0.00  0.00    +0.000 C 
ATOM     17  C   UNL     1      17.651   6.113  40.370  0.00  0.00    +0.000 C 
ATOM     18  C   UNL     1      15.933   4.345  35.673  0.00  0.00    +0.000 C 
ATOM     19  C   UNL     1      17.780   4.954  41.284  0.00  0.00    +0.000 C 
ATOM     20  C   UNL     1      16.012   2.955  36.059  0.00  0.00    +0.000 C 
ATOM     21  C   UNL     1      17.405   3.618  40.865  0.00  0.00    +0.000 C 
ATOM     22  C   UNL     1      16.095   2.440  37.425  0.00  0.00    +0.000 C 
ATOM     23  C   UNL     1      16.464   3.265  39.813  0.00  0.00    +0.000 C 
ATOM     24  C   UNL     1      16.967   3.166  38.406  0.00  0.00    +0.000 C 
ATOM     25  C   UNL     1      15.145   5.334  36.483  0.00  0.00    +0.000 C 
ATOM     26  C   UNL     1      15.732   0.983  37.705  0.00  0.00    +0.000 C 
ATOM     27  C   UNL     1      14.974   3.257  40.138  0.00  0.00    +0.000 C 
ENDROOT
BRANCH   7  28
ATOM     28  O   UNL     1      20.777   8.525  36.689  0.00  0.00    +0.000 OA
ATOM     29  H   UNL     1      20.975   9.015  35.870  0.00  0.00    +0.000 HD
ENDBRANCH   7  28
BRANCH  10  30
ATOM     30  O   UNL     1      19.720   5.907  37.943  0.00  0.00    +0.000 OA
ATOM     31  H   UNL     1      19.331   5.008  37.980  0.00  0.00    +0.000 HD
ENDBRANCH  10  30
BRANCH  13  32
ATOM     32  O   UNL     1      19.946   5.565  33.315  0.00  0.00    +0.000 OA
ATOM     33  H   UNL     1      19.901   6.080  32.494  0.00  0.00    +0.000 HD
ENDBRANCH  13  32
BRANCH  19  34
ATOM     34  O   UNL     1      18.392   5.060  42.519  0.00  0.00    +0.000 OA
ATOM     35  H   UNL     1      19.053   5.781  42.562  0.00  0.00    +0.000 HD
ENDBRANCH  19  34
BRANCH  21  36
ATOM     36  O   UNL     1      17.697   2.621  41.781  0.00  0.00    +0.000 OA
ATOM     37  C   UNL     1      17.594   1.350  41.190  0.00  0.00    +0.000 C 
ENDBRANCH  21  36
BRANCH  20  38
ATOM     38  O   UNL     1      15.695   2.034  35.032  0.00  0.00    +0.000 OA
BRANCH  38  40
ATOM     39  O   UNL     1      13.389   1.853  35.318  0.00  0.00    +0.000 OA
ATOM     40  C   UNL     1      14.387   2.135  34.680  0.00  0.00    +0.000 C 
ATOM     41  C   UNL     1      14.143   2.591  33.290  0.00  0.00    +0.000 C 
ENDBRANCH  38  40
ENDBRANCH  20  38
BRANCH   6  42
ATOM     42  C   UNL     1      19.238  10.415  39.105  0.00  0.00    +0.000 C 
BRANCH  42  44
ATOM     43  O   UNL     1      21.750  10.277  38.859  0.00  0.00    +0.000 OA
ATOM     44  C   UNL     1      20.599  10.750  39.600  0.00  0.00    +0.000 C 
ATOM     45  C   UNL     1      21.358  11.573  38.664  0.00  0.00    +0.000 C 
ATOM     46  C   UNL     1      20.895  10.626  41.131  0.00  0.00    +0.000 C 
BRANCH  45  47
ATOM     47  C   UNL     1      22.278  12.600  39.049  0.00  0.00    +0.000 C 
ATOM     48  C   UNL     1      23.594  12.238  39.690  0.00  0.00    +0.000 C 
BRANCH  47  49
ATOM     49  C   UNL     1      22.205  13.886  38.456  0.00  0.00    +0.000 C 
ATOM     50  C   UNL     1      22.192  14.993  37.997  0.00  0.00    +0.000 C 
ATOM     51  C   UNL     1      22.253  16.440  37.501  0.00  0.00    +0.000 C 
ENDBRANCH  47  49
ENDBRANCH  45  47
ENDBRANCH  42  44
BRANCH  42  52
ATOM     52  O   UNL     1      18.283  11.386  38.828  0.00  0.00    +0.000 OA
ATOM     53  H   UNL     1      18.111  11.964  39.598  0.00  0.00    +0.000 HD
ENDBRANCH  42  52
ENDBRANCH   6  42
TORSDOF 12
ENDMDL
MODEL 4
REMARK VINA RESULT:      -6.8     18.258     24.026
REMARK  Name = 101808842_CandidaspongiolideB.pdbqt.pdb
REMARK  12 active torsions:
REMARK  status: ('A' for Active; 'I' for Inactive)
REMARK    1  A    between atoms: C_6  and  C_42
REMARK    2  A    between atoms: C_7  and  O_28
REMARK    3  A    between atoms: C_10  and  O_30
REMARK    4  A    between atoms: C_13  and  O_32
REMARK    5  A    between atoms: C_19  and  O_34
REMARK    6  A    between atoms: C_20  and  O_38
REMARK    7  A    between atoms: C_21  and  O_36
REMARK    8  A    between atoms: O_38  and  C_40
REMARK    9  A    between atoms: C_42  and  C_44
REMARK   10  A    between atoms: C_42  and  O_52
REMARK   11  A    between atoms: C_45  and  C_47
REMARK   12  A    between atoms: C_47  and  C_49
REMARK                            x       y       z     vdW  Elec       q    Type
REMARK                         _______ _______ _______ _____ _____    ______ ____
ROOT
ATOM      1  O   UNL     1      54.977   2.025  35.730  0.00  0.00    +0.000 OA
ATOM      2  O   UNL     1      49.515   0.517  31.843  0.00  0.00    +0.000 OA
ATOM      3  O   UNL     1      51.385   0.764  35.646  0.00  0.00    +0.000 OA
ATOM      4  O   UNL     1      49.890   2.544  32.879  0.00  0.00    +0.000 OA
ATOM      5  O   UNL     1      51.865   4.308  31.555  0.00  0.00    +0.000 OA
ATOM      6  C   UNL     1      51.027  -0.662  33.824  0.00  0.00    +0.000 C 
ATOM      7  C   UNL     1      53.325   0.477  34.158  0.00  0.00    +0.000 C 
ATOM      8  C   UNL     1      51.876   0.252  34.639  0.00  0.00    +0.000 C 
ATOM      9  C   UNL     1      50.208  -0.093  32.808  0.00  0.00    +0.000 C 
ATOM     10  C   UNL     1      53.390   1.644  33.152  0.00  0.00    +0.000 C 
ATOM     11  C   UNL     1      54.249   2.721  33.524  0.00  0.00    +0.000 C 
ATOM     12  C   UNL     1      54.192   1.044  35.240  0.00  0.00    +0.000 C 
ATOM     13  C   UNL     1      55.104   3.085  34.696  0.00  0.00    +0.000 C 
ATOM     14  C   UNL     1      54.676   4.433  35.296  0.00  0.00    +0.000 C 
ATOM     15  C   UNL     1      53.435   5.038  34.940  0.00  0.00    +0.000 C 
ATOM     16  C   UNL     1      55.517   5.317  36.212  0.00  0.00    +0.000 C 
ATOM     17  C   UNL     1      49.502   1.875  31.932  0.00  0.00    +0.000 C 
ATOM     18  C   UNL     1      52.305   5.541  34.548  0.00  0.00    +0.000 C 
ATOM     19  C   UNL     1      49.024   2.473  30.663  0.00  0.00    +0.000 C 
ATOM     20  C   UNL     1      52.235   6.501  33.471  0.00  0.00    +0.000 C 
ATOM     21  C   UNL     1      49.290   3.860  30.336  0.00  0.00    +0.000 C 
ATOM     22  C   UNL     1      51.296   6.479  32.351  0.00  0.00    +0.000 C 
ATOM     23  C   UNL     1      49.568   4.940  31.272  0.00  0.00    +0.000 C 
ATOM     24  C   UNL     1      50.981   5.157  31.714  0.00  0.00    +0.000 C 
ATOM     25  C   UNL     1      51.061   4.931  35.129  0.00  0.00    +0.000 C 
ATOM     26  C   UNL     1      51.043   7.756  31.552  0.00  0.00    +0.000 C 
ATOM     27  C   UNL     1      48.394   5.637  31.951  0.00  0.00    +0.000 C 
ENDROOT
BRANCH   7  28
ATOM     28  O   UNL     1      53.975  -0.646  33.597  0.00  0.00    +0.000 OA
ATOM     29  H   UNL     1      53.860  -0.577  32.632  0.00  0.00    +0.000 HD
ENDBRANCH   7  28
BRANCH  10  30
ATOM     30  O   UNL     1      52.689   1.647  31.974  0.00  0.00    +0.000 OA
ATOM     31  H   UNL     1      53.023   2.338  31.364  0.00  0.00    +0.000 HD
ENDBRANCH  10  30
BRANCH  13  32
ATOM     32  O   UNL     1      56.457   3.127  34.252  0.00  0.00    +0.000 OA
ATOM     33  H   UNL     1      56.642   2.247  33.886  0.00  0.00    +0.000 HD
ENDBRANCH  13  32
BRANCH  19  34
ATOM     34  O   UNL     1      48.432   1.713  29.672  0.00  0.00    +0.000 OA
ATOM     35  H   UNL     1      47.733   2.194  29.183  0.00  0.00    +0.000 HD
ENDBRANCH  19  34
BRANCH  21  36
ATOM     36  O   UNL     1      48.890   4.242  29.066  0.00  0.00    +0.000 OA
ATOM     37  C   UNL     1      49.970   4.772  28.338  0.00  0.00    +0.000 C 
ENDBRANCH  21  36
BRANCH  20  38
ATOM     38  O   UNL     1      52.954   7.699  33.696  0.00  0.00    +0.000 OA
BRANCH  38  40
ATOM     39  O   UNL     1      51.244   8.751  34.880  0.00  0.00    +0.000 OA
ATOM     40  C   UNL     1      52.401   8.410  34.713  0.00  0.00    +0.000 C 
ATOM     41  C   UNL     1      53.360   8.901  35.732  0.00  0.00    +0.000 C 
ENDBRANCH  38  40
ENDBRANCH  20  38
BRANCH   6  42
ATOM     42  C   UNL     1      50.905  -2.042  34.238  0.00  0.00    +0.000 C 
BRANCH  42  44
ATOM     43  O   UNL     1      50.539  -4.486  33.705  0.00  0.00    +0.000 OA
ATOM     44  C   UNL     1      50.924  -3.163  33.261  0.00  0.00    +0.000 C 
ATOM     45  C   UNL     1      49.604  -3.744  33.037  0.00  0.00    +0.000 C 
ATOM     46  C   UNL     1      52.139  -3.289  32.284  0.00  0.00    +0.000 C 
BRANCH  45  47
ATOM     47  C   UNL     1      49.144  -4.251  31.779  0.00  0.00    +0.000 C 
ATOM     48  C   UNL     1      48.837  -5.718  31.619  0.00  0.00    +0.000 C 
BRANCH  47  49
ATOM     49  C   UNL     1      48.549  -3.380  30.832  0.00  0.00    +0.000 C 
ATOM     50  C   UNL     1      48.033  -2.601  30.082  0.00  0.00    +0.000 C 
ATOM     51  C   UNL     1      47.336  -1.542  29.223  0.00  0.00    +0.000 C 
ENDBRANCH  47  49
ENDBRANCH  45  47
ENDBRANCH  42  44
BRANCH  42  52
ATOM     52  O   UNL     1      50.801  -2.245  35.607  0.00  0.00    +0.000 OA
ATOM     53  H   UNL     1      49.886  -2.116  35.931  0.00  0.00    +0.000 HD
ENDBRANCH  42  52
ENDBRANCH   6  42
TORSDOF 12
ENDMDL
MODEL 5
REMARK VINA RESULT:      -6.7     19.976     24.216
REMARK  Name = 101808842_CandidaspongiolideB.pdbqt.pdb
REMARK  12 active torsions:
REMARK  status: ('A' for Active; 'I' for Inactive)
REMARK    1  A    between atoms: C_6  and  C_42
REMARK    2  A    between atoms: C_7  and  O_28
REMARK    3  A    between atoms: C_10  and  O_30
REMARK    4  A    between atoms: C_13  and  O_32
REMARK    5  A    between atoms: C_19  and  O_34
REMARK    6  A    between atoms: C_20  and  O_38
REMARK    7  A    between atoms: C_21  and  O_36
REMARK    8  A    between atoms: O_38  and  C_40
REMARK    9  A    between atoms: C_42  and  C_44
REMARK   10  A    between atoms: C_42  and  O_52
REMARK   11  A    between atoms: C_45  and  C_47
REMARK   12  A    between atoms: C_47  and  C_49
REMARK                            x       y       z     vdW  Elec       q    Type
REMARK                         _______ _______ _______ _____ _____    ______ ____
ROOT
ATOM      1  O   UNL     1      50.591   1.968  37.502  0.00  0.00    +0.000 OA
ATOM      2  O   UNL     1      51.491   0.282  30.902  0.00  0.00    +0.000 OA
ATOM      3  O   UNL     1      53.069   1.511  34.646  0.00  0.00    +0.000 OA
ATOM      4  O   UNL     1      51.663  -1.177  32.681  0.00  0.00    +0.000 OA
ATOM      5  O   UNL     1      49.094  -2.103  33.826  0.00  0.00    +0.000 OA
ATOM      6  C   UNL     1      52.195   2.313  32.628  0.00  0.00    +0.000 C 
ATOM      7  C   UNL     1      50.761   2.358  34.779  0.00  0.00    +0.000 C 
ATOM      8  C   UNL     1      52.093   2.008  34.082  0.00  0.00    +0.000 C 
ATOM      9  C   UNL     1      51.869   1.283  31.699  0.00  0.00    +0.000 C 
ATOM     10  C   UNL     1      49.766   1.185  34.671  0.00  0.00    +0.000 C 
ATOM     11  C   UNL     1      49.299   0.667  35.916  0.00  0.00    +0.000 C 
ATOM     12  C   UNL     1      50.907   2.414  36.268  0.00  0.00    +0.000 C 
ATOM     13  C   UNL     1      49.555   0.911  37.369  0.00  0.00    +0.000 C 
ATOM     14  C   UNL     1      50.040  -0.366  38.069  0.00  0.00    +0.000 C 
ATOM     15  C   UNL     1      50.470  -1.501  37.318  0.00  0.00    +0.000 C 
ATOM     16  C   UNL     1      50.023  -0.631  39.572  0.00  0.00    +0.000 C 
ATOM     17  C   UNL     1      51.327  -0.912  31.536  0.00  0.00    +0.000 C 
ATOM     18  C   UNL     1      50.819  -2.502  36.571  0.00  0.00    +0.000 C 
ATOM     19  C   UNL     1      50.587  -1.861  30.672  0.00  0.00    +0.000 C 
ATOM     20  C   UNL     1      49.895  -3.563  36.244  0.00  0.00    +0.000 C 
ATOM     21  C   UNL     1      49.928  -3.028  31.225  0.00  0.00    +0.000 C 
ATOM     22  C   UNL     1      49.672  -4.138  34.918  0.00  0.00    +0.000 C 
ATOM     23  C   UNL     1      50.255  -3.707  32.470  0.00  0.00    +0.000 C 
ATOM     24  C   UNL     1      49.633  -3.211  33.739  0.00  0.00    +0.000 C 
ATOM     25  C   UNL     1      52.161  -2.405  35.903  0.00  0.00    +0.000 C 
ATOM     26  C   UNL     1      49.016  -5.512  34.793  0.00  0.00    +0.000 C 
ATOM     27  C   UNL     1      51.395  -4.719  32.473  0.00  0.00    +0.000 C 
ENDROOT
BRANCH   7  28
ATOM     28  O   UNL     1      50.122   3.540  34.341  0.00  0.00    +0.000 OA
ATOM     29  H   UNL     1      50.197   4.181  35.072  0.00  0.00    +0.000 HD
ENDBRANCH   7  28
BRANCH  10  30
ATOM     30  O   UNL     1      49.342   0.681  33.469  0.00  0.00    +0.000 OA
ATOM     31  H   UNL     1      49.678   1.218  32.720  0.00  0.00    +0.000 HD
ENDBRANCH  10  30
BRANCH  13  32
ATOM     32  O   UNL     1      48.344   1.387  37.951  0.00  0.00    +0.000 OA
ATOM     33  H   UNL     1      47.667   0.728  37.727  0.00  0.00    +0.000 HD
ENDBRANCH  13  32
BRANCH  19  34
ATOM     34  O   UNL     1      50.365  -1.611  29.330  0.00  0.00    +0.000 OA
ATOM     35  H   UNL     1      50.999  -2.071  28.742  0.00  0.00    +0.000 HD
ENDBRANCH  19  34
BRANCH  21  36
ATOM     36  O   UNL     1      49.175  -3.752  30.316  0.00  0.00    +0.000 OA
ATOM     37  C   UNL     1      47.804  -3.487  30.476  0.00  0.00    +0.000 C 
ENDBRANCH  21  36
BRANCH  20  38
ATOM     38  O   UNL     1      49.387  -4.274  37.357  0.00  0.00    +0.000 OA
BRANCH  38  40
ATOM     39  O   UNL     1      51.205  -5.707  37.627  0.00  0.00    +0.000 OA
ATOM     40  C   UNL     1      50.390  -4.897  38.029  0.00  0.00    +0.000 C 
ATOM     41  C   UNL     1      50.456  -4.599  39.481  0.00  0.00    +0.000 C 
ENDBRANCH  38  40
ENDBRANCH  20  38
BRANCH   6  42
ATOM     42  C   UNL     1      52.824   3.550  32.224  0.00  0.00    +0.000 C 
BRANCH  42  44
ATOM     43  O   UNL     1      50.710   4.666  31.400  0.00  0.00    +0.000 OA
ATOM     44  C   UNL     1      52.149   4.521  31.323  0.00  0.00    +0.000 C 
ATOM     45  C   UNL     1      51.478   5.596  32.046  0.00  0.00    +0.000 C 
ATOM     46  C   UNL     1      52.586   4.585  29.822  0.00  0.00    +0.000 C 
BRANCH  45  47
ATOM     47  C   UNL     1      51.389   6.950  31.588  0.00  0.00    +0.000 C 
ATOM     48  C   UNL     1      50.223   7.388  30.738  0.00  0.00    +0.000 C 
BRANCH  47  49
ATOM     49  C   UNL     1      52.095   7.980  32.258  0.00  0.00    +0.000 C 
ATOM     50  C   UNL     1      52.637   8.862  32.863  0.00  0.00    +0.000 C 
ATOM     51  C   UNL     1      53.220  10.014  33.685  0.00  0.00    +0.000 C 
ENDBRANCH  47  49
ENDBRANCH  45  47
ENDBRANCH  42  44
BRANCH  42  52
ATOM     52  O   UNL     1      54.085   3.780  32.761  0.00  0.00    +0.000 OA
ATOM     53  H   UNL     1      54.038   4.120  33.677  0.00  0.00    +0.000 HD
ENDBRANCH  42  52
ENDBRANCH   6  42
TORSDOF 12
ENDMDL
MODEL 6
REMARK VINA RESULT:      -6.6     30.036     32.768
REMARK  Name = 101808842_CandidaspongiolideB.pdbqt.pdb
REMARK  12 active torsions:
REMARK  status: ('A' for Active; 'I' for Inactive)
REMARK    1  A    between atoms: C_6  and  C_42
REMARK    2  A    between atoms: C_7  and  O_28
REMARK    3  A    between atoms: C_10  and  O_30
REMARK    4  A    between atoms: C_13  and  O_32
REMARK    5  A    between atoms: C_19  and  O_34
REMARK    6  A    between atoms: C_20  and  O_38
REMARK    7  A    between atoms: C_21  and  O_36
REMARK    8  A    between atoms: O_38  and  C_40
REMARK    9  A    between atoms: C_42  and  C_44
REMARK   10  A    between atoms: C_42  and  O_52
REMARK   11  A    between atoms: C_45  and  C_47
REMARK   12  A    between atoms: C_47  and  C_49
REMARK                            x       y       z     vdW  Elec       q    Type
REMARK                         _______ _______ _______ _____ _____    ______ ____
ROOT
ATOM      1  O   UNL     1      16.997   5.968  32.375  0.00  0.00    +0.000 OA
ATOM      2  O   UNL     1      19.422   6.602  38.773  0.00  0.00    +0.000 OA
ATOM      3  O   UNL     1      17.126   8.097  35.530  0.00  0.00    +0.000 OA
ATOM      4  O   UNL     1      17.380   5.686  38.210  0.00  0.00    +0.000 OA
ATOM      5  O   UNL     1      17.469   2.923  37.152  0.00  0.00    +0.000 OA
ATOM      6  C   UNL     1      19.273   8.102  36.464  0.00  0.00    +0.000 C 
ATOM      7  C   UNL     1      18.768   6.680  34.364  0.00  0.00    +0.000 C 
ATOM      8  C   UNL     1      18.274   7.658  35.452  0.00  0.00    +0.000 C 
ATOM      9  C   UNL     1      19.365   7.374  37.685  0.00  0.00    +0.000 C 
ATOM     10  C   UNL     1      18.631   5.221  34.841  0.00  0.00    +0.000 C 
ATOM     11  C   UNL     1      17.816   4.385  34.019  0.00  0.00    +0.000 C 
ATOM     12  C   UNL     1      17.840   6.637  33.189  0.00  0.00    +0.000 C 
ATOM     13  C   UNL     1      16.969   4.544  32.797  0.00  0.00    +0.000 C 
ATOM     14  C   UNL     1      15.517   4.125  33.071  0.00  0.00    +0.000 C 
ATOM     15  C   UNL     1      15.045   3.930  34.403  0.00  0.00    +0.000 C 
ATOM     16  C   UNL     1      14.470   3.766  32.021  0.00  0.00    +0.000 C 
ATOM     17  C   UNL     1      18.399   5.711  38.886  0.00  0.00    +0.000 C 
ATOM     18  C   UNL     1      14.694   3.745  35.638  0.00  0.00    +0.000 C 
ATOM     19  C   UNL     1      18.717   4.684  39.905  0.00  0.00    +0.000 C 
ATOM     20  C   UNL     1      14.720   2.434  36.246  0.00  0.00    +0.000 C 
ATOM     21  C   UNL     1      18.016   3.415  39.941  0.00  0.00    +0.000 C 
ATOM     22  C   UNL     1      15.272   2.099  37.557  0.00  0.00    +0.000 C 
ATOM     23  C   UNL     1      16.689   3.135  39.411  0.00  0.00    +0.000 C 
ATOM     24  C   UNL     1      16.562   2.745  37.972  0.00  0.00    +0.000 C 
ATOM     25  C   UNL     1      14.453   4.979  36.460  0.00  0.00    +0.000 C 
ATOM     26  C   UNL     1      14.847   0.804  38.247  0.00  0.00    +0.000 C 
ATOM     27  C   UNL     1      15.474   3.490  40.261  0.00  0.00    +0.000 C 
ENDROOT
BRANCH   7  28
ATOM     28  O   UNL     1      20.085   6.886  33.894  0.00  0.00    +0.000 OA
ATOM     29  H   UNL     1      20.621   7.123  34.674  0.00  0.00    +0.000 HD
ENDBRANCH   7  28
BRANCH  10  30
ATOM     30  O   UNL     1      19.258   4.746  35.963  0.00  0.00    +0.000 OA
ATOM     31  H   UNL     1      20.157   5.125  36.055  0.00  0.00    +0.000 HD
ENDBRANCH  10  30
BRANCH  13  32
ATOM     32  O   UNL     1      17.544   3.752  31.761  0.00  0.00    +0.000 OA
ATOM     33  H   UNL     1      17.481   4.288  30.954  0.00  0.00    +0.000 HD
ENDBRANCH  13  32
BRANCH  19  34
ATOM     34  O   UNL     1      19.784   4.819  40.774  0.00  0.00    +0.000 OA
ATOM     35  H   UNL     1      20.265   5.665  40.664  0.00  0.00    +0.000 HD
ENDBRANCH  19  34
BRANCH  21  36
ATOM     36  O   UNL     1      18.505   2.510  40.868  0.00  0.00    +0.000 OA
ATOM     37  C   UNL     1      17.796   1.298  40.808  0.00  0.00    +0.000 C 
ENDBRANCH  21  36
BRANCH  20  38
ATOM     38  O   UNL     1      13.887   1.474  35.624  0.00  0.00    +0.000 OA
BRANCH  38  40
ATOM     39  O   UNL     1      11.908   2.069  36.701  0.00  0.00    +0.000 OA
ATOM     40  C   UNL     1      12.581   1.839  35.714  0.00  0.00    +0.000 C 
ATOM     41  C   UNL     1      11.854   1.898  34.422  0.00  0.00    +0.000 C 
ENDBRANCH  38  40
ENDBRANCH  20  38
BRANCH   6  42
ATOM     42  C   UNL     1      19.944   9.367  36.263  0.00  0.00    +0.000 C 
BRANCH  42  44
ATOM     43  O   UNL     1      19.966  11.717  35.331  0.00  0.00    +0.000 OA
ATOM     44  C   UNL     1      19.212  10.589  35.839  0.00  0.00    +0.000 C 
ATOM     45  C   UNL     1      19.375  10.886  34.420  0.00  0.00    +0.000 C 
ATOM     46  C   UNL     1      18.049  11.122  36.741  0.00  0.00    +0.000 C 
BRANCH  45  47
ATOM     47  C   UNL     1      18.355  11.448  33.587  0.00  0.00    +0.000 C 
ATOM     48  C   UNL     1      18.565  12.790  32.931  0.00  0.00    +0.000 C 
BRANCH  47  49
ATOM     49  C   UNL     1      17.367  10.615  33.003  0.00  0.00    +0.000 C 
ATOM     50  C   UNL     1      16.528   9.956  32.458  0.00  0.00    +0.000 C 
ATOM     51  C   UNL     1      15.438   9.208  31.685  0.00  0.00    +0.000 C 
ENDBRANCH  47  49
ENDBRANCH  45  47
ENDBRANCH  42  44
BRANCH  42  52
ATOM     52  O   UNL     1      21.308   9.364  36.524  0.00  0.00    +0.000 OA
ATOM     53  H   UNL     1      21.758   8.592  36.126  0.00  0.00    +0.000 HD
ENDBRANCH  42  52
ENDBRANCH   6  42
TORSDOF 12
ENDMDL
MODEL 7
REMARK VINA RESULT:      -6.6     22.437     26.583
REMARK  Name = 101808842_CandidaspongiolideB.pdbqt.pdb
REMARK  12 active torsions:
REMARK  status: ('A' for Active; 'I' for Inactive)
REMARK    1  A    between atoms: C_6  and  C_42
REMARK    2  A    between atoms: C_7  and  O_28
REMARK    3  A    between atoms: C_10  and  O_30
REMARK    4  A    between atoms: C_13  and  O_32
REMARK    5  A    between atoms: C_19  and  O_34
REMARK    6  A    between atoms: C_20  and  O_38
REMARK    7  A    between atoms: C_21  and  O_36
REMARK    8  A    between atoms: O_38  and  C_40
REMARK    9  A    between atoms: C_42  and  C_44
REMARK   10  A    between atoms: C_42  and  O_52
REMARK   11  A    between atoms: C_45  and  C_47
REMARK   12  A    between atoms: C_47  and  C_49
REMARK                            x       y       z     vdW  Elec       q    Type
REMARK                         _______ _______ _______ _____ _____    ______ ____
ROOT
ATOM      1  O   UNL     1      16.742  14.403  24.514  0.00  0.00    +0.000 OA
ATOM      2  O   UNL     1      19.267  11.715  18.716  0.00  0.00    +0.000 OA
ATOM      3  O   UNL     1      16.172  12.011  21.606  0.00  0.00    +0.000 OA
ATOM      4  O   UNL     1      17.894  13.565  18.835  0.00  0.00    +0.000 OA
ATOM      5  O   UNL     1      19.211  16.081  19.676  0.00  0.00    +0.000 OA
ATOM      6  C   UNL     1      18.128  10.843  21.071  0.00  0.00    +0.000 C 
ATOM      7  C   UNL     1      18.149  12.638  22.932  0.00  0.00    +0.000 C 
ATOM      8  C   UNL     1      17.369  11.858  21.852  0.00  0.00    +0.000 C 
ATOM      9  C   UNL     1      18.710  11.242  19.833  0.00  0.00    +0.000 C 
ATOM     10  C   UNL     1      18.807  13.894  22.327  0.00  0.00    +0.000 C 
ATOM     11  C   UNL     1      18.422  15.132  22.924  0.00  0.00    +0.000 C 
ATOM     12  C   UNL     1      17.233  13.298  23.917  0.00  0.00    +0.000 C 
ATOM     13  C   UNL     1      17.470  15.586  23.985  0.00  0.00    +0.000 C 
ATOM     14  C   UNL     1      16.458  16.596  23.426  0.00  0.00    +0.000 C 
ATOM     15  C   UNL     1      16.303  16.783  22.020  0.00  0.00    +0.000 C 
ATOM     16  C   UNL     1      15.610  17.566  24.243  0.00  0.00    +0.000 C 
ATOM     17  C   UNL     1      18.838  12.956  18.355  0.00  0.00    +0.000 C 
ATOM     18  C   UNL     1      16.237  16.920  20.732  0.00  0.00    +0.000 C 
ATOM     19  C   UNL     1      19.738  13.537  17.332  0.00  0.00    +0.000 C 
ATOM     20  C   UNL     1      16.977  17.949  20.039  0.00  0.00    +0.000 C 
ATOM     21  C   UNL     1      19.765  14.964  17.075  0.00  0.00    +0.000 C 
ATOM     22  C   UNL     1      17.771  17.775  18.825  0.00  0.00    +0.000 C 
ATOM     23  C   UNL     1      18.698  15.918  17.337  0.00  0.00    +0.000 C 
ATOM     24  C   UNL     1      18.612  16.539  18.697  0.00  0.00    +0.000 C 
ATOM     25  C   UNL     1      15.516  15.839  19.978  0.00  0.00    +0.000 C 
ATOM     26  C   UNL     1      18.124  18.993  17.973  0.00  0.00    +0.000 C 
ATOM     27  C   UNL     1      17.575  16.057  16.315  0.00  0.00    +0.000 C 
ENDROOT
BRANCH   7  28
ATOM     28  O   UNL     1      19.128  11.906  23.642  0.00  0.00    +0.000 OA
ATOM     29  H   UNL     1      19.128  11.008  23.264  0.00  0.00    +0.000 HD
ENDBRANCH   7  28
BRANCH  10  30
ATOM     30  O   UNL     1      19.713  13.834  21.300  0.00  0.00    +0.000 OA
ATOM     31  H   UNL     1      20.393  14.535  21.385  0.00  0.00    +0.000 HD
ENDBRANCH  10  30
BRANCH  13  32
ATOM     32  O   UNL     1      18.236  16.157  25.042  0.00  0.00    +0.000 OA
ATOM     33  H   UNL     1      19.165  16.050  24.782  0.00  0.00    +0.000 HD
ENDBRANCH  13  32
BRANCH  19  34
ATOM     34  O   UNL     1      20.693  12.780  16.679  0.00  0.00    +0.000 OA
ATOM     35  H   UNL     1      21.042  13.212  15.872  0.00  0.00    +0.000 HD
ENDBRANCH  19  34
BRANCH  21  36
ATOM     36  O   UNL     1      20.742  15.373  16.182  0.00  0.00    +0.000 OA
ATOM     37  C   UNL     1      21.527  16.400  16.733  0.00  0.00    +0.000 C 
ENDBRANCH  21  36
BRANCH  20  38
ATOM     38  O   UNL     1      16.659  19.273  20.427  0.00  0.00    +0.000 OA
BRANCH  38  40
ATOM     39  O   UNL     1      14.790  19.555  19.065  0.00  0.00    +0.000 OA
ATOM     40  C   UNL     1      15.364  19.563  20.138  0.00  0.00    +0.000 C 
ATOM     41  C   UNL     1      14.550  20.021  21.290  0.00  0.00    +0.000 C 
ENDBRANCH  38  40
ENDBRANCH  20  38
BRANCH   6  42
ATOM     42  C   UNL     1      18.059   9.459  21.485  0.00  0.00    +0.000 C 
BRANCH  42  44
ATOM     43  O   UNL     1      18.884   7.074  21.330  0.00  0.00    +0.000 OA
ATOM     44  C   UNL     1      19.147   8.491  21.188  0.00  0.00    +0.000 C 
ATOM     45  C   UNL     1      18.833   7.607  20.071  0.00  0.00    +0.000 C 
ATOM     46  C   UNL     1      20.589   8.794  21.716  0.00  0.00    +0.000 C 
BRANCH  45  47
ATOM     47  C   UNL     1      19.791   7.129  19.120  0.00  0.00    +0.000 C 
ATOM     48  C   UNL     1      19.706   5.716  18.601  0.00  0.00    +0.000 C 
BRANCH  47  49
ATOM     49  C   UNL     1      20.527   8.044  18.325  0.00  0.00    +0.000 C 
ATOM     50  C   UNL     1      21.196   8.768  17.645  0.00  0.00    +0.000 C 
ATOM     51  C   UNL     1      22.141   9.610  16.782  0.00  0.00    +0.000 C 
ENDBRANCH  47  49
ENDBRANCH  45  47
ENDBRANCH  42  44
BRANCH  42  52
ATOM     52  O   UNL     1      16.923   9.110  22.203  0.00  0.00    +0.000 OA
ATOM     53  H   UNL     1      17.044   9.231  23.166  0.00  0.00    +0.000 HD
ENDBRANCH  42  52
ENDBRANCH   6  42
TORSDOF 12
ENDMDL
MODEL 8
REMARK VINA RESULT:      -6.6     22.418     26.833
REMARK  Name = 101808842_CandidaspongiolideB.pdbqt.pdb
REMARK  12 active torsions:
REMARK  status: ('A' for Active; 'I' for Inactive)
REMARK    1  A    between atoms: C_6  and  C_42
REMARK    2  A    between atoms: C_7  and  O_28
REMARK    3  A    between atoms: C_10  and  O_30
REMARK    4  A    between atoms: C_13  and  O_32
REMARK    5  A    between atoms: C_19  and  O_34
REMARK    6  A    between atoms: C_20  and  O_38
REMARK    7  A    between atoms: C_21  and  O_36
REMARK    8  A    between atoms: O_38  and  C_40
REMARK    9  A    between atoms: C_42  and  C_44
REMARK   10  A    between atoms: C_42  and  O_52
REMARK   11  A    between atoms: C_45  and  C_47
REMARK   12  A    between atoms: C_47  and  C_49
REMARK                            x       y       z     vdW  Elec       q    Type
REMARK                         _______ _______ _______ _____ _____    ______ ____
ROOT
ATOM      1  O   UNL     1      14.468  12.682  24.024  0.00  0.00    +0.000 OA
ATOM      2  O   UNL     1      18.773  10.336  19.209  0.00  0.00    +0.000 OA
ATOM      3  O   UNL     1      14.827  11.019  20.617  0.00  0.00    +0.000 OA
ATOM      4  O   UNL     1      17.850  12.450  19.250  0.00  0.00    +0.000 OA
ATOM      5  O   UNL     1      19.088  14.346  21.159  0.00  0.00    +0.000 OA
ATOM      6  C   UNL     1      16.570   9.456  20.614  0.00  0.00    +0.000 C 
ATOM      7  C   UNL     1      16.086  10.866  22.727  0.00  0.00    +0.000 C 
ATOM      8  C   UNL     1      15.740  10.507  21.266  0.00  0.00    +0.000 C 
ATOM      9  C   UNL     1      17.702   9.867  19.854  0.00  0.00    +0.000 C 
ATOM     10  C   UNL     1      17.160  11.971  22.776  0.00  0.00    +0.000 C 
ATOM     11  C   UNL     1      16.780  13.159  23.470  0.00  0.00    +0.000 C 
ATOM     12  C   UNL     1      14.964  11.591  23.405  0.00  0.00    +0.000 C 
ATOM     13  C   UNL     1      15.556  13.687  24.148  0.00  0.00    +0.000 C 
ATOM     14  C   UNL     1      15.099  15.010  23.517  0.00  0.00    +0.000 C 
ATOM     15  C   UNL     1      15.622  15.448  22.264  0.00  0.00    +0.000 C 
ATOM     16  C   UNL     1      14.168  16.036  24.154  0.00  0.00    +0.000 C 
ATOM     17  C   UNL     1      18.782  11.687  19.041  0.00  0.00    +0.000 C 
ATOM     18  C   UNL     1      16.161  15.795  21.136  0.00  0.00    +0.000 C 
ATOM     19  C   UNL     1      20.132  12.150  18.643  0.00  0.00    +0.000 C 
ATOM     20  C   UNL     1      17.305  16.676  21.082  0.00  0.00    +0.000 C 
ATOM     21  C   UNL     1      20.528  13.537  18.794  0.00  0.00    +0.000 C 
ATOM     22  C   UNL     1      18.510  16.481  20.278  0.00  0.00    +0.000 C 
ATOM     23  C   UNL     1      19.648  14.695  18.852  0.00  0.00    +0.000 C 
ATOM     24  C   UNL     1      19.081  15.097  20.177  0.00  0.00    +0.000 C 
ATOM     25  C   UNL     1      15.668  15.084  19.909  0.00  0.00    +0.000 C 
ATOM     26  C   UNL     1      19.419  17.672  19.979  0.00  0.00    +0.000 C 
ATOM     27  C   UNL     1      19.142  15.293  17.543  0.00  0.00    +0.000 C 
ENDROOT
BRANCH   7  28
ATOM     28  O   UNL     1      16.497   9.793  23.550  0.00  0.00    +0.000 OA
ATOM     29  H   UNL     1      15.682   9.354  23.858  0.00  0.00    +0.000 HD
ENDBRANCH   7  28
BRANCH  10  30
ATOM     30  O   UNL     1      18.400  11.825  22.211  0.00  0.00    +0.000 OA
ATOM     31  H   UNL     1      18.409  11.093  21.559  0.00  0.00    +0.000 HD
ENDBRANCH  10  30
BRANCH  13  32
ATOM     32  O   UNL     1      15.862  13.856  25.530  0.00  0.00    +0.000 OA
ATOM     33  H   UNL     1      16.827  13.772  25.598  0.00  0.00    +0.000 HD
ENDBRANCH  13  32
BRANCH  19  34
ATOM     34  O   UNL     1      21.122  11.270  18.247  0.00  0.00    +0.000 OA
ATOM     35  H   UNL     1      21.088  11.057  17.292  0.00  0.00    +0.000 HD
ENDBRANCH  19  34
BRANCH  21  36
ATOM     36  O   UNL     1      21.856  13.795  18.496  0.00  0.00    +0.000 OA
ATOM     37  C   UNL     1      22.364  14.818  19.315  0.00  0.00    +0.000 C 
ENDBRANCH  21  36
BRANCH  20  38
ATOM     38  O   UNL     1      17.094  17.960  21.640  0.00  0.00    +0.000 OA
BRANCH  38  40
ATOM     39  O   UNL     1      18.005  17.338  23.693  0.00  0.00    +0.000 OA
ATOM     40  C   UNL     1      17.822  18.117  22.776  0.00  0.00    +0.000 C 
ATOM     41  C   UNL     1      18.425  19.461  22.956  0.00  0.00    +0.000 C 
ENDBRANCH  38  40
ENDBRANCH  20  38
BRANCH   6  42
ATOM     42  C   UNL     1      16.074   8.098  20.595  0.00  0.00    +0.000 C 
BRANCH  42  44
ATOM     43  O   UNL     1      16.506   5.622  20.319  0.00  0.00    +0.000 OA
ATOM     44  C   UNL     1      16.978   6.926  20.736  0.00  0.00    +0.000 C 
ATOM     45  C   UNL     1      17.315   6.310  19.457  0.00  0.00    +0.000 C 
ATOM     46  C   UNL     1      17.805   6.768  22.055  0.00  0.00    +0.000 C 
BRANCH  45  47
ATOM     47  C   UNL     1      18.585   5.728  19.147  0.00  0.00    +0.000 C 
ATOM     48  C   UNL     1      18.716   4.235  18.984  0.00  0.00    +0.000 C 
BRANCH  47  49
ATOM     49  C   UNL     1      19.607   6.513  18.556  0.00  0.00    +0.000 C 
ATOM     50  C   UNL     1      20.513   7.124  18.063  0.00  0.00    +0.000 C 
ATOM     51  C   UNL     1      21.745   7.811  17.466  0.00  0.00    +0.000 C 
ENDBRANCH  47  49
ENDBRANCH  45  47
ENDBRANCH  42  44
BRANCH  42  52
ATOM     52  O   UNL     1      14.697   7.969  20.468  0.00  0.00    +0.000 OA
ATOM     53  H   UNL     1      14.408   8.009  19.534  0.00  0.00    +0.000 HD
ENDBRANCH  42  52
ENDBRANCH   6  42
TORSDOF 12
ENDMDL
MODEL 9
REMARK VINA RESULT:      -6.5     32.268     35.349
REMARK  Name = 101808842_CandidaspongiolideB.pdbqt.pdb
REMARK  12 active torsions:
REMARK  status: ('A' for Active; 'I' for Inactive)
REMARK    1  A    between atoms: C_6  and  C_42
REMARK    2  A    between atoms: C_7  and  O_28
REMARK    3  A    between atoms: C_10  and  O_30
REMARK    4  A    between atoms: C_13  and  O_32
REMARK    5  A    between atoms: C_19  and  O_34
REMARK    6  A    between atoms: C_20  and  O_38
REMARK    7  A    between atoms: C_21  and  O_36
REMARK    8  A    between atoms: O_38  and  C_40
REMARK    9  A    between atoms: C_42  and  C_44
REMARK   10  A    between atoms: C_42  and  O_52
REMARK   11  A    between atoms: C_45  and  C_47
REMARK   12  A    between atoms: C_47  and  C_49
REMARK                            x       y       z     vdW  Elec       q    Type
REMARK                         _______ _______ _______ _____ _____    ______ ____
ROOT
ATOM      1  O   UNL     1      40.198  -7.685  43.877  0.00  0.00    +0.000 OA
ATOM      2  O   UNL     1      40.537  -3.706  49.468  0.00  0.00    +0.000 OA
ATOM      3  O   UNL     1      40.098  -4.142  45.268  0.00  0.00    +0.000 OA
ATOM      4  O   UNL     1      38.591  -4.518  48.531  0.00  0.00    +0.000 OA
ATOM      5  O   UNL     1      37.988  -7.359  49.105  0.00  0.00    +0.000 OA
ATOM      6  C   UNL     1      41.684  -3.851  46.965  0.00  0.00    +0.000 C 
ATOM      7  C   UNL     1      41.382  -6.162  45.845  0.00  0.00    +0.000 C 
ATOM      8  C   UNL     1      40.966  -4.680  45.957  0.00  0.00    +0.000 C 
ATOM      9  C   UNL     1      41.113  -3.724  48.264  0.00  0.00    +0.000 C 
ATOM     10  C   UNL     1      40.576  -7.029  46.832  0.00  0.00    +0.000 C 
ATOM     11  C   UNL     1      39.816  -8.081  46.238  0.00  0.00    +0.000 C 
ATOM     12  C   UNL     1      40.924  -6.775  44.557  0.00  0.00    +0.000 C 
ATOM     13  C   UNL     1      39.517  -8.570  44.857  0.00  0.00    +0.000 C 
ATOM     14  C   UNL     1      38.006  -8.565  44.582  0.00  0.00    +0.000 C 
ATOM     15  C   UNL     1      37.102  -7.877  45.445  0.00  0.00    +0.000 C 
ATOM     16  C   UNL     1      37.289  -9.342  43.482  0.00  0.00    +0.000 C 
ATOM     17  C   UNL     1      39.279  -4.225  49.499  0.00  0.00    +0.000 C 
ATOM     18  C   UNL     1      36.338  -7.254  46.288  0.00  0.00    +0.000 C 
ATOM     19  C   UNL     1      38.859  -4.483  50.896  0.00  0.00    +0.000 C 
ATOM     20  C   UNL     1      35.688  -7.945  47.377  0.00  0.00    +0.000 C 
ATOM     21  C   UNL     1      37.769  -5.389  51.200  0.00  0.00    +0.000 C 
ATOM     22  C   UNL     1      35.635  -7.508  48.771  0.00  0.00    +0.000 C 
ATOM     23  C   UNL     1      36.672  -5.762  50.319  0.00  0.00    +0.000 C 
ATOM     24  C   UNL     1      36.870  -6.906  49.374  0.00  0.00    +0.000 C 
ATOM     25  C   UNL     1      36.321  -5.755  46.198  0.00  0.00    +0.000 C 
ATOM     26  C   UNL     1      34.570  -8.083  49.702  0.00  0.00    +0.000 C 
ATOM     27  C   UNL     1      35.471  -4.828  50.213  0.00  0.00    +0.000 C 
ENDROOT
BRANCH   7  28
ATOM     28  O   UNL     1      42.759  -6.436  46.014  0.00  0.00    +0.000 OA
ATOM     29  H   UNL     1      42.813  -7.250  46.548  0.00  0.00    +0.000 HD
ENDBRANCH   7  28
BRANCH  10  30
ATOM     30  O   UNL     1      40.597  -6.823  48.187  0.00  0.00    +0.000 OA
ATOM     31  H   UNL     1      41.456  -6.451  48.477  0.00  0.00    +0.000 HD
ENDBRANCH  10  30
BRANCH  13  32
ATOM     32  O   UNL     1      40.056  -9.883  44.734  0.00  0.00    +0.000 OA
ATOM     33  H   UNL     1      39.299 -10.463  44.550  0.00  0.00    +0.000 HD
ENDBRANCH  13  32
BRANCH  19  34
ATOM     34  O   UNL     1      39.569  -3.994  51.977  0.00  0.00    +0.000 OA
ATOM     35  H   UNL     1      40.345  -4.545  52.209  0.00  0.00    +0.000 HD
ENDBRANCH  19  34
BRANCH  21  36
ATOM     36  O   UNL     1      37.573  -5.625  52.550  0.00  0.00    +0.000 OA
ATOM     37  C   UNL     1      37.840  -6.968  52.869  0.00  0.00    +0.000 C 
ENDBRANCH  21  36
BRANCH  20  38
ATOM     38  O   UNL     1      34.802  -8.976  46.983  0.00  0.00    +0.000 OA
BRANCH  38  40
ATOM     39  O   UNL     1      33.043  -7.587  46.344  0.00  0.00    +0.000 OA
ATOM     40  C   UNL     1      33.836  -8.492  46.160  0.00  0.00    +0.000 C 
ATOM     41  C   UNL     1      33.680  -9.219  44.876  0.00  0.00    +0.000 C 
ENDBRANCH  38  40
ENDBRANCH  20  38
BRANCH   6  42
ATOM     42  C   UNL     1      42.799  -3.042  46.526  0.00  0.00    +0.000 C 
BRANCH  42  44
ATOM     43  O   UNL     1      42.928  -0.861  47.800  0.00  0.00    +0.000 OA
ATOM     44  C   UNL     1      42.751  -1.556  46.541  0.00  0.00    +0.000 C 
ATOM     45  C   UNL     1      44.009  -0.950  46.965  0.00  0.00    +0.000 C 
ATOM     46  C   UNL     1      41.637  -0.831  45.715  0.00  0.00    +0.000 C 
BRANCH  45  47
ATOM     47  C   UNL     1      44.534   0.276  46.444  0.00  0.00    +0.000 C 
ATOM     48  C   UNL     1      44.200   1.588  47.107  0.00  0.00    +0.000 C 
BRANCH  47  49
ATOM     49  C   UNL     1      45.690   0.267  45.623  0.00  0.00    +0.000 C 
ATOM     50  C   UNL     1      46.685   0.200  44.958  0.00  0.00    +0.000 C 
ATOM     51  C   UNL     1      47.989   0.017  44.176  0.00  0.00    +0.000 C 
ENDBRANCH  47  49
ENDBRANCH  45  47
ENDBRANCH  42  44
BRANCH  42  52
ATOM     52  O   UNL     1      43.924  -3.749  46.121  0.00  0.00    +0.000 OA
ATOM     53  H   UNL     1      44.240  -4.365  46.813  0.00  0.00    +0.000 HD
ENDBRANCH  42  52
ENDBRANCH   6  42
TORSDOF 12
ENDMDL
