MODEL 1
REMARK VINA RESULT:      -6.5      0.000      0.000
REMARK  Name = 101808841_CandidaspongiolideA.pdbqt.pdb
REMARK  13 active torsions:
REMARK  status: ('A' for Active; 'I' for Inactive)
REMARK    1  A    between atoms: C_6  and  C_39
REMARK    2  A    between atoms: C_9  and  O_27
REMARK    3  A    between atoms: C_9  and  C_51
REMARK    4  A    between atoms: C_10  and  O_29
REMARK    5  A    between atoms: C_14  and  O_31
REMARK    6  A    between atoms: C_15  and  O_33
REMARK    7  A    between atoms: C_20  and  O_35
REMARK    8  A    between atoms: O_35  and  C_37
REMARK    9  A    between atoms: C_39  and  C_41
REMARK   10  A    between atoms: C_39  and  O_49
REMARK   11  A    between atoms: C_42  and  C_44
REMARK   12  A    between atoms: C_44  and  C_46
REMARK   13  A    between atoms: C_51  and  O_52
REMARK                            x       y       z     vdW  Elec       q    Type
REMARK                         _______ _______ _______ _____ _____    ______ ____
ROOT
ATOM      1  O   UNL     1      40.654   0.013  10.818  0.00  0.00    +0.000 OA
ATOM      2  O   UNL     1      43.822  -2.586  11.517  0.00  0.00    +0.000 OA
ATOM      3  O   UNL     1      39.454  -1.529   9.592  0.00  0.00    +0.000 OA
ATOM      4  O   UNL     1      46.588   3.377  12.048  0.00  0.00    +0.000 OA
ATOM      5  O   UNL     1      41.058   2.073  12.738  0.00  0.00    +0.000 OA
ATOM      6  C   UNL     1      43.075  -0.980   9.966  0.00  0.00    +0.000 C 
ATOM      7  C   UNL     1      43.993  -1.461  11.045  0.00  0.00    +0.000 C 
ATOM      8  C   UNL     1      41.810  -0.463  10.363  0.00  0.00    +0.000 C 
ATOM      9  C   UNL     1      45.045  -0.439  11.556  0.00  0.00    +0.000 C 
ATOM     10  C   UNL     1      44.386   0.612  12.434  0.00  0.00    +0.000 C 
ATOM     11  C   UNL     1      44.863   1.953  12.522  0.00  0.00    +0.000 C 
ATOM     12  C   UNL     1      39.538  -0.658  10.446  0.00  0.00    +0.000 C 
ATOM     13  C   UNL     1      45.460   3.279  12.516  0.00  0.00    +0.000 C 
ATOM     14  C   UNL     1      38.370  -0.244  11.258  0.00  0.00    +0.000 C 
ATOM     15  C   UNL     1      38.373   0.843  12.215  0.00  0.00    +0.000 C 
ATOM     16  C   UNL     1      44.701   4.447  13.068  0.00  0.00    +0.000 C 
ATOM     17  C   UNL     1      38.811   2.212  11.971  0.00  0.00    +0.000 C 
ATOM     18  C   UNL     1      39.877   4.056  13.378  0.00  0.00    +0.000 C 
ATOM     19  C   UNL     1      40.005   2.713  12.720  0.00  0.00    +0.000 C 
ATOM     20  C   UNL     1      41.090   4.755  13.808  0.00  0.00    +0.000 C 
ATOM     21  C   UNL     1      43.442   4.297  13.703  0.00  0.00    +0.000 C 
ATOM     22  C   UNL     1      42.301   4.133  14.294  0.00  0.00    +0.000 C 
ATOM     23  C   UNL     1      45.213   5.871  13.008  0.00  0.00    +0.000 C 
ATOM     24  C   UNL     1      38.552   2.832  10.597  0.00  0.00    +0.000 C 
ATOM     25  C   UNL     1      38.506   4.643  13.692  0.00  0.00    +0.000 C 
ATOM     26  C   UNL     1      42.281   3.118  15.409  0.00  0.00    +0.000 C 
ENDROOT
BRANCH   9  27
ATOM     27  O   UNL     1      45.638   0.219  10.435  0.00  0.00    +0.000 OA
ATOM     28  H   UNL     1      44.941   0.322   9.762  0.00  0.00    +0.000 HD
ENDBRANCH   9  27
BRANCH  10  29
ATOM     29  O   UNL     1      43.298   0.237  13.197  0.00  0.00    +0.000 OA
ATOM     30  H   UNL     1      42.912   0.965  13.719  0.00  0.00    +0.000 HD
ENDBRANCH  10  29
BRANCH  14  31
ATOM     31  O   UNL     1      37.195  -0.967  11.149  0.00  0.00    +0.000 OA
ATOM     32  H   UNL     1      36.858  -1.215  12.036  0.00  0.00    +0.000 HD
ENDBRANCH  14  31
BRANCH  15  33
ATOM     33  O   UNL     1      37.457   0.692  13.243  0.00  0.00    +0.000 OA
ATOM     34  C   UNL     1      36.431   1.642  13.125  0.00  0.00    +0.000 C 
ENDBRANCH  15  33
BRANCH  20  35
ATOM     35  O   UNL     1      41.005   6.138  14.122  0.00  0.00    +0.000 OA
BRANCH  35  37
ATOM     36  O   UNL     1      40.429   6.025  16.380  0.00  0.00    +0.000 OA
ATOM     37  C   UNL     1      41.104   6.416  15.447  0.00  0.00    +0.000 C 
ATOM     38  C   UNL     1      42.169   7.388  15.796  0.00  0.00    +0.000 C 
ENDBRANCH  35  37
ENDBRANCH  20  35
BRANCH   6  39
ATOM     39  C   UNL     1      43.431  -1.142   8.571  0.00  0.00    +0.000 C 
BRANCH  39  41
ATOM     40  O   UNL     1      43.175  -0.368   6.154  0.00  0.00    +0.000 OA
ATOM     41  C   UNL     1      43.181  -0.064   7.571  0.00  0.00    +0.000 C 
ATOM     42  C   UNL     1      41.968  -0.248   6.779  0.00  0.00    +0.000 C 
ATOM     43  C   UNL     1      43.902   1.311   7.780  0.00  0.00    +0.000 C 
BRANCH  42  44
ATOM     44  C   UNL     1      41.112   0.848   6.426  0.00  0.00    +0.000 C 
ATOM     45  C   UNL     1      41.308   1.569   5.116  0.00  0.00    +0.000 C 
BRANCH  44  46
ATOM     46  C   UNL     1      39.803   0.900   6.978  0.00  0.00    +0.000 C 
ATOM     47  C   UNL     1      38.679   0.855   7.393  0.00  0.00    +0.000 C 
ATOM     48  C   UNL     1      37.216   0.693   7.828  0.00  0.00    +0.000 C 
ENDBRANCH  44  46
ENDBRANCH  42  44
ENDBRANCH  39  41
BRANCH  39  49
ATOM     49  O   UNL     1      44.307  -2.185   8.307  0.00  0.00    +0.000 OA
ATOM     50  H   UNL     1      44.891  -2.001   7.546  0.00  0.00    +0.000 HD
ENDBRANCH  39  49
ENDBRANCH   6  39
BRANCH   9  51
ATOM     51  C   UNL     1      46.107  -1.120  12.333  0.00  0.00    +0.000 C 
BRANCH  51  52
ATOM     52  O   UNL     1      47.048  -1.728  13.055  0.00  0.00    +0.000 OA
ATOM     53  H   UNL     1      47.418  -1.120  13.721  0.00  0.00    +0.000 HD
ENDBRANCH  51  52
ENDBRANCH   9  51
TORSDOF 13
ENDMDL
MODEL 2
REMARK VINA RESULT:      -6.4      2.787      8.344
REMARK  Name = 101808841_CandidaspongiolideA.pdbqt.pdb
REMARK  13 active torsions:
REMARK  status: ('A' for Active; 'I' for Inactive)
REMARK    1  A    between atoms: C_6  and  C_39
REMARK    2  A    between atoms: C_9  and  O_27
REMARK    3  A    between atoms: C_9  and  C_51
REMARK    4  A    between atoms: C_10  and  O_29
REMARK    5  A    between atoms: C_14  and  O_31
REMARK    6  A    between atoms: C_15  and  O_33
REMARK    7  A    between atoms: C_20  and  O_35
REMARK    8  A    between atoms: O_35  and  C_37
REMARK    9  A    between atoms: C_39  and  C_41
REMARK   10  A    between atoms: C_39  and  O_49
REMARK   11  A    between atoms: C_42  and  C_44
REMARK   12  A    between atoms: C_44  and  C_46
REMARK   13  A    between atoms: C_51  and  O_52
REMARK                            x       y       z     vdW  Elec       q    Type
REMARK                         _______ _______ _______ _____ _____    ______ ____
ROOT
ATOM      1  O   UNL     1      40.942   1.116   8.355  0.00  0.00    +0.000 OA
ATOM      2  O   UNL     1      42.575   2.430  11.945  0.00  0.00    +0.000 OA
ATOM      3  O   UNL     1      39.000   2.334   8.611  0.00  0.00    +0.000 OA
ATOM      4  O   UNL     1      45.601  -3.337  10.907  0.00  0.00    +0.000 OA
ATOM      5  O   UNL     1      43.182   0.040   6.969  0.00  0.00    +0.000 OA
ATOM      6  C   UNL     1      41.219   0.718  11.063  0.00  0.00    +0.000 C 
ATOM      7  C   UNL     1      42.488   1.233  11.666  0.00  0.00    +0.000 C 
ATOM      8  C   UNL     1      41.034   0.907   9.665  0.00  0.00    +0.000 C 
ATOM      9  C   UNL     1      43.647   0.208  11.802  0.00  0.00    +0.000 C 
ATOM     10  C   UNL     1      44.276  -0.069  10.447  0.00  0.00    +0.000 C 
ATOM     11  C   UNL     1      44.858  -1.326  10.109  0.00  0.00    +0.000 C 
ATOM     12  C   UNL     1      39.939   1.927   7.942  0.00  0.00    +0.000 C 
ATOM     13  C   UNL     1      45.418  -2.653   9.906  0.00  0.00    +0.000 C 
ATOM     14  C   UNL     1      40.131   2.340   6.532  0.00  0.00    +0.000 C 
ATOM     15  C   UNL     1      41.162   1.825   5.654  0.00  0.00    +0.000 C 
ATOM     16  C   UNL     1      45.745  -3.127   8.522  0.00  0.00    +0.000 C 
ATOM     17  C   UNL     1      41.450   0.421   5.384  0.00  0.00    +0.000 C 
ATOM     18  C   UNL     1      43.540  -0.925   4.807  0.00  0.00    +0.000 C 
ATOM     19  C   UNL     1      42.775  -0.121   5.817  0.00  0.00    +0.000 C 
ATOM     20  C   UNL     1      44.645  -1.772   5.262  0.00  0.00    +0.000 C 
ATOM     21  C   UNL     1      45.628  -2.284   7.389  0.00  0.00    +0.000 C 
ATOM     22  C   UNL     1      45.529  -1.490   6.370  0.00  0.00    +0.000 C 
ATOM     23  C   UNL     1      46.236  -4.528   8.222  0.00  0.00    +0.000 C 
ATOM     24  C   UNL     1      40.286  -0.570   5.331  0.00  0.00    +0.000 C 
ATOM     25  C   UNL     1      43.245  -0.791   3.317  0.00  0.00    +0.000 C 
ATOM     26  C   UNL     1      46.256  -0.174   6.493  0.00  0.00    +0.000 C 
ENDROOT
BRANCH   9  27
ATOM     27  O   UNL     1      43.128  -1.019  12.316  0.00  0.00    +0.000 OA
ATOM     28  H   UNL     1      42.199  -1.080  12.027  0.00  0.00    +0.000 HD
ENDBRANCH   9  27
BRANCH  10  29
ATOM     29  O   UNL     1      44.306   0.953   9.519  0.00  0.00    +0.000 OA
ATOM     30  H   UNL     1      43.535   1.549   9.562  0.00  0.00    +0.000 HD
ENDBRANCH  10  29
BRANCH  14  31
ATOM     31  O   UNL     1      39.311   3.324   6.010  0.00  0.00    +0.000 OA
ATOM     32  H   UNL     1      39.429   4.167   6.497  0.00  0.00    +0.000 HD
ENDBRANCH  14  31
BRANCH  15  33
ATOM     33  O   UNL     1      41.546   2.707   4.658  0.00  0.00    +0.000 OA
ATOM     34  C   UNL     1      41.150   2.225   3.401  0.00  0.00    +0.000 C 
ENDBRANCH  15  33
BRANCH  20  35
ATOM     35  O   UNL     1      45.148  -2.768   4.382  0.00  0.00    +0.000 OA
BRANCH  35  37
ATOM     36  O   UNL     1      46.696  -1.562   3.120  0.00  0.00    +0.000 OA
ATOM     37  C   UNL     1      46.362  -2.477   3.847  0.00  0.00    +0.000 C 
ATOM     38  C   UNL     1      47.427  -3.462   4.162  0.00  0.00    +0.000 C 
ENDBRANCH  35  37
ENDBRANCH  20  35
BRANCH   6  39
ATOM     39  C   UNL     1      40.184   0.149  11.902  0.00  0.00    +0.000 C 
BRANCH  39  41
ATOM     40  O   UNL     1      37.788   0.889  11.438  0.00  0.00    +0.000 OA
ATOM     41  C   UNL     1      38.968   0.925  12.278  0.00  0.00    +0.000 C 
ATOM     42  C   UNL     1      37.792   0.106  12.555  0.00  0.00    +0.000 C 
ATOM     43  C   UNL     1      39.165   2.393  12.792  0.00  0.00    +0.000 C 
BRANCH  42  44
ATOM     44  C   UNL     1      36.879   0.412  13.619  0.00  0.00    +0.000 C 
ATOM     45  C   UNL     1      35.717   1.341  13.373  0.00  0.00    +0.000 C 
BRANCH  44  46
ATOM     46  C   UNL     1      36.716  -0.526  14.673  0.00  0.00    +0.000 C 
ATOM     47  C   UNL     1      36.547  -1.239  15.622  0.00  0.00    +0.000 C 
ATOM     48  C   UNL     1      36.315  -2.032  16.917  0.00  0.00    +0.000 C 
ENDBRANCH  44  46
ENDBRANCH  42  44
ENDBRANCH  39  41
BRANCH  39  49
ATOM     49  O   UNL     1      40.232  -1.232  12.034  0.00  0.00    +0.000 OA
ATOM     50  H   UNL     1      40.131  -1.693  11.180  0.00  0.00    +0.000 HD
ENDBRANCH  39  49
ENDBRANCH   6  39
BRANCH   9  51
ATOM     51  C   UNL     1      44.692   0.714  12.724  0.00  0.00    +0.000 C 
BRANCH  51  52
ATOM     52  O   UNL     1      45.630   1.145  13.566  0.00  0.00    +0.000 OA
ATOM     53  H   UNL     1      45.241   1.723  14.248  0.00  0.00    +0.000 HD
ENDBRANCH  51  52
ENDBRANCH   9  51
TORSDOF 13
ENDMDL
MODEL 3
REMARK VINA RESULT:      -6.3     23.808     27.527
REMARK  Name = 101808841_CandidaspongiolideA.pdbqt.pdb
REMARK  13 active torsions:
REMARK  status: ('A' for Active; 'I' for Inactive)
REMARK    1  A    between atoms: C_6  and  C_39
REMARK    2  A    between atoms: C_9  and  O_27
REMARK    3  A    between atoms: C_9  and  C_51
REMARK    4  A    between atoms: C_10  and  O_29
REMARK    5  A    between atoms: C_14  and  O_31
REMARK    6  A    between atoms: C_15  and  O_33
REMARK    7  A    between atoms: C_20  and  O_35
REMARK    8  A    between atoms: O_35  and  C_37
REMARK    9  A    between atoms: C_39  and  C_41
REMARK   10  A    between atoms: C_39  and  O_49
REMARK   11  A    between atoms: C_42  and  C_44
REMARK   12  A    between atoms: C_44  and  C_46
REMARK   13  A    between atoms: C_51  and  O_52
REMARK                            x       y       z     vdW  Elec       q    Type
REMARK                         _______ _______ _______ _____ _____    ______ ____
ROOT
ATOM      1  O   UNL     1      19.595  11.188  18.477  0.00  0.00    +0.000 OA
ATOM      2  O   UNL     1      16.367   8.638  19.076  0.00  0.00    +0.000 OA
ATOM      3  O   UNL     1      20.517   9.885  16.812  0.00  0.00    +0.000 OA
ATOM      4  O   UNL     1      16.942  11.763  24.855  0.00  0.00    +0.000 OA
ATOM      5  O   UNL     1      18.776  13.595  19.752  0.00  0.00    +0.000 OA
ATOM      6  C   UNL     1      18.573   9.010  19.812  0.00  0.00    +0.000 C 
ATOM      7  C   UNL     1      17.089   9.007  20.004  0.00  0.00    +0.000 C 
ATOM      8  C   UNL     1      19.142  10.117  19.123  0.00  0.00    +0.000 C 
ATOM      9  C   UNL     1      16.571   9.574  21.354  0.00  0.00    +0.000 C 
ATOM     10  C   UNL     1      16.680  11.090  21.373  0.00  0.00    +0.000 C 
ATOM     11  C   UNL     1      16.908  11.832  22.569  0.00  0.00    +0.000 C 
ATOM     12  C   UNL     1      20.185  10.966  17.278  0.00  0.00    +0.000 C 
ATOM     13  C   UNL     1      17.138  12.456  23.862  0.00  0.00    +0.000 C 
ATOM     14  C   UNL     1      20.350  12.228  16.521  0.00  0.00    +0.000 C 
ATOM     15  C   UNL     1      20.069  13.549  17.046  0.00  0.00    +0.000 C 
ATOM     16  C   UNL     1      17.591  13.882  23.938  0.00  0.00    +0.000 C 
ATOM     17  C   UNL     1      20.578  14.114  18.289  0.00  0.00    +0.000 C 
ATOM     18  C   UNL     1      19.712  15.784  20.014  0.00  0.00    +0.000 C 
ATOM     19  C   UNL     1      19.596  14.433  19.372  0.00  0.00    +0.000 C 
ATOM     20  C   UNL     1      19.041  16.023  21.294  0.00  0.00    +0.000 C 
ATOM     21  C   UNL     1      17.709  14.699  22.786  0.00  0.00    +0.000 C 
ATOM     22  C   UNL     1      17.793  15.431  21.720  0.00  0.00    +0.000 C 
ATOM     23  C   UNL     1      17.946  14.569  25.240  0.00  0.00    +0.000 C 
ATOM     24  C   UNL     1      21.997  13.753  18.734  0.00  0.00    +0.000 C 
ATOM     25  C   UNL     1      20.428  16.927  19.304  0.00  0.00    +0.000 C 
ATOM     26  C   UNL     1      16.554  15.482  20.862  0.00  0.00    +0.000 C 
ENDROOT
BRANCH   9  27
ATOM     27  O   UNL     1      17.371   9.053  22.417  0.00  0.00    +0.000 OA
ATOM     28  H   UNL     1      18.285   9.351  22.259  0.00  0.00    +0.000 HD
ENDBRANCH   9  27
BRANCH  10  29
ATOM     29  O   UNL     1      16.521  11.771  20.183  0.00  0.00    +0.000 OA
ATOM     30  H   UNL     1      15.775  12.401  20.184  0.00  0.00    +0.000 HD
ENDBRANCH  10  29
BRANCH  14  31
ATOM     31  O   UNL     1      20.751  12.162  15.198  0.00  0.00    +0.000 OA
ATOM     32  H   UNL     1      20.746  13.054  14.791  0.00  0.00    +0.000 HD
ENDBRANCH  14  31
BRANCH  15  33
ATOM     33  O   UNL     1      19.713  14.475  16.080  0.00  0.00    +0.000 OA
ATOM     34  C   UNL     1      18.316  14.536  15.955  0.00  0.00    +0.000 C 
ENDBRANCH  15  33
BRANCH  20  35
ATOM     35  O   UNL     1      19.409  17.165  22.055  0.00  0.00    +0.000 OA
BRANCH  35  37
ATOM     36  O   UNL     1      18.094  18.805  21.043  0.00  0.00    +0.000 OA
ATOM     37  C   UNL     1      18.513  18.184  22.001  0.00  0.00    +0.000 C 
ATOM     38  C   UNL     1      18.013  18.637  23.322  0.00  0.00    +0.000 C 
ENDBRANCH  35  37
ENDBRANCH  20  35
BRANCH   6  39
ATOM     39  C   UNL     1      19.370   7.873  20.224  0.00  0.00    +0.000 C 
BRANCH  39  41
ATOM     40  O   UNL     1      19.746   5.355  20.059  0.00  0.00    +0.000 OA
ATOM     41  C   UNL     1      19.405   6.614  19.426  0.00  0.00    +0.000 C 
ATOM     42  C   UNL     1      18.425   5.613  19.837  0.00  0.00    +0.000 C 
ATOM     43  C   UNL     1      20.086   6.658  18.015  0.00  0.00    +0.000 C 
BRANCH  42  44
ATOM     44  C   UNL     1      17.711   4.805  18.889  0.00  0.00    +0.000 C 
ATOM     45  C   UNL     1      18.210   3.425  18.546  0.00  0.00    +0.000 C 
BRANCH  44  46
ATOM     46  C   UNL     1      16.320   5.030  18.707  0.00  0.00    +0.000 C 
ATOM     47  C   UNL     1      15.159   5.309  18.605  0.00  0.00    +0.000 C 
ATOM     48  C   UNL     1      13.695   5.772  18.570  0.00  0.00    +0.000 C 
ENDBRANCH  44  46
ENDBRANCH  42  44
ENDBRANCH  39  41
BRANCH  39  49
ATOM     49  O   UNL     1      20.335   8.150  21.182  0.00  0.00    +0.000 OA
ATOM     50  H   UNL     1      20.518   9.106  21.263  0.00  0.00    +0.000 HD
ENDBRANCH  39  49
ENDBRANCH   6  39
BRANCH   9  51
ATOM     51  C   UNL     1      15.158   9.189  21.579  0.00  0.00    +0.000 C 
BRANCH  51  52
ATOM     52  O   UNL     1      13.885   8.838  21.756  0.00  0.00    +0.000 OA
ATOM     53  H   UNL     1      13.820   7.904  22.031  0.00  0.00    +0.000 HD
ENDBRANCH  51  52
ENDBRANCH   9  51
TORSDOF 13
ENDMDL
MODEL 4
REMARK VINA RESULT:      -6.2     20.932     24.457
REMARK  Name = 101808841_CandidaspongiolideA.pdbqt.pdb
REMARK  13 active torsions:
REMARK  status: ('A' for Active; 'I' for Inactive)
REMARK    1  A    between atoms: C_6  and  C_39
REMARK    2  A    between atoms: C_9  and  O_27
REMARK    3  A    between atoms: C_9  and  C_51
REMARK    4  A    between atoms: C_10  and  O_29
REMARK    5  A    between atoms: C_14  and  O_31
REMARK    6  A    between atoms: C_15  and  O_33
REMARK    7  A    between atoms: C_20  and  O_35
REMARK    8  A    between atoms: O_35  and  C_37
REMARK    9  A    between atoms: C_39  and  C_41
REMARK   10  A    between atoms: C_39  and  O_49
REMARK   11  A    between atoms: C_42  and  C_44
REMARK   12  A    between atoms: C_44  and  C_46
REMARK   13  A    between atoms: C_51  and  O_52
REMARK                            x       y       z     vdW  Elec       q    Type
REMARK                         _______ _______ _______ _____ _____    ______ ____
ROOT
ATOM      1  O   UNL     1      49.885  -2.128  31.677  0.00  0.00    +0.000 OA
ATOM      2  O   UNL     1      47.596  -5.052  33.548  0.00  0.00    +0.000 OA
ATOM      3  O   UNL     1      49.552  -2.996  29.566  0.00  0.00    +0.000 OA
ATOM      4  O   UNL     1      51.689  -3.032  38.309  0.00  0.00    +0.000 OA
ATOM      5  O   UNL     1      50.103  -0.098  33.658  0.00  0.00    +0.000 OA
ATOM      6  C   UNL     1      49.806  -4.610  32.865  0.00  0.00    +0.000 C 
ATOM      7  C   UNL     1      48.747  -4.795  33.906  0.00  0.00    +0.000 C 
ATOM      8  C   UNL     1      49.879  -3.342  32.223  0.00  0.00    +0.000 C 
ATOM      9  C   UNL     1      49.181  -4.547  35.377  0.00  0.00    +0.000 C 
ATOM     10  C   UNL     1      49.336  -3.059  35.644  0.00  0.00    +0.000 C 
ATOM     11  C   UNL     1      50.273  -2.537  36.583  0.00  0.00    +0.000 C 
ATOM     12  C   UNL     1      49.614  -2.061  30.353  0.00  0.00    +0.000 C 
ATOM     13  C   UNL     1      51.266  -2.149  37.572  0.00  0.00    +0.000 C 
ATOM     14  C   UNL     1      49.331  -0.668  29.935  0.00  0.00    +0.000 C 
ATOM     15  C   UNL     1      49.478   0.495  30.785  0.00  0.00    +0.000 C 
ATOM     16  C   UNL     1      51.726  -0.725  37.656  0.00  0.00    +0.000 C 
ATOM     17  C   UNL     1      50.660   0.863  31.555  0.00  0.00    +0.000 C 
ATOM     18  C   UNL     1      51.087   2.084  33.755  0.00  0.00    +0.000 C 
ATOM     19  C   UNL     1      50.553   0.873  33.047  0.00  0.00    +0.000 C 
ATOM     20  C   UNL     1      51.344   2.009  35.195  0.00  0.00    +0.000 C 
ATOM     21  C   UNL     1      51.147   0.303  36.869  0.00  0.00    +0.000 C 
ATOM     22  C   UNL     1      50.593   1.227  36.151  0.00  0.00    +0.000 C 
ATOM     23  C   UNL     1      52.826  -0.264  38.590  0.00  0.00    +0.000 C 
ATOM     24  C   UNL     1      52.041   0.566  30.967  0.00  0.00    +0.000 C 
ATOM     25  C   UNL     1      51.265   3.405  33.016  0.00  0.00    +0.000 C 
ATOM     26  C   UNL     1      49.090   1.316  36.247  0.00  0.00    +0.000 C 
ENDROOT
BRANCH   9  27
ATOM     27  O   UNL     1      50.442  -5.178  35.604  0.00  0.00    +0.000 OA
ATOM     28  H   UNL     1      51.094  -4.726  35.039  0.00  0.00    +0.000 HD
ENDBRANCH   9  27
BRANCH  10  29
ATOM     29  O   UNL     1      48.511  -2.184  34.965  0.00  0.00    +0.000 OA
ATOM     30  H   UNL     1      47.568  -2.264  35.205  0.00  0.00    +0.000 HD
ENDBRANCH  10  29
BRANCH  14  31
ATOM     31  O   UNL     1      48.841  -0.443  28.660  0.00  0.00    +0.000 OA
ATOM     32  H   UNL     1      48.044  -0.990  28.495  0.00  0.00    +0.000 HD
ENDBRANCH  14  31
BRANCH  15  33
ATOM     33  O   UNL     1      48.642   1.547  30.450  0.00  0.00    +0.000 OA
ATOM     34  C   UNL     1      49.387   2.610  29.916  0.00  0.00    +0.000 C 
ENDBRANCH  15  33
BRANCH  20  35
ATOM     35  O   UNL     1      52.142   3.017  35.799  0.00  0.00    +0.000 OA
BRANCH  35  37
ATOM     36  O   UNL     1      50.619   4.739  36.200  0.00  0.00    +0.000 OA
ATOM     37  C   UNL     1      51.442   3.912  36.543  0.00  0.00    +0.000 C 
ATOM     38  C   UNL     1      51.776   3.908  37.989  0.00  0.00    +0.000 C 
ENDBRANCH  35  37
ENDBRANCH  20  35
BRANCH   6  39
ATOM     39  C   UNL     1      50.646  -5.720  32.464  0.00  0.00    +0.000 C 
BRANCH  39  41
ATOM     40  O   UNL     1      52.863  -6.568  31.531  0.00  0.00    +0.000 OA
ATOM     41  C   UNL     1      52.109  -5.549  32.232  0.00  0.00    +0.000 C 
ATOM     42  C   UNL     1      52.490  -5.461  30.825  0.00  0.00    +0.000 C 
ATOM     43  C   UNL     1      52.982  -5.016  33.420  0.00  0.00    +0.000 C 
BRANCH  42  44
ATOM     44  C   UNL     1      53.506  -4.560  30.362  0.00  0.00    +0.000 C 
ATOM     45  C   UNL     1      54.922  -5.046  30.183  0.00  0.00    +0.000 C 
BRANCH  44  46
ATOM     46  C   UNL     1      53.123  -3.446  29.568  0.00  0.00    +0.000 C 
ATOM     47  C   UNL     1      52.888  -2.518  28.846  0.00  0.00    +0.000 C 
ATOM     48  C   UNL     1      52.725  -1.340  27.875  0.00  0.00    +0.000 C 
ENDBRANCH  44  46
ENDBRANCH  42  44
ENDBRANCH  39  41
BRANCH  39  49
ATOM     49  O   UNL     1      50.084  -6.975  32.646  0.00  0.00    +0.000 OA
ATOM     50  H   UNL     1      49.308  -7.124  32.072  0.00  0.00    +0.000 HD
ENDBRANCH  39  49
ENDBRANCH   6  39
BRANCH   9  51
ATOM     51  C   UNL     1      48.184  -5.105  36.320  0.00  0.00    +0.000 C 
BRANCH  51  52
ATOM     52  O   UNL     1      47.305  -5.602  37.190  0.00  0.00    +0.000 OA
ATOM     53  H   UNL     1      47.760  -5.952  37.978  0.00  0.00    +0.000 HD
ENDBRANCH  51  52
ENDBRANCH   9  51
TORSDOF 13
ENDMDL
MODEL 5
REMARK VINA RESULT:      -6.1      3.336      6.650
REMARK  Name = 101808841_CandidaspongiolideA.pdbqt.pdb
REMARK  13 active torsions:
REMARK  status: ('A' for Active; 'I' for Inactive)
REMARK    1  A    between atoms: C_6  and  C_39
REMARK    2  A    between atoms: C_9  and  O_27
REMARK    3  A    between atoms: C_9  and  C_51
REMARK    4  A    between atoms: C_10  and  O_29
REMARK    5  A    between atoms: C_14  and  O_31
REMARK    6  A    between atoms: C_15  and  O_33
REMARK    7  A    between atoms: C_20  and  O_35
REMARK    8  A    between atoms: O_35  and  C_37
REMARK    9  A    between atoms: C_39  and  C_41
REMARK   10  A    between atoms: C_39  and  O_49
REMARK   11  A    between atoms: C_42  and  C_44
REMARK   12  A    between atoms: C_44  and  C_46
REMARK   13  A    between atoms: C_51  and  O_52
REMARK                            x       y       z     vdW  Elec       q    Type
REMARK                         _______ _______ _______ _____ _____    ______ ____
ROOT
ATOM      1  O   UNL     1      40.743   1.243   8.174  0.00  0.00    +0.000 OA
ATOM      2  O   UNL     1      37.571   0.659  10.797  0.00  0.00    +0.000 OA
ATOM      3  O   UNL     1      40.669  -0.913   7.357  0.00  0.00    +0.000 OA
ATOM      4  O   UNL     1      40.951   5.604  13.558  0.00  0.00    +0.000 OA
ATOM      5  O   UNL     1      40.974   4.075   8.042  0.00  0.00    +0.000 OA
ATOM      6  C   UNL     1      39.916   0.472  10.683  0.00  0.00    +0.000 C 
ATOM      7  C   UNL     1      38.654   1.111  11.172  0.00  0.00    +0.000 C 
ATOM      8  C   UNL     1      40.377   0.840   9.388  0.00  0.00    +0.000 C 
ATOM      9  C   UNL     1      38.826   2.378  12.054  0.00  0.00    +0.000 C 
ATOM     10  C   UNL     1      39.228   3.571  11.204  0.00  0.00    +0.000 C 
ATOM     11  C   UNL     1      40.044   4.630  11.697  0.00  0.00    +0.000 C 
ATOM     12  C   UNL     1      40.763   0.297   7.205  0.00  0.00    +0.000 C 
ATOM     13  C   UNL     1      40.877   5.638  12.334  0.00  0.00    +0.000 C 
ATOM     14  C   UNL     1      40.865   0.910   5.860  0.00  0.00    +0.000 C 
ATOM     15  C   UNL     1      41.075   2.322   5.611  0.00  0.00    +0.000 C 
ATOM     16  C   UNL     1      41.594   6.656  11.501  0.00  0.00    +0.000 C 
ATOM     17  C   UNL     1      42.129   3.155   6.177  0.00  0.00    +0.000 C 
ATOM     18  C   UNL     1      42.348   5.614   6.826  0.00  0.00    +0.000 C 
ATOM     19  C   UNL     1      41.729   4.272   7.088  0.00  0.00    +0.000 C 
ATOM     20  C   UNL     1      42.289   6.640   7.869  0.00  0.00    +0.000 C 
ATOM     21  C   UNL     1      41.411   6.748  10.098  0.00  0.00    +0.000 C 
ATOM     22  C   UNL     1      41.216   6.822   8.820  0.00  0.00    +0.000 C 
ATOM     23  C   UNL     1      42.555   7.672  12.082  0.00  0.00    +0.000 C 
ATOM     24  C   UNL     1      43.508   2.537   6.414  0.00  0.00    +0.000 C 
ATOM     25  C   UNL     1      42.940   5.947   5.461  0.00  0.00    +0.000 C 
ATOM     26  C   UNL     1      39.776   6.934   8.384  0.00  0.00    +0.000 C 
ENDROOT
BRANCH   9  27
ATOM     27  O   UNL     1      39.857   2.142  13.014  0.00  0.00    +0.000 OA
ATOM     28  H   UNL     1      40.476   1.503  12.618  0.00  0.00    +0.000 HD
ENDBRANCH   9  27
BRANCH  10  29
ATOM     29  O   UNL     1      38.755   3.638   9.908  0.00  0.00    +0.000 OA
ATOM     30  H   UNL     1      38.597   4.548   9.592  0.00  0.00    +0.000 HD
ENDBRANCH  10  29
BRANCH  14  31
ATOM     31  O   UNL     1      40.698   0.105   4.748  0.00  0.00    +0.000 OA
ATOM     32  H   UNL     1      40.087   0.524   4.106  0.00  0.00    +0.000 HD
ENDBRANCH  14  31
BRANCH  15  33
ATOM     33  O   UNL     1      40.560   2.763   4.403  0.00  0.00    +0.000 OA
ATOM     34  C   UNL     1      41.600   3.115   3.530  0.00  0.00    +0.000 C 
ENDBRANCH  15  33
BRANCH  20  35
ATOM     35  O   UNL     1      43.140   7.773   7.761  0.00  0.00    +0.000 OA
BRANCH  35  37
ATOM     36  O   UNL     1      41.869   9.172   6.393  0.00  0.00    +0.000 OA
ATOM     37  C   UNL     1      42.504   8.917   7.398  0.00  0.00    +0.000 C 
ATOM     38  C   UNL     1      42.657  10.038   8.358  0.00  0.00    +0.000 C 
ENDBRANCH  35  37
ENDBRANCH  20  35
BRANCH   6  39
ATOM     39  C   UNL     1      40.571  -0.557  11.464  0.00  0.00    +0.000 C 
BRANCH  39  41
ATOM     40  O   UNL     1      42.687  -1.696  12.317  0.00  0.00    +0.000 OA
ATOM     41  C   UNL     1      42.054  -0.599  11.614  0.00  0.00    +0.000 C 
ATOM     42  C   UNL     1      42.693  -1.733  10.953  0.00  0.00    +0.000 C 
ATOM     43  C   UNL     1      42.790   0.730  12.002  0.00  0.00    +0.000 C 
BRANCH  42  44
ATOM     44  C   UNL     1      43.945  -1.610  10.263  0.00  0.00    +0.000 C 
ATOM     45  C   UNL     1      45.194  -2.218  10.849  0.00  0.00    +0.000 C 
BRANCH  44  46
ATOM     46  C   UNL     1      43.936  -1.441   8.852  0.00  0.00    +0.000 C 
ATOM     47  C   UNL     1      44.031  -1.303   7.665  0.00  0.00    +0.000 C 
ATOM     48  C   UNL     1      44.295  -1.104   6.165  0.00  0.00    +0.000 C 
ENDBRANCH  44  46
ENDBRANCH  42  44
ENDBRANCH  39  41
BRANCH  39  49
ATOM     49  O   UNL     1      39.737  -1.263  12.319  0.00  0.00    +0.000 OA
ATOM     50  H   UNL     1      38.886  -1.499  11.901  0.00  0.00    +0.000 HD
ENDBRANCH  39  49
ENDBRANCH   6  39
BRANCH   9  51
ATOM     51  C   UNL     1      37.566   2.696  12.767  0.00  0.00    +0.000 C 
BRANCH  51  52
ATOM     52  O   UNL     1      36.446   2.981  13.432  0.00  0.00    +0.000 OA
ATOM     53  H   UNL     1      35.809   3.439  12.853  0.00  0.00    +0.000 HD
ENDBRANCH  51  52
ENDBRANCH   9  51
TORSDOF 13
ENDMDL
MODEL 6
REMARK VINA RESULT:      -6.1     14.050     18.731
REMARK  Name = 101808841_CandidaspongiolideA.pdbqt.pdb
REMARK  13 active torsions:
REMARK  status: ('A' for Active; 'I' for Inactive)
REMARK    1  A    between atoms: C_6  and  C_39
REMARK    2  A    between atoms: C_9  and  O_27
REMARK    3  A    between atoms: C_9  and  C_51
REMARK    4  A    between atoms: C_10  and  O_29
REMARK    5  A    between atoms: C_14  and  O_31
REMARK    6  A    between atoms: C_15  and  O_33
REMARK    7  A    between atoms: C_20  and  O_35
REMARK    8  A    between atoms: O_35  and  C_37
REMARK    9  A    between atoms: C_39  and  C_41
REMARK   10  A    between atoms: C_39  and  O_49
REMARK   11  A    between atoms: C_42  and  C_44
REMARK   12  A    between atoms: C_44  and  C_46
REMARK   13  A    between atoms: C_51  and  O_52
REMARK                            x       y       z     vdW  Elec       q    Type
REMARK                         _______ _______ _______ _____ _____    ______ ____
ROOT
ATOM      1  O   UNL     1      25.347   2.005   2.139  0.00  0.00    +0.000 OA
ATOM      2  O   UNL     1      24.161   0.827   5.945  0.00  0.00    +0.000 OA
ATOM      3  O   UNL     1      23.251   2.767   1.550  0.00  0.00    +0.000 OA
ATOM      4  O   UNL     1      29.397  -2.993   4.722  0.00  0.00    +0.000 OA
ATOM      5  O   UNL     1      28.186   2.061   2.323  0.00  0.00    +0.000 OA
ATOM      6  C   UNL     1      24.330   0.013   3.741  0.00  0.00    +0.000 C 
ATOM      7  C   UNL     1      24.748   0.062   5.177  0.00  0.00    +0.000 C 
ATOM      8  C   UNL     1      24.831   1.028   2.879  0.00  0.00    +0.000 C 
ATOM      9  C   UNL     1      25.977  -0.806   5.563  0.00  0.00    +0.000 C 
ATOM     10  C   UNL     1      27.260  -0.170   5.056  0.00  0.00    +0.000 C 
ATOM     11  C   UNL     1      28.401  -0.934   4.672  0.00  0.00    +0.000 C 
ATOM     12  C   UNL     1      24.468   2.881   1.596  0.00  0.00    +0.000 C 
ATOM     13  C   UNL     1      29.485  -1.837   4.321  0.00  0.00    +0.000 C 
ATOM     14  C   UNL     1      25.161   4.084   1.080  0.00  0.00    +0.000 C 
ATOM     15  C   UNL     1      26.599   4.244   1.013  0.00  0.00    +0.000 C 
ATOM     16  C   UNL     1      30.642  -1.342   3.506  0.00  0.00    +0.000 C 
ATOM     17  C   UNL     1      27.548   3.318   0.407  0.00  0.00    +0.000 C 
ATOM     18  C   UNL     1      29.974   2.657   0.846  0.00  0.00    +0.000 C 
ATOM     19  C   UNL     1      28.543   2.645   1.299  0.00  0.00    +0.000 C 
ATOM     20  C   UNL     1      30.923   1.728   1.465  0.00  0.00    +0.000 C 
ATOM     21  C   UNL     1      30.780   0.021   3.143  0.00  0.00    +0.000 C 
ATOM     22  C   UNL     1      30.893   1.275   2.837  0.00  0.00    +0.000 C 
ATOM     23  C   UNL     1      31.756  -2.244   3.018  0.00  0.00    +0.000 C 
ATOM     24  C   UNL     1      27.129   2.555  -0.851  0.00  0.00    +0.000 C 
ATOM     25  C   UNL     1      30.463   3.684  -0.169  0.00  0.00    +0.000 C 
ATOM     26  C   UNL     1      30.814   2.240   3.993  0.00  0.00    +0.000 C 
ENDROOT
BRANCH   9  27
ATOM     27  O   UNL     1      25.846  -2.095   4.961  0.00  0.00    +0.000 OA
ATOM     28  H   UNL     1      25.225  -2.001   4.216  0.00  0.00    +0.000 HD
ENDBRANCH   9  27
BRANCH  10  29
ATOM     29  O   UNL     1      27.326   1.207   4.994  0.00  0.00    +0.000 OA
ATOM     30  H   UNL     1      27.843   1.611   5.716  0.00  0.00    +0.000 HD
ENDBRANCH  10  29
BRANCH  14  31
ATOM     31  O   UNL     1      24.401   5.166   0.673  0.00  0.00    +0.000 OA
ATOM     32  H   UNL     1      24.959   5.828   0.213  0.00  0.00    +0.000 HD
ENDBRANCH  14  31
BRANCH  15  33
ATOM     33  O   UNL     1      27.024   5.560   1.083  0.00  0.00    +0.000 OA
ATOM     34  C   UNL     1      27.577   5.959  -0.143  0.00  0.00    +0.000 C 
ENDBRANCH  15  33
BRANCH  20  35
ATOM     35  O   UNL     1      32.173   1.505   0.828  0.00  0.00    +0.000 OA
BRANCH  35  37
ATOM     36  O   UNL     1      31.415  -0.246  -0.515  0.00  0.00    +0.000 OA
ATOM     37  C   UNL     1      32.253   0.329   0.153  0.00  0.00    +0.000 C 
ATOM     38  C   UNL     1      33.547  -0.382   0.302  0.00  0.00    +0.000 C 
ENDBRANCH  35  37
ENDBRANCH  20  35
BRANCH   6  39
ATOM     39  C   UNL     1      23.369  -0.971   3.287  0.00  0.00    +0.000 C 
BRANCH  39  41
ATOM     40  O   UNL     1      21.003  -1.924   3.275  0.00  0.00    +0.000 OA
ATOM     41  C   UNL     1      21.917  -0.848   3.603  0.00  0.00    +0.000 C 
ATOM     42  C   UNL     1      21.426  -1.828   4.568  0.00  0.00    +0.000 C 
ATOM     43  C   UNL     1      21.211   0.515   3.288  0.00  0.00    +0.000 C 
BRANCH  42  44
ATOM     44  C   UNL     1      20.471  -1.488   5.585  0.00  0.00    +0.000 C 
ATOM     45  C   UNL     1      19.081  -2.069   5.541  0.00  0.00    +0.000 C 
BRANCH  44  46
ATOM     46  C   UNL     1      20.945  -1.100   6.867  0.00  0.00    +0.000 C 
ATOM     47  C   UNL     1      21.438  -0.755   7.904  0.00  0.00    +0.000 C 
ATOM     48  C   UNL     1      22.197  -0.322   9.167  0.00  0.00    +0.000 C 
ENDBRANCH  44  46
ENDBRANCH  42  44
ENDBRANCH  39  41
BRANCH  39  49
ATOM     49  O   UNL     1      23.823  -1.812   2.282  0.00  0.00    +0.000 OA
ATOM     50  H   UNL     1      23.803  -1.388   1.402  0.00  0.00    +0.000 HD
ENDBRANCH  39  49
ENDBRANCH   6  39
BRANCH   9  51
ATOM     51  C   UNL     1      26.067  -0.967   7.033  0.00  0.00    +0.000 C 
BRANCH  51  52
ATOM     52  O   UNL     1      26.170  -1.126   8.353  0.00  0.00    +0.000 OA
ATOM     53  H   UNL     1      26.759  -0.450   8.736  0.00  0.00    +0.000 HD
ENDBRANCH  51  52
ENDBRANCH   9  51
TORSDOF 13
ENDMDL
MODEL 7
REMARK VINA RESULT:      -6.1     12.638     17.373
REMARK  Name = 101808841_CandidaspongiolideA.pdbqt.pdb
REMARK  13 active torsions:
REMARK  status: ('A' for Active; 'I' for Inactive)
REMARK    1  A    between atoms: C_6  and  C_39
REMARK    2  A    between atoms: C_9  and  O_27
REMARK    3  A    between atoms: C_9  and  C_51
REMARK    4  A    between atoms: C_10  and  O_29
REMARK    5  A    between atoms: C_14  and  O_31
REMARK    6  A    between atoms: C_15  and  O_33
REMARK    7  A    between atoms: C_20  and  O_35
REMARK    8  A    between atoms: O_35  and  C_37
REMARK    9  A    between atoms: C_39  and  C_41
REMARK   10  A    between atoms: C_39  and  O_49
REMARK   11  A    between atoms: C_42  and  C_44
REMARK   12  A    between atoms: C_44  and  C_46
REMARK   13  A    between atoms: C_51  and  O_52
REMARK                            x       y       z     vdW  Elec       q    Type
REMARK                         _______ _______ _______ _____ _____    ______ ____
ROOT
ATOM      1  O   UNL     1      29.298   0.031   3.792  0.00  0.00    +0.000 OA
ATOM      2  O   UNL     1      25.395  -0.061   2.365  0.00  0.00    +0.000 OA
ATOM      3  O   UNL     1      29.243  -2.150   4.541  0.00  0.00    +0.000 OA
ATOM      4  O   UNL     1      26.451   6.345   3.522  0.00  0.00    +0.000 OA
ATOM      5  O   UNL     1      30.405   2.328   2.530  0.00  0.00    +0.000 OA
ATOM      6  C   UNL     1      26.625   0.428   4.312  0.00  0.00    +0.000 C 
ATOM      7  C   UNL     1      25.788   0.817   3.134  0.00  0.00    +0.000 C 
ATOM      8  C   UNL     1      28.013   0.209   4.086  0.00  0.00    +0.000 C 
ATOM      9  C   UNL     1      25.564   2.340   2.927  0.00  0.00    +0.000 C 
ATOM     10  C   UNL     1      26.823   2.996   2.386  0.00  0.00    +0.000 C 
ATOM     11  C   UNL     1      27.174   4.347   2.677  0.00  0.00    +0.000 C 
ATOM     12  C   UNL     1      29.790  -1.219   3.967  0.00  0.00    +0.000 C 
ATOM     13  C   UNL     1      27.404   5.733   3.053  0.00  0.00    +0.000 C 
ATOM     14  C   UNL     1      31.110  -1.370   3.313  0.00  0.00    +0.000 C 
ATOM     15  C   UNL     1      31.858  -0.291   2.702  0.00  0.00    +0.000 C 
ATOM     16  C   UNL     1      28.755   6.351   2.859  0.00  0.00    +0.000 C 
ATOM     17  C   UNL     1      32.202   0.984   3.320  0.00  0.00    +0.000 C 
ATOM     18  C   UNL     1      32.561   3.369   2.484  0.00  0.00    +0.000 C 
ATOM     19  C   UNL     1      31.616   2.230   2.735  0.00  0.00    +0.000 C 
ATOM     20  C   UNL     1      32.015   4.710   2.262  0.00  0.00    +0.000 C 
ATOM     21  C   UNL     1      29.814   5.661   2.216  0.00  0.00    +0.000 C 
ATOM     22  C   UNL     1      30.762   5.018   1.611  0.00  0.00    +0.000 C 
ATOM     23  C   UNL     1      29.098   7.753   3.316  0.00  0.00    +0.000 C 
ATOM     24  C   UNL     1      32.523   1.013   4.815  0.00  0.00    +0.000 C 
ATOM     25  C   UNL     1      34.061   3.125   2.359  0.00  0.00    +0.000 C 
ATOM     26  C   UNL     1      30.411   4.460   0.254  0.00  0.00    +0.000 C 
ENDROOT
BRANCH   9  27
ATOM     27  O   UNL     1      25.247   2.941   4.183  0.00  0.00    +0.000 OA
ATOM     28  H   UNL     1      25.884   2.593   4.835  0.00  0.00    +0.000 HD
ENDBRANCH   9  27
BRANCH  10  29
ATOM     29  O   UNL     1      27.640   2.256   1.556  0.00  0.00    +0.000 OA
ATOM     30  H   UNL     1      27.520   2.450   0.607  0.00  0.00    +0.000 HD
ENDBRANCH  10  29
BRANCH  14  31
ATOM     31  O   UNL     1      31.665  -2.635   3.222  0.00  0.00    +0.000 OA
ATOM     32  H   UNL     1      31.359  -3.089   2.408  0.00  0.00    +0.000 HD
ENDBRANCH  14  31
BRANCH  15  33
ATOM     33  O   UNL     1      32.700  -0.696   1.680  0.00  0.00    +0.000 OA
ATOM     34  C   UNL     1      32.095  -0.475   0.434  0.00  0.00    +0.000 C 
ENDBRANCH  15  33
BRANCH  20  35
ATOM     35  O   UNL     1      32.890   5.826   2.352  0.00  0.00    +0.000 OA
BRANCH  35  37
ATOM     36  O   UNL     1      33.837   5.930   0.222  0.00  0.00    +0.000 OA
ATOM     37  C   UNL     1      33.205   6.386   1.155  0.00  0.00    +0.000 C 
ATOM     38  C   UNL     1      32.747   7.788   0.990  0.00  0.00    +0.000 C 
ENDBRANCH  35  37
ENDBRANCH  20  35
BRANCH   6  39
ATOM     39  C   UNL     1      26.012   0.184   5.602  0.00  0.00    +0.000 C 
BRANCH  39  41
ATOM     40  O   UNL     1      24.190  -0.891   7.026  0.00  0.00    +0.000 OA
ATOM     41  C   UNL     1      24.896  -0.791   5.764  0.00  0.00    +0.000 C 
ATOM     42  C   UNL     1      23.596  -0.179   6.025  0.00  0.00    +0.000 C 
ATOM     43  C   UNL     1      25.095  -2.236   5.192  0.00  0.00    +0.000 C 
BRANCH  42  44
ATOM     44  C   UNL     1      22.384  -0.681   5.444  0.00  0.00    +0.000 C 
ATOM     45  C   UNL     1      21.188  -0.965   6.317  0.00  0.00    +0.000 C 
BRANCH  44  46
ATOM     46  C   UNL     1      22.107  -0.391   4.081  0.00  0.00    +0.000 C 
ATOM     47  C   UNL     1      21.895  -0.245   2.910  0.00  0.00    +0.000 C 
ATOM     48  C   UNL     1      21.685  -0.188   1.390  0.00  0.00    +0.000 C 
ENDBRANCH  44  46
ENDBRANCH  42  44
ENDBRANCH  39  41
BRANCH  39  49
ATOM     49  O   UNL     1      26.741   0.638   6.692  0.00  0.00    +0.000 OA
ATOM     50  H   UNL     1      26.447   1.518   6.998  0.00  0.00    +0.000 HD
ENDBRANCH  39  49
ENDBRANCH   6  39
BRANCH   9  51
ATOM     51  C   UNL     1      24.449   2.583   1.981  0.00  0.00    +0.000 C 
BRANCH  51  52
ATOM     52  O   UNL     1      23.458   2.824   1.123  0.00  0.00    +0.000 OA
ATOM     53  H   UNL     1      22.611   2.931   1.595  0.00  0.00    +0.000 HD
ENDBRANCH  51  52
ENDBRANCH   9  51
TORSDOF 13
ENDMDL
MODEL 8
REMARK VINA RESULT:      -6.1     29.393     31.771
REMARK  Name = 101808841_CandidaspongiolideA.pdbqt.pdb
REMARK  13 active torsions:
REMARK  status: ('A' for Active; 'I' for Inactive)
REMARK    1  A    between atoms: C_6  and  C_39
REMARK    2  A    between atoms: C_9  and  O_27
REMARK    3  A    between atoms: C_9  and  C_51
REMARK    4  A    between atoms: C_10  and  O_29
REMARK    5  A    between atoms: C_14  and  O_31
REMARK    6  A    between atoms: C_15  and  O_33
REMARK    7  A    between atoms: C_20  and  O_35
REMARK    8  A    between atoms: O_35  and  C_37
REMARK    9  A    between atoms: C_39  and  C_41
REMARK   10  A    between atoms: C_39  and  O_49
REMARK   11  A    between atoms: C_42  and  C_44
REMARK   12  A    between atoms: C_44  and  C_46
REMARK   13  A    between atoms: C_51  and  O_52
REMARK                            x       y       z     vdW  Elec       q    Type
REMARK                         _______ _______ _______ _____ _____    ______ ____
ROOT
ATOM      1  O   UNL     1      33.149 -17.352  37.496  0.00  0.00    +0.000 OA
ATOM      2  O   UNL     1      36.140 -18.396  34.803  0.00  0.00    +0.000 OA
ATOM      3  O   UNL     1      31.922 -19.268  37.117  0.00  0.00    +0.000 OA
ATOM      4  O   UNL     1      36.522 -11.816  35.040  0.00  0.00    +0.000 OA
ATOM      5  O   UNL     1      34.348 -15.285  39.040  0.00  0.00    +0.000 OA
ATOM      6  C   UNL     1      34.077 -17.264  34.907  0.00  0.00    +0.000 C 
ATOM      7  C   UNL     1      35.565 -17.307  34.751  0.00  0.00    +0.000 C 
ATOM      8  C   UNL     1      33.555 -17.311  36.230  0.00  0.00    +0.000 C 
ATOM      9  C   UNL     1      36.282 -15.934  34.631  0.00  0.00    +0.000 C 
ATOM     10  C   UNL     1      36.335 -15.240  35.982  0.00  0.00    +0.000 C 
ATOM     11  C   UNL     1      36.316 -13.821  36.121  0.00  0.00    +0.000 C 
ATOM     12  C   UNL     1      32.414 -18.429  37.859  0.00  0.00    +0.000 C 
ATOM     13  C   UNL     1      36.293 -12.367  36.111  0.00  0.00    +0.000 C 
ATOM     14  C   UNL     1      32.300 -18.526  39.333  0.00  0.00    +0.000 C 
ATOM     15  C   UNL     1      32.772 -17.523  40.266  0.00  0.00    +0.000 C 
ATOM     16  C   UNL     1      36.001 -11.611  37.372  0.00  0.00    +0.000 C 
ATOM     17  C   UNL     1      32.462 -16.099  40.239  0.00  0.00    +0.000 C 
ATOM     18  C   UNL     1      33.679 -13.962  40.921  0.00  0.00    +0.000 C 
ATOM     19  C   UNL     1      33.583 -15.139  39.995  0.00  0.00    +0.000 C 
ATOM     20  C   UNL     1      34.506 -12.817  40.531  0.00  0.00    +0.000 C 
ATOM     21  C   UNL     1      35.846 -12.261  38.622  0.00  0.00    +0.000 C 
ATOM     22  C   UNL     1      35.724 -12.876  39.756  0.00  0.00    +0.000 C 
ATOM     23  C   UNL     1      35.863 -10.104  37.420  0.00  0.00    +0.000 C 
ATOM     24  C   UNL     1      31.070 -15.659  39.782  0.00  0.00    +0.000 C 
ATOM     25  C   UNL     1      33.013 -13.991  42.292  0.00  0.00    +0.000 C 
ATOM     26  C   UNL     1      36.861 -13.793  40.128  0.00  0.00    +0.000 C 
ENDROOT
BRANCH   9  27
ATOM     27  O   UNL     1      35.552 -15.104  33.727  0.00  0.00    +0.000 OA
ATOM     28  H   UNL     1      35.987 -14.232  33.725  0.00  0.00    +0.000 HD
ENDBRANCH   9  27
BRANCH  10  29
ATOM     29  O   UNL     1      36.434 -16.022  37.115  0.00  0.00    +0.000 OA
ATOM     30  H   UNL     1      36.682 -16.949  36.936  0.00  0.00    +0.000 HD
ENDBRANCH  10  29
BRANCH  14  31
ATOM     31  O   UNL     1      31.753 -19.672  39.884  0.00  0.00    +0.000 OA
ATOM     32  H   UNL     1      31.625 -20.359  39.195  0.00  0.00    +0.000 HD
ENDBRANCH  14  31
BRANCH  15  33
ATOM     33  O   UNL     1      33.117 -18.027  41.509  0.00  0.00    +0.000 OA
ATOM     34  C   UNL     1      34.482 -18.347  41.543  0.00  0.00    +0.000 C 
ENDBRANCH  15  33
BRANCH  20  35
ATOM     35  O   UNL     1      34.343 -11.590  41.228  0.00  0.00    +0.000 OA
BRANCH  35  37
ATOM     36  O   UNL     1      35.814 -11.923  43.008  0.00  0.00    +0.000 OA
ATOM     37  C   UNL     1      35.362 -11.289  42.074  0.00  0.00    +0.000 C 
ATOM     38  C   UNL     1      35.979  -9.958  41.849  0.00  0.00    +0.000 C 
ENDBRANCH  35  37
ENDBRANCH  20  35
BRANCH   6  39
ATOM     39  C   UNL     1      33.215 -17.281  33.743  0.00  0.00    +0.000 C 
BRANCH  39  41
ATOM     40  O   UNL     1      31.572 -15.471  34.470  0.00  0.00    +0.000 OA
ATOM     41  C   UNL     1      31.834 -16.722  33.786  0.00  0.00    +0.000 C 
ATOM     42  C   UNL     1      31.683 -15.436  33.110  0.00  0.00    +0.000 C 
ATOM     43  C   UNL     1      30.653 -17.707  34.087  0.00  0.00    +0.000 C 
BRANCH  42  44
ATOM     44  C   UNL     1      30.523 -15.114  32.329  0.00  0.00    +0.000 C 
ATOM     45  C   UNL     1      29.271 -14.617  33.005  0.00  0.00    +0.000 C 
BRANCH  44  46
ATOM     46  C   UNL     1      30.697 -14.725  30.973  0.00  0.00    +0.000 C 
ATOM     47  C   UNL     1      30.871 -14.304  29.864  0.00  0.00    +0.000 C 
ATOM     48  C   UNL     1      31.098 -13.632  28.502  0.00  0.00    +0.000 C 
ENDBRANCH  44  46
ENDBRANCH  42  44
ENDBRANCH  39  41
BRANCH  39  49
ATOM     49  O   UNL     1      33.861 -17.522  32.539  0.00  0.00    +0.000 OA
ATOM     50  H   UNL     1      33.500 -18.298  32.069  0.00  0.00    +0.000 HD
ENDBRANCH  39  49
ENDBRANCH   6  39
BRANCH   9  51
ATOM     51  C   UNL     1      37.663 -16.105  34.122  0.00  0.00    +0.000 C 
BRANCH  51  52
ATOM     52  O   UNL     1      38.915 -16.250  33.688  0.00  0.00    +0.000 OA
ATOM     53  H   UNL     1      39.091 -15.650  32.939  0.00  0.00    +0.000 HD
ENDBRANCH  51  52
ENDBRANCH   9  51
TORSDOF 13
ENDMDL
MODEL 9
REMARK VINA RESULT:      -5.9     20.009     24.975
REMARK  Name = 101808841_CandidaspongiolideA.pdbqt.pdb
REMARK  13 active torsions:
REMARK  status: ('A' for Active; 'I' for Inactive)
REMARK    1  A    between atoms: C_6  and  C_39
REMARK    2  A    between atoms: C_9  and  O_27
REMARK    3  A    between atoms: C_9  and  C_51
REMARK    4  A    between atoms: C_10  and  O_29
REMARK    5  A    between atoms: C_14  and  O_31
REMARK    6  A    between atoms: C_15  and  O_33
REMARK    7  A    between atoms: C_20  and  O_35
REMARK    8  A    between atoms: O_35  and  C_37
REMARK    9  A    between atoms: C_39  and  C_41
REMARK   10  A    between atoms: C_39  and  O_49
REMARK   11  A    between atoms: C_42  and  C_44
REMARK   12  A    between atoms: C_44  and  C_46
REMARK   13  A    between atoms: C_51  and  O_52
REMARK                            x       y       z     vdW  Elec       q    Type
REMARK                         _______ _______ _______ _____ _____    ______ ____
ROOT
ATOM      1  O   UNL     1      41.439 -17.224  -2.993  0.00  0.00    +0.000 OA
ATOM      2  O   UNL     1      39.374 -15.078  -0.093  0.00  0.00    +0.000 OA
ATOM      3  O   UNL     1      43.188 -17.749  -1.584  0.00  0.00    +0.000 OA
ATOM      4  O   UNL     1      37.181 -12.503  -5.755  0.00  0.00    +0.000 OA
ATOM      5  O   UNL     1      39.468 -17.693  -4.991  0.00  0.00    +0.000 OA
ATOM      6  C   UNL     1      40.998 -14.796  -1.775  0.00  0.00    +0.000 C 
ATOM      7  C   UNL     1      39.630 -14.601  -1.200  0.00  0.00    +0.000 C 
ATOM      8  C   UNL     1      41.269 -16.040  -2.410  0.00  0.00    +0.000 C 
ATOM      9  C   UNL     1      38.601 -13.879  -2.111  0.00  0.00    +0.000 C 
ATOM     10  C   UNL     1      38.121 -14.807  -3.215  0.00  0.00    +0.000 C 
ATOM     11  C   UNL     1      37.729 -14.336  -4.502  0.00  0.00    +0.000 C 
ATOM     12  C   UNL     1      42.363 -18.043  -2.437  0.00  0.00    +0.000 C 
ATOM     13  C   UNL     1      37.357 -13.716  -5.764  0.00  0.00    +0.000 C 
ATOM     14  C   UNL     1      42.235 -19.425  -2.956  0.00  0.00    +0.000 C 
ATOM     15  C   UNL     1      41.350 -19.824  -4.031  0.00  0.00    +0.000 C 
ATOM     16  C   UNL     1      37.202 -14.554  -6.997  0.00  0.00    +0.000 C 
ATOM     17  C   UNL     1      41.260 -19.215  -5.353  0.00  0.00    +0.000 C 
ATOM     18  C   UNL     1      39.407 -18.873  -7.074  0.00  0.00    +0.000 C 
ATOM     19  C   UNL     1      39.982 -18.534  -5.730  0.00  0.00    +0.000 C 
ATOM     20  C   UNL     1      38.383 -17.997  -7.649  0.00  0.00    +0.000 C 
ATOM     21  C   UNL     1      37.304 -15.968  -6.965  0.00  0.00    +0.000 C 
ATOM     22  C   UNL     1      37.385 -17.259  -6.909  0.00  0.00    +0.000 C 
ATOM     23  C   UNL     1      36.915 -13.970  -8.364  0.00  0.00    +0.000 C 
ATOM     24  C   UNL     1      42.539 -18.684  -6.005  0.00  0.00    +0.000 C 
ATOM     25  C   UNL     1      39.801 -20.159  -7.790  0.00  0.00    +0.000 C 
ATOM     26  C   UNL     1      36.492 -17.927  -5.893  0.00  0.00    +0.000 C 
ENDROOT
BRANCH   9  27
ATOM     27  O   UNL     1      39.226 -12.746  -2.716  0.00  0.00    +0.000 OA
ATOM     28  H   UNL     1      39.186 -12.879  -3.681  0.00  0.00    +0.000 HD
ENDBRANCH   9  27
BRANCH  10  29
ATOM     29  O   UNL     1      38.039 -16.157  -2.942  0.00  0.00    +0.000 OA
ATOM     30  H   UNL     1      37.294 -16.398  -2.358  0.00  0.00    +0.000 HD
ENDBRANCH  10  29
BRANCH  14  31
ATOM     31  O   UNL     1      42.965 -20.433  -2.352  0.00  0.00    +0.000 OA
ATOM     32  H   UNL     1      42.507 -21.295  -2.445  0.00  0.00    +0.000 HD
ENDBRANCH  14  31
BRANCH  15  33
ATOM     33  O   UNL     1      40.939 -21.145  -3.963  0.00  0.00    +0.000 OA
ATOM     34  C   UNL     1      41.384 -21.852  -5.090  0.00  0.00    +0.000 C 
ENDBRANCH  15  33
BRANCH  20  35
ATOM     35  O   UNL     1      38.079 -18.120  -9.032  0.00  0.00    +0.000 OA
BRANCH  35  37
ATOM     36  O   UNL     1      39.858 -16.809  -9.783  0.00  0.00    +0.000 OA
ATOM     37  C   UNL     1      38.713 -17.217  -9.824  0.00  0.00    +0.000 C 
ATOM     38  C   UNL     1      37.855 -16.601 -10.866  0.00  0.00    +0.000 C 
ENDBRANCH  35  37
ENDBRANCH  20  35
BRANCH   6  39
ATOM     39  C   UNL     1      42.025 -13.792  -1.589  0.00  0.00    +0.000 C 
BRANCH  39  41
ATOM     40  O   UNL     1      44.142 -12.621  -2.398  0.00  0.00    +0.000 OA
ATOM     41  C   UNL     1      42.980 -13.441  -2.679  0.00  0.00    +0.000 C 
ATOM     42  C   UNL     1      44.328 -13.970  -2.491  0.00  0.00    +0.000 C 
ATOM     43  C   UNL     1      42.386 -13.001  -4.061  0.00  0.00    +0.000 C 
BRANCH  42  44
ATOM     44  C   UNL     1      45.105 -14.487  -3.581  0.00  0.00    +0.000 C 
ATOM     45  C   UNL     1      44.695 -15.769  -4.260  0.00  0.00    +0.000 C 
BRANCH  44  46
ATOM     46  C   UNL     1      45.874 -13.584  -4.364  0.00  0.00    +0.000 C 
ATOM     47  C   UNL     1      46.507 -12.886  -5.105  0.00  0.00    +0.000 C 
ATOM     48  C   UNL     1      47.315 -12.101  -6.148  0.00  0.00    +0.000 C 
ENDBRANCH  44  46
ENDBRANCH  42  44
ENDBRANCH  39  41
BRANCH  39  49
ATOM     49  O   UNL     1      41.841 -12.962  -0.492  0.00  0.00    +0.000 OA
ATOM     50  H   UNL     1      41.634 -12.043  -0.748  0.00  0.00    +0.000 HD
ENDBRANCH  39  49
ENDBRANCH   6  39
BRANCH   9  51
ATOM     51  C   UNL     1      37.431 -13.421  -1.324  0.00  0.00    +0.000 C 
BRANCH  51  52
ATOM     52  O   UNL     1      36.363 -13.021  -0.635  0.00  0.00    +0.000 OA
ATOM     53  H   UNL     1      35.689 -12.644  -1.231  0.00  0.00    +0.000 HD
ENDBRANCH  51  52
ENDBRANCH   9  51
TORSDOF 13
ENDMDL
