MODEL 1
REMARK VINA RESULT:      -6.6      0.000      0.000
REMARK  Name = 102471178_CandidaspongiolideCore.pdbqt.pdb
REMARK  13 active torsions:
REMARK  status: ('A' for Active; 'I' for Inactive)
REMARK    1  A    between atoms: C_6  and  C_39
REMARK    2  A    between atoms: C_8  and  O_27
REMARK    3  A    between atoms: C_8  and  C_51
REMARK    4  A    between atoms: C_10  and  O_29
REMARK    5  A    between atoms: C_15  and  O_31
REMARK    6  A    between atoms: C_16  and  O_33
REMARK    7  A    between atoms: C_21  and  O_35
REMARK    8  A    between atoms: O_35  and  C_37
REMARK    9  A    between atoms: C_39  and  C_41
REMARK   10  A    between atoms: C_39  and  O_49
REMARK   11  A    between atoms: C_42  and  C_44
REMARK   12  A    between atoms: C_44  and  C_46
REMARK   13  A    between atoms: C_51  and  O_52
REMARK                            x       y       z     vdW  Elec       q    Type
REMARK                         _______ _______ _______ _____ _____    ______ ____
ROOT
ATOM      1  O   UNL     1      51.132   3.140  36.031  0.00  0.00    +0.000 OA
ATOM      2  O   UNL     1      51.034   3.627  33.788  0.00  0.00    +0.000 OA
ATOM      3  O   UNL     1      49.553   3.110  29.100  0.00  0.00    +0.000 OA
ATOM      4  O   UNL     1      50.902   5.197  36.933  0.00  0.00    +0.000 OA
ATOM      5  O   UNL     1      52.233   6.817  34.106  0.00  0.00    +0.000 OA
ATOM      6  C   UNL     1      50.202   1.542  34.632  0.00  0.00    +0.000 C 
ATOM      7  C   UNL     1      50.340   0.751  33.458  0.00  0.00    +0.000 C 
ATOM      8  C   UNL     1      50.502  -0.194  32.350  0.00  0.00    +0.000 C 
ATOM      9  C   UNL     1      50.824   2.888  34.742  0.00  0.00    +0.000 C 
ATOM     10  C   UNL     1      49.615   0.148  31.173  0.00  0.00    +0.000 C 
ATOM     11  C   UNL     1      49.395   1.465  30.688  0.00  0.00    +0.000 C 
ATOM     12  C   UNL     1      49.237   2.837  30.253  0.00  0.00    +0.000 C 
ATOM     13  C   UNL     1      51.562   4.389  36.290  0.00  0.00    +0.000 C 
ATOM     14  C   UNL     1      48.748   3.882  31.203  0.00  0.00    +0.000 C 
ATOM     15  C   UNL     1      53.002   4.646  36.040  0.00  0.00    +0.000 C 
ATOM     16  C   UNL     1      53.705   4.277  34.828  0.00  0.00    +0.000 C 
ATOM     17  C   UNL     1      53.813   5.096  33.628  0.00  0.00    +0.000 C 
ATOM     18  C   UNL     1      49.198   5.217  31.065  0.00  0.00    +0.000 C 
ATOM     19  C   UNL     1      52.088   5.912  31.916  0.00  0.00    +0.000 C 
ATOM     20  C   UNL     1      48.016   3.533  32.491  0.00  0.00    +0.000 C 
ATOM     21  C   UNL     1      50.955   6.776  31.605  0.00  0.00    +0.000 C 
ATOM     22  C   UNL     1      52.694   6.024  33.282  0.00  0.00    +0.000 C 
ATOM     23  C   UNL     1      49.716   6.401  30.938  0.00  0.00    +0.000 C 
ATOM     24  C   UNL     1      55.144   5.259  32.899  0.00  0.00    +0.000 C 
ATOM     25  C   UNL     1      52.413   4.753  30.983  0.00  0.00    +0.000 C 
ATOM     26  C   UNL     1      48.932   7.377  30.099  0.00  0.00    +0.000 C 
ENDROOT
BRANCH   8  27
ATOM     27  O   UNL     1      50.104  -1.467  32.866  0.00  0.00    +0.000 OA
ATOM     28  H   UNL     1      49.179  -1.571  32.564  0.00  0.00    +0.000 HD
ENDBRANCH   8  27
BRANCH  10  29
ATOM     29  O   UNL     1      49.026  -0.912  30.501  0.00  0.00    +0.000 OA
ATOM     30  H   UNL     1      49.239  -1.772  30.910  0.00  0.00    +0.000 HD
ENDBRANCH  10  29
BRANCH  15  31
ATOM     31  O   UNL     1      53.602   5.684  36.736  0.00  0.00    +0.000 OA
ATOM     32  H   UNL     1      53.778   5.418  37.663  0.00  0.00    +0.000 HD
ENDBRANCH  15  31
BRANCH  16  33
ATOM     33  O   UNL     1      54.717   3.349  34.994  0.00  0.00    +0.000 OA
ATOM     34  C   UNL     1      54.269   2.090  34.557  0.00  0.00    +0.000 C 
ENDBRANCH  16  33
BRANCH  21  35
ATOM     35  O   UNL     1      51.188   8.155  31.840  0.00  0.00    +0.000 OA
BRANCH  35  37
ATOM     36  O   UNL     1      52.139   8.708  29.776  0.00  0.00    +0.000 OA
ATOM     37  C   UNL     1      52.110   8.689  30.993  0.00  0.00    +0.000 C 
ATOM     38  C   UNL     1      53.235   9.388  31.667  0.00  0.00    +0.000 C 
ENDBRANCH  35  37
ENDBRANCH  21  35
BRANCH   6  39
ATOM     39  C   UNL     1      49.359   1.027  35.687  0.00  0.00    +0.000 C 
BRANCH  39  41
ATOM     40  O   UNL     1      50.965  -0.847  36.328  0.00  0.00    +0.000 OA
ATOM     41  C   UNL     1      49.619  -0.321  36.264  0.00  0.00    +0.000 C 
ATOM     42  C   UNL     1      50.463  -0.259  37.454  0.00  0.00    +0.000 C 
ATOM     43  C   UNL     1      48.617  -1.490  35.955  0.00  0.00    +0.000 C 
BRANCH  42  44
ATOM     44  C   UNL     1      50.295  -1.087  38.610  0.00  0.00    +0.000 C 
ATOM     45  C   UNL     1      50.984  -2.430  38.689  0.00  0.00    +0.000 C 
BRANCH  44  46
ATOM     46  C   UNL     1      49.898  -0.523  39.849  0.00  0.00    +0.000 C 
ATOM     47  C   UNL     1      49.576  -0.001  40.879  0.00  0.00    +0.000 C 
ATOM     48  C   UNL     1      49.170   0.730  42.165  0.00  0.00    +0.000 C 
ENDBRANCH  44  46
ENDBRANCH  42  44
ENDBRANCH  39  41
BRANCH  39  49
ATOM     49  O   UNL     1      48.284   1.812  36.070  0.00  0.00    +0.000 OA
ATOM     50  H   UNL     1      48.095   2.559  35.470  0.00  0.00    +0.000 HD
ENDBRANCH  39  49
ENDBRANCH   6  39
BRANCH   8  51
ATOM     51  C   UNL     1      51.905  -0.305  31.920  0.00  0.00    +0.000 C 
BRANCH  51  52
ATOM     52  O   UNL     1      53.186  -0.423  31.569  0.00  0.00    +0.000 OA
ATOM     53  H   UNL     1      53.687   0.388  31.792  0.00  0.00    +0.000 HD
ENDBRANCH  51  52
ENDBRANCH   8  51
TORSDOF 13
ENDMDL
MODEL 2
REMARK VINA RESULT:      -6.4     34.031     36.805
REMARK  Name = 102471178_CandidaspongiolideCore.pdbqt.pdb
REMARK  13 active torsions:
REMARK  status: ('A' for Active; 'I' for Inactive)
REMARK    1  A    between atoms: C_6  and  C_39
REMARK    2  A    between atoms: C_8  and  O_27
REMARK    3  A    between atoms: C_8  and  C_51
REMARK    4  A    between atoms: C_10  and  O_29
REMARK    5  A    between atoms: C_15  and  O_31
REMARK    6  A    between atoms: C_16  and  O_33
REMARK    7  A    between atoms: C_21  and  O_35
REMARK    8  A    between atoms: O_35  and  C_37
REMARK    9  A    between atoms: C_39  and  C_41
REMARK   10  A    between atoms: C_39  and  O_49
REMARK   11  A    between atoms: C_42  and  C_44
REMARK   12  A    between atoms: C_44  and  C_46
REMARK   13  A    between atoms: C_51  and  O_52
REMARK                            x       y       z     vdW  Elec       q    Type
REMARK                         _______ _______ _______ _____ _____    ______ ____
ROOT
ATOM      1  O   UNL     1      20.515  13.734  21.245  0.00  0.00    +0.000 OA
ATOM      2  O   UNL     1      20.008  12.328  19.501  0.00  0.00    +0.000 OA
ATOM      3  O   UNL     1      19.954  10.764  14.811  0.00  0.00    +0.000 OA
ATOM      4  O   UNL     1      21.269  12.263  22.783  0.00  0.00    +0.000 OA
ATOM      5  O   UNL     1      19.384   9.598  21.467  0.00  0.00    +0.000 OA
ATOM      6  C   UNL     1      20.773  14.565  19.097  0.00  0.00    +0.000 C 
ATOM      7  C   UNL     1      20.192  14.776  17.815  0.00  0.00    +0.000 C 
ATOM      8  C   UNL     1      19.588  15.154  16.535  0.00  0.00    +0.000 C 
ATOM      9  C   UNL     1      20.393  13.403  19.943  0.00  0.00    +0.000 C 
ATOM     10  C   UNL     1      20.123  14.330  15.384  0.00  0.00    +0.000 C 
ATOM     11  C   UNL     1      20.360  12.930  15.440  0.00  0.00    +0.000 C 
ATOM     12  C   UNL     1      20.559  11.503  15.580  0.00  0.00    +0.000 C 
ATOM     13  C   UNL     1      20.348  12.723  22.118  0.00  0.00    +0.000 C 
ATOM     14  C   UNL     1      21.439  10.963  16.661  0.00  0.00    +0.000 C 
ATOM     15  C   UNL     1      18.945  12.396  22.475  0.00  0.00    +0.000 C 
ATOM     16  C   UNL     1      17.873  12.216  21.517  0.00  0.00    +0.000 C 
ATOM     17  C   UNL     1      17.522  10.962  20.864  0.00  0.00    +0.000 C 
ATOM     18  C   UNL     1      21.147   9.703  17.237  0.00  0.00    +0.000 C 
ATOM     19  C   UNL     1      18.755   9.472  19.181  0.00  0.00    +0.000 C 
ATOM     20  C   UNL     1      22.468  11.825  17.380  0.00  0.00    +0.000 C 
ATOM     21  C   UNL     1      19.848   8.546  18.904  0.00  0.00    +0.000 C 
ATOM     22  C   UNL     1      18.600   9.963  20.588  0.00  0.00    +0.000 C 
ATOM     23  C   UNL     1      20.773   8.585  17.781  0.00  0.00    +0.000 C 
ATOM     24  C   UNL     1      16.069  10.514  20.739  0.00  0.00    +0.000 C 
ATOM     25  C   UNL     1      18.020  10.119  18.016  0.00  0.00    +0.000 C 
ATOM     26  C   UNL     1      21.394   7.335  17.212  0.00  0.00    +0.000 C 
ENDROOT
BRANCH   8  27
ATOM     27  O   UNL     1      19.951  16.520  16.324  0.00  0.00    +0.000 OA
ATOM     28  H   UNL     1      19.863  16.648  15.358  0.00  0.00    +0.000 HD
ENDBRANCH   8  27
BRANCH  10  29
ATOM     29  O   UNL     1      20.343  14.992  14.187  0.00  0.00    +0.000 OA
ATOM     30  H   UNL     1      20.194  15.952  14.263  0.00  0.00    +0.000 HD
ENDBRANCH  10  29
BRANCH  15  31
ATOM     31  O   UNL     1      18.719  11.765  23.688  0.00  0.00    +0.000 OA
ATOM     32  H   UNL     1      19.360  11.035  23.819  0.00  0.00    +0.000 HD
ENDBRANCH  15  31
BRANCH  16  33
ATOM     33  O   UNL     1      16.844  13.135  21.605  0.00  0.00    +0.000 OA
ATOM     34  C   UNL     1      16.993  14.099  20.592  0.00  0.00    +0.000 C 
ENDBRANCH  16  33
BRANCH  21  35
ATOM     35  O   UNL     1      19.876   7.405  19.746  0.00  0.00    +0.000 OA
BRANCH  35  37
ATOM     36  O   UNL     1      17.665   6.682  19.503  0.00  0.00    +0.000 OA
ATOM     37  C   UNL     1      18.872   6.524  19.480  0.00  0.00    +0.000 C 
ATOM     38  C   UNL     1      19.330   5.173  19.065  0.00  0.00    +0.000 C 
ENDBRANCH  35  37
ENDBRANCH  21  35
BRANCH   6  39
ATOM     39  C   UNL     1      21.816  15.475  19.513  0.00  0.00    +0.000 C 
BRANCH  39  41
ATOM     40  O   UNL     1      22.560  17.859  20.029  0.00  0.00    +0.000 OA
ATOM     41  C   UNL     1      21.589  16.947  19.465  0.00  0.00    +0.000 C 
ATOM     42  C   UNL     1      22.610  17.636  18.681  0.00  0.00    +0.000 C 
ATOM     43  C   UNL     1      20.143  17.506  19.712  0.00  0.00    +0.000 C 
BRANCH  42  44
ATOM     44  C   UNL     1      22.355  18.751  17.820  0.00  0.00    +0.000 C 
ATOM     45  C   UNL     1      22.343  20.155  18.378  0.00  0.00    +0.000 C 
BRANCH  44  46
ATOM     46  C   UNL     1      22.566  18.644  16.422  0.00  0.00    +0.000 C 
ATOM     47  C   UNL     1      22.746  18.505  15.244  0.00  0.00    +0.000 C 
ATOM     48  C   UNL     1      22.965  18.256  13.747  0.00  0.00    +0.000 C 
ENDBRANCH  44  46
ENDBRANCH  42  44
ENDBRANCH  39  41
BRANCH  39  49
ATOM     49  O   UNL     1      23.027  14.914  19.881  0.00  0.00    +0.000 OA
ATOM     50  H   UNL     1      23.026  13.938  19.920  0.00  0.00    +0.000 HD
ENDBRANCH  39  49
ENDBRANCH   6  39
BRANCH   8  51
ATOM     51  C   UNL     1      18.118  15.083  16.576  0.00  0.00    +0.000 C 
BRANCH  51  52
ATOM     52  O   UNL     1      16.788  15.032  16.655  0.00  0.00    +0.000 OA
ATOM     53  H   UNL     1      16.427  15.869  17.013  0.00  0.00    +0.000 HD
ENDBRANCH  51  52
ENDBRANCH   8  51
TORSDOF 13
ENDMDL
MODEL 3
REMARK VINA RESULT:      -6.3     23.458     26.261
REMARK  Name = 102471178_CandidaspongiolideCore.pdbqt.pdb
REMARK  13 active torsions:
REMARK  status: ('A' for Active; 'I' for Inactive)
REMARK    1  A    between atoms: C_6  and  C_39
REMARK    2  A    between atoms: C_8  and  O_27
REMARK    3  A    between atoms: C_8  and  C_51
REMARK    4  A    between atoms: C_10  and  O_29
REMARK    5  A    between atoms: C_15  and  O_31
REMARK    6  A    between atoms: C_16  and  O_33
REMARK    7  A    between atoms: C_21  and  O_35
REMARK    8  A    between atoms: O_35  and  C_37
REMARK    9  A    between atoms: C_39  and  C_41
REMARK   10  A    between atoms: C_39  and  O_49
REMARK   11  A    between atoms: C_42  and  C_44
REMARK   12  A    between atoms: C_44  and  C_46
REMARK   13  A    between atoms: C_51  and  O_52
REMARK                            x       y       z     vdW  Elec       q    Type
REMARK                         _______ _______ _______ _____ _____    ______ ____
ROOT
ATOM      1  O   UNL     1      44.086   2.043  10.195  0.00  0.00    +0.000 OA
ATOM      2  O   UNL     1      41.816   1.719  10.074  0.00  0.00    +0.000 OA
ATOM      3  O   UNL     1      37.613  -0.362   8.511  0.00  0.00    +0.000 OA
ATOM      4  O   UNL     1      44.396   2.118  12.430  0.00  0.00    +0.000 OA
ATOM      5  O   UNL     1      41.121   3.241  13.059  0.00  0.00    +0.000 OA
ATOM      6  C   UNL     1      43.280   0.805   8.409  0.00  0.00    +0.000 C 
ATOM      7  C   UNL     1      42.365   0.724   7.323  0.00  0.00    +0.000 C 
ATOM      8  C   UNL     1      41.555   0.661   6.103  0.00  0.00    +0.000 C 
ATOM      9  C   UNL     1      42.953   1.558   9.649  0.00  0.00    +0.000 C 
ATOM     10  C   UNL     1      40.415  -0.327   6.226  0.00  0.00    +0.000 C 
ATOM     11  C   UNL     1      39.605  -0.480   7.382  0.00  0.00    +0.000 C 
ATOM     12  C   UNL     1      38.820  -0.560   8.597  0.00  0.00    +0.000 C 
ATOM     13  C   UNL     1      43.947   2.616  11.405  0.00  0.00    +0.000 C 
ATOM     14  C   UNL     1      39.482  -0.830   9.909  0.00  0.00    +0.000 C 
ATOM     15  C   UNL     1      43.504   4.033  11.407  0.00  0.00    +0.000 C 
ATOM     16  C   UNL     1      42.385   4.545  10.644  0.00  0.00    +0.000 C 
ATOM     17  C   UNL     1      40.999   4.584  11.092  0.00  0.00    +0.000 C 
ATOM     18  C   UNL     1      38.936  -0.277  11.093  0.00  0.00    +0.000 C 
ATOM     19  C   UNL     1      39.293   2.747  11.628  0.00  0.00    +0.000 C 
ATOM     20  C   UNL     1      40.877  -1.430  10.010  0.00  0.00    +0.000 C 
ATOM     21  C   UNL     1      38.858   1.670  12.511  0.00  0.00    +0.000 C 
ATOM     22  C   UNL     1      40.512   3.523  12.025  0.00  0.00    +0.000 C 
ATOM     23  C   UNL     1      38.437   0.330  12.126  0.00  0.00    +0.000 C 
ATOM     24  C   UNL     1      40.135   5.825  10.890  0.00  0.00    +0.000 C 
ATOM     25  C   UNL     1      38.694   2.846  10.231  0.00  0.00    +0.000 C 
ATOM     26  C   UNL     1      37.435  -0.455  12.932  0.00  0.00    +0.000 C 
ENDROOT
BRANCH   8  27
ATOM     27  O   UNL     1      42.439   0.211   5.074  0.00  0.00    +0.000 OA
ATOM     28  H   UNL     1      42.735  -0.671   5.378  0.00  0.00    +0.000 HD
ENDBRANCH   8  27
BRANCH  10  29
ATOM     29  O   UNL     1      40.122  -1.090   5.106  0.00  0.00    +0.000 OA
ATOM     30  H   UNL     1      40.912  -1.260   4.559  0.00  0.00    +0.000 HD
ENDBRANCH  10  29
BRANCH  15  31
ATOM     31  O   UNL     1      43.826   4.807  12.511  0.00  0.00    +0.000 OA
ATOM     32  H   UNL     1      43.193   4.642  13.242  0.00  0.00    +0.000 HD
ENDBRANCH  15  31
BRANCH  16  33
ATOM     33  O   UNL     1      42.710   5.479   9.676  0.00  0.00    +0.000 OA
ATOM     34  C   UNL     1      42.645   4.875   8.407  0.00  0.00    +0.000 C 
ENDBRANCH  16  33
BRANCH  21  35
ATOM     35  O   UNL     1      38.677   2.058  13.862  0.00  0.00    +0.000 OA
BRANCH  35  37
ATOM     36  O   UNL     1      37.958   4.262  14.176  0.00  0.00    +0.000 OA
ATOM     37  C   UNL     1      37.777   3.069  14.009  0.00  0.00    +0.000 C 
ATOM     38  C   UNL     1      36.355   2.648  13.912  0.00  0.00    +0.000 C 
ENDBRANCH  35  37
ENDBRANCH  21  35
BRANCH   6  39
ATOM     39  C   UNL     1      44.509   0.052   8.303  0.00  0.00    +0.000 C 
BRANCH  39  41
ATOM     40  O   UNL     1      45.945  -1.721   9.442  0.00  0.00    +0.000 OA
ATOM     41  C   UNL     1      44.648  -1.258   8.999  0.00  0.00    +0.000 C 
ATOM     42  C   UNL     1      45.144  -1.107  10.364  0.00  0.00    +0.000 C 
ATOM     43  C   UNL     1      43.799  -2.481   8.501  0.00  0.00    +0.000 C 
BRANCH  42  44
ATOM     44  C   UNL     1      44.702  -1.891  11.477  0.00  0.00    +0.000 C 
ATOM     45  C   UNL     1      43.461  -1.493  12.241  0.00  0.00    +0.000 C 
BRANCH  44  46
ATOM     46  C   UNL     1      45.099  -3.246  11.607  0.00  0.00    +0.000 C 
ATOM     47  C   UNL     1      45.424  -4.389  11.766  0.00  0.00    +0.000 C 
ATOM     48  C   UNL     1      45.811  -5.849  12.034  0.00  0.00    +0.000 C 
ENDBRANCH  44  46
ENDBRANCH  42  44
ENDBRANCH  39  41
BRANCH  39  49
ATOM     49  O   UNL     1      45.544   0.639   7.594  0.00  0.00    +0.000 OA
ATOM     50  H   UNL     1      45.935   0.069   6.904  0.00  0.00    +0.000 HD
ENDBRANCH  39  49
ENDBRANCH   6  39
BRANCH   8  51
ATOM     51  C   UNL     1      41.046   1.985   5.710  0.00  0.00    +0.000 C 
BRANCH  51  52
ATOM     52  O   UNL     1      40.627   3.198   5.349  0.00  0.00    +0.000 OA
ATOM     53  H   UNL     1      39.824   3.140   4.793  0.00  0.00    +0.000 HD
ENDBRANCH  51  52
ENDBRANCH   8  51
TORSDOF 13
ENDMDL
MODEL 4
REMARK VINA RESULT:      -6.3     37.325     40.591
REMARK  Name = 102471178_CandidaspongiolideCore.pdbqt.pdb
REMARK  13 active torsions:
REMARK  status: ('A' for Active; 'I' for Inactive)
REMARK    1  A    between atoms: C_6  and  C_39
REMARK    2  A    between atoms: C_8  and  O_27
REMARK    3  A    between atoms: C_8  and  C_51
REMARK    4  A    between atoms: C_10  and  O_29
REMARK    5  A    between atoms: C_15  and  O_31
REMARK    6  A    between atoms: C_16  and  O_33
REMARK    7  A    between atoms: C_21  and  O_35
REMARK    8  A    between atoms: O_35  and  C_37
REMARK    9  A    between atoms: C_39  and  C_41
REMARK   10  A    between atoms: C_39  and  O_49
REMARK   11  A    between atoms: C_42  and  C_44
REMARK   12  A    between atoms: C_44  and  C_46
REMARK   13  A    between atoms: C_51  and  O_52
REMARK                            x       y       z     vdW  Elec       q    Type
REMARK                         _______ _______ _______ _____ _____    ______ ____
ROOT
ATOM      1  O   UNL     1      23.929   3.541   5.560  0.00  0.00    +0.000 OA
ATOM      2  O   UNL     1      24.284   2.250   3.694  0.00  0.00    +0.000 OA
ATOM      3  O   UNL     1      24.071  -1.816   0.891  0.00  0.00    +0.000 OA
ATOM      4  O   UNL     1      23.141   5.442   4.630  0.00  0.00    +0.000 OA
ATOM      5  O   UNL     1      24.807   4.889   1.580  0.00  0.00    +0.000 OA
ATOM      6  C   UNL     1      23.646   1.251   5.779  0.00  0.00    +0.000 C 
ATOM      7  C   UNL     1      24.192  -0.048   5.585  0.00  0.00    +0.000 C 
ATOM      8  C   UNL     1      24.773  -1.393   5.550  0.00  0.00    +0.000 C 
ATOM      9  C   UNL     1      23.983   2.381   4.874  0.00  0.00    +0.000 C 
ATOM     10  C   UNL     1      24.146  -2.259   4.479  0.00  0.00    +0.000 C 
ATOM     11  C   UNL     1      23.824  -1.810   3.169  0.00  0.00    +0.000 C 
ATOM     12  C   UNL     1      23.542  -1.274   1.855  0.00  0.00    +0.000 C 
ATOM     13  C   UNL     1      24.064   4.658   4.822  0.00  0.00    +0.000 C 
ATOM     14  C   UNL     1      22.669  -0.071   1.699  0.00  0.00    +0.000 C 
ATOM     15  C   UNL     1      25.456   5.068   4.510  0.00  0.00    +0.000 C 
ATOM     16  C   UNL     1      26.479   4.181   3.997  0.00  0.00    +0.000 C 
ATOM     17  C   UNL     1      26.728   3.898   2.589  0.00  0.00    +0.000 C 
ATOM     18  C   UNL     1      22.903   0.829   0.630  0.00  0.00    +0.000 C 
ATOM     19  C   UNL     1      25.345   2.719   0.781  0.00  0.00    +0.000 C 
ATOM     20  C   UNL     1      21.723   0.397   2.796  0.00  0.00    +0.000 C 
ATOM     21  C   UNL     1      24.187   2.730  -0.106  0.00  0.00    +0.000 C 
ATOM     22  C   UNL     1      25.580   3.930   1.631  0.00  0.00    +0.000 C 
ATOM     23  C   UNL     1      23.226   1.657  -0.316  0.00  0.00    +0.000 C 
ATOM     24  C   UNL     1      28.145   3.878   2.024  0.00  0.00    +0.000 C 
ATOM     25  C   UNL     1      26.076   1.407   1.027  0.00  0.00    +0.000 C 
ATOM     26  C   UNL     1      22.508   1.470  -1.628  0.00  0.00    +0.000 C 
ENDROOT
BRANCH   8  27
ATOM     27  O   UNL     1      24.488  -1.971   6.826  0.00  0.00    +0.000 OA
ATOM     28  H   UNL     1      24.119  -2.852   6.616  0.00  0.00    +0.000 HD
ENDBRANCH   8  27
BRANCH  10  29
ATOM     29  O   UNL     1      23.924  -3.589   4.796  0.00  0.00    +0.000 OA
ATOM     30  H   UNL     1      24.097  -4.183   4.041  0.00  0.00    +0.000 HD
ENDBRANCH  10  29
BRANCH  15  31
ATOM     31  O   UNL     1      25.686   6.405   4.226  0.00  0.00    +0.000 OA
ATOM     32  H   UNL     1      26.254   6.809   4.916  0.00  0.00    +0.000 HD
ENDBRANCH  15  31
BRANCH  16  33
ATOM     33  O   UNL     1      27.566   3.991   4.830  0.00  0.00    +0.000 OA
ATOM     34  C   UNL     1      27.639   2.635   5.198  0.00  0.00    +0.000 C 
ENDBRANCH  16  33
BRANCH  21  35
ATOM     35  O   UNL     1      24.117   3.857  -0.965  0.00  0.00    +0.000 OA
BRANCH  35  37
ATOM     36  O   UNL     1      25.497   3.053  -2.674  0.00  0.00    +0.000 OA
ATOM     37  C   UNL     1      25.130   3.895  -1.874  0.00  0.00    +0.000 C 
ATOM     38  C   UNL     1      25.875   5.180  -1.915  0.00  0.00    +0.000 C 
ENDBRANCH  35  37
ENDBRANCH  21  35
BRANCH   6  39
ATOM     39  C   UNL     1      22.678   1.415   6.839  0.00  0.00    +0.000 C 
BRANCH  39  41
ATOM     40  O   UNL     1      21.146  -0.541   6.265  0.00  0.00    +0.000 OA
ATOM     41  C   UNL     1      21.316   0.825   6.709  0.00  0.00    +0.000 C 
ATOM     42  C   UNL     1      21.116  -0.306   7.611  0.00  0.00    +0.000 C 
ATOM     43  C   UNL     1      20.152   1.709   6.135  0.00  0.00    +0.000 C 
BRANCH  42  44
ATOM     44  C   UNL     1      19.894  -0.586   8.301  0.00  0.00    +0.000 C 
ATOM     45  C   UNL     1      18.785  -1.341   7.606  0.00  0.00    +0.000 C 
BRANCH  44  46
ATOM     46  C   UNL     1      19.853  -0.594   9.719  0.00  0.00    +0.000 C 
ATOM     47  C   UNL     1      19.789  -0.562  10.916  0.00  0.00    +0.000 C 
ATOM     48  C   UNL     1      19.653  -0.473  12.441  0.00  0.00    +0.000 C 
ENDBRANCH  44  46
ENDBRANCH  42  44
ENDBRANCH  39  41
BRANCH  39  49
ATOM     49  O   UNL     1      23.059   2.190   7.922  0.00  0.00    +0.000 OA
ATOM     50  H   UNL     1      23.475   3.040   7.683  0.00  0.00    +0.000 HD
ENDBRANCH  39  49
ENDBRANCH   6  39
BRANCH   8  51
ATOM     51  C   UNL     1      26.236  -1.359   5.390  0.00  0.00    +0.000 C 
BRANCH  51  52
ATOM     52  O   UNL     1      27.555  -1.322   5.202  0.00  0.00    +0.000 OA
ATOM     53  H   UNL     1      28.032  -1.415   6.052  0.00  0.00    +0.000 HD
ENDBRANCH  51  52
ENDBRANCH   8  51
TORSDOF 13
ENDMDL
MODEL 5
REMARK VINA RESULT:      -6.1     34.242     37.172
REMARK  Name = 102471178_CandidaspongiolideCore.pdbqt.pdb
REMARK  13 active torsions:
REMARK  status: ('A' for Active; 'I' for Inactive)
REMARK    1  A    between atoms: C_6  and  C_39
REMARK    2  A    between atoms: C_8  and  O_27
REMARK    3  A    between atoms: C_8  and  C_51
REMARK    4  A    between atoms: C_10  and  O_29
REMARK    5  A    between atoms: C_15  and  O_31
REMARK    6  A    between atoms: C_16  and  O_33
REMARK    7  A    between atoms: C_21  and  O_35
REMARK    8  A    between atoms: O_35  and  C_37
REMARK    9  A    between atoms: C_39  and  C_41
REMARK   10  A    between atoms: C_39  and  O_49
REMARK   11  A    between atoms: C_42  and  C_44
REMARK   12  A    between atoms: C_44  and  C_46
REMARK   13  A    between atoms: C_51  and  O_52
REMARK                            x       y       z     vdW  Elec       q    Type
REMARK                         _______ _______ _______ _____ _____    ______ ____
ROOT
ATOM      1  O   UNL     1      18.665  13.910  21.952  0.00  0.00    +0.000 OA
ATOM      2  O   UNL     1      18.853  12.673  20.026  0.00  0.00    +0.000 OA
ATOM      3  O   UNL     1      19.964  11.809  15.287  0.00  0.00    +0.000 OA
ATOM      4  O   UNL     1      19.564  12.496  23.466  0.00  0.00    +0.000 OA
ATOM      5  O   UNL     1      18.743   9.632  21.592  0.00  0.00    +0.000 OA
ATOM      6  C   UNL     1      18.999  15.066  19.971  0.00  0.00    +0.000 C 
ATOM      7  C   UNL     1      18.584  15.288  18.628  0.00  0.00    +0.000 C 
ATOM      8  C   UNL     1      18.100  15.664  17.298  0.00  0.00    +0.000 C 
ATOM      9  C   UNL     1      18.842  13.741  20.626  0.00  0.00    +0.000 C 
ATOM     10  C   UNL     1      19.017  15.177  16.197  0.00  0.00    +0.000 C 
ATOM     11  C   UNL     1      19.633  13.897  16.171  0.00  0.00    +0.000 C 
ATOM     12  C   UNL     1      20.208  12.570  16.217  0.00  0.00    +0.000 C 
ATOM     13  C   UNL     1      18.663  12.781  22.685  0.00  0.00    +0.000 C 
ATOM     14  C   UNL     1      21.030  12.141  17.389  0.00  0.00    +0.000 C 
ATOM     15  C   UNL     1      17.375  12.047  22.747  0.00  0.00    +0.000 C 
ATOM     16  C   UNL     1      16.558  11.721  21.596  0.00  0.00    +0.000 C 
ATOM     17  C   UNL     1      16.684  10.520  20.780  0.00  0.00    +0.000 C 
ATOM     18  C   UNL     1      21.026  10.782  17.786  0.00  0.00    +0.000 C 
ATOM     19  C   UNL     1      18.533   9.658  19.228  0.00  0.00    +0.000 C 
ATOM     20  C   UNL     1      21.647  13.138  18.360  0.00  0.00    +0.000 C 
ATOM     21  C   UNL     1      19.874   9.104  19.076  0.00  0.00    +0.000 C 
ATOM     22  C   UNL     1      18.031   9.892  20.620  0.00  0.00    +0.000 C 
ATOM     23  C   UNL     1      20.909   9.541  18.150  0.00  0.00    +0.000 C 
ATOM     24  C   UNL     1      15.456   9.723  20.349  0.00  0.00    +0.000 C 
ATOM     25  C   UNL     1      17.830  10.240  18.009  0.00  0.00    +0.000 C 
ATOM     26  C   UNL     1      21.941   8.592  17.597  0.00  0.00    +0.000 C 
ENDROOT
BRANCH   8  27
ATOM     27  O   UNL     1      18.085  17.093  17.280  0.00  0.00    +0.000 OA
ATOM     28  H   UNL     1      17.396  17.335  17.932  0.00  0.00    +0.000 HD
ENDBRANCH   8  27
BRANCH  10  29
ATOM     29  O   UNL     1      19.219  16.032  15.124  0.00  0.00    +0.000 OA
ATOM     30  H   UNL     1      19.160  15.569  14.268  0.00  0.00    +0.000 HD
ENDBRANCH  10  29
BRANCH  15  31
ATOM     31  O   UNL     1      17.156  11.219  23.836  0.00  0.00    +0.000 OA
ATOM     32  H   UNL     1      17.256  10.278  23.577  0.00  0.00    +0.000 HD
ENDBRANCH  15  31
BRANCH  16  33
ATOM     33  O   UNL     1      15.308  12.312  21.574  0.00  0.00    +0.000 OA
ATOM     34  C   UNL     1      15.320  13.391  20.672  0.00  0.00    +0.000 C 
ENDBRANCH  16  33
BRANCH  21  35
ATOM     35  O   UNL     1      20.099   7.907  19.803  0.00  0.00    +0.000 OA
BRANCH  35  37
ATOM     36  O   UNL     1      19.545   6.307  18.189  0.00  0.00    +0.000 OA
ATOM     37  C   UNL     1      19.439   6.836  19.280  0.00  0.00    +0.000 C 
ATOM     38  C   UNL     1      18.467   6.198  20.206  0.00  0.00    +0.000 C 
ENDBRANCH  35  37
ENDBRANCH  21  35
BRANCH   6  39
ATOM     39  C   UNL     1      19.661  16.155  20.652  0.00  0.00    +0.000 C 
BRANCH  39  41
ATOM     40  O   UNL     1      20.742  17.687  18.924  0.00  0.00    +0.000 OA
ATOM     41  C   UNL     1      20.867  16.791  20.052  0.00  0.00    +0.000 C 
ATOM     42  C   UNL     1      20.838  18.247  20.167  0.00  0.00    +0.000 C 
ATOM     43  C   UNL     1      22.183  15.947  19.905  0.00  0.00    +0.000 C 
BRANCH  42  44
ATOM     44  C   UNL     1      21.983  19.062  20.435  0.00  0.00    +0.000 C 
ATOM     45  C   UNL     1      22.920  19.449  19.314  0.00  0.00    +0.000 C 
BRANCH  44  46
ATOM     46  C   UNL     1      22.027  19.886  21.588  0.00  0.00    +0.000 C 
ATOM     47  C   UNL     1      22.063  20.542  22.591  0.00  0.00    +0.000 C 
ATOM     48  C   UNL     1      22.124  21.321  23.911  0.00  0.00    +0.000 C 
ENDBRANCH  44  46
ENDBRANCH  42  44
ENDBRANCH  39  41
BRANCH  39  49
ATOM     49  O   UNL     1      19.163  16.514  21.894  0.00  0.00    +0.000 OA
ATOM     50  H   UNL     1      18.269  16.172  22.085  0.00  0.00    +0.000 HD
ENDBRANCH  39  49
ENDBRANCH   6  39
BRANCH   8  51
ATOM     51  C   UNL     1      16.723  15.199  17.060  0.00  0.00    +0.000 C 
BRANCH  51  52
ATOM     52  O   UNL     1      15.480  14.752  16.881  0.00  0.00    +0.000 OA
ATOM     53  H   UNL     1      15.294  14.603  15.932  0.00  0.00    +0.000 HD
ENDBRANCH  51  52
ENDBRANCH   8  51
TORSDOF 13
ENDMDL
MODEL 6
REMARK VINA RESULT:      -5.9      1.881      2.798
REMARK  Name = 102471178_CandidaspongiolideCore.pdbqt.pdb
REMARK  13 active torsions:
REMARK  status: ('A' for Active; 'I' for Inactive)
REMARK    1  A    between atoms: C_6  and  C_39
REMARK    2  A    between atoms: C_8  and  O_27
REMARK    3  A    between atoms: C_8  and  C_51
REMARK    4  A    between atoms: C_10  and  O_29
REMARK    5  A    between atoms: C_15  and  O_31
REMARK    6  A    between atoms: C_16  and  O_33
REMARK    7  A    between atoms: C_21  and  O_35
REMARK    8  A    between atoms: O_35  and  C_37
REMARK    9  A    between atoms: C_39  and  C_41
REMARK   10  A    between atoms: C_39  and  O_49
REMARK   11  A    between atoms: C_42  and  C_44
REMARK   12  A    between atoms: C_44  and  C_46
REMARK   13  A    between atoms: C_51  and  O_52
REMARK                            x       y       z     vdW  Elec       q    Type
REMARK                         _______ _______ _______ _____ _____    ______ ____
ROOT
ATOM      1  O   UNL     1      52.142   4.365  37.535  0.00  0.00    +0.000 OA
ATOM      2  O   UNL     1      51.751   3.788  35.346  0.00  0.00    +0.000 OA
ATOM      3  O   UNL     1      50.549   0.804  31.592  0.00  0.00    +0.000 OA
ATOM      4  O   UNL     1      50.984   6.297  37.688  0.00  0.00    +0.000 OA
ATOM      5  O   UNL     1      51.286   6.997  34.252  0.00  0.00    +0.000 OA
ATOM      6  C   UNL     1      52.046   2.105  37.028  0.00  0.00    +0.000 C 
ATOM      7  C   UNL     1      52.507   1.040  36.206  0.00  0.00    +0.000 C 
ATOM      8  C   UNL     1      53.066  -0.111  35.492  0.00  0.00    +0.000 C 
ATOM      9  C   UNL     1      51.950   3.498  36.519  0.00  0.00    +0.000 C 
ATOM     10  C   UNL     1      52.087  -0.699  34.499  0.00  0.00    +0.000 C 
ATOM     11  C   UNL     1      51.248   0.068  33.648  0.00  0.00    +0.000 C 
ATOM     12  C   UNL     1      50.439   0.926  32.807  0.00  0.00    +0.000 C 
ATOM     13  C   UNL     1      51.929   5.660  37.239  0.00  0.00    +0.000 C 
ATOM     14  C   UNL     1      49.540   1.953  33.416  0.00  0.00    +0.000 C 
ATOM     15  C   UNL     1      53.061   6.375  36.598  0.00  0.00    +0.000 C 
ATOM     16  C   UNL     1      53.816   5.875  35.468  0.00  0.00    +0.000 C 
ATOM     17  C   UNL     1      53.481   6.084  34.065  0.00  0.00    +0.000 C 
ATOM     18  C   UNL     1      49.291   3.163  32.723  0.00  0.00    +0.000 C 
ATOM     19  C   UNL     1      51.522   5.301  32.609  0.00  0.00    +0.000 C 
ATOM     20  C   UNL     1      49.106   1.895  34.874  0.00  0.00    +0.000 C 
ATOM     21  C   UNL     1      50.104   5.388  32.277  0.00  0.00    +0.000 C 
ATOM     22  C   UNL     1      52.044   6.214  33.676  0.00  0.00    +0.000 C 
ATOM     23  C   UNL     1      49.176   4.283  32.078  0.00  0.00    +0.000 C 
ATOM     24  C   UNL     1      54.547   6.478  33.047  0.00  0.00    +0.000 C 
ATOM     25  C   UNL     1      52.332   4.120  32.092  0.00  0.00    +0.000 C 
ATOM     26  C   UNL     1      47.994   4.390  31.149  0.00  0.00    +0.000 C 
ENDROOT
BRANCH   8  27
ATOM     27  O   UNL     1      53.343  -1.092  36.494  0.00  0.00    +0.000 OA
ATOM     28  H   UNL     1      53.822  -0.598  37.190  0.00  0.00    +0.000 HD
ENDBRANCH   8  27
BRANCH  10  29
ATOM     29  O   UNL     1      52.056  -2.080  34.390  0.00  0.00    +0.000 OA
ATOM     30  H   UNL     1      52.710  -2.415  33.748  0.00  0.00    +0.000 HD
ENDBRANCH  10  29
BRANCH  15  31
ATOM     31  O   UNL     1      53.113   7.753  36.735  0.00  0.00    +0.000 OA
ATOM     32  H   UNL     1      53.625   8.152  35.999  0.00  0.00    +0.000 HD
ENDBRANCH  15  31
BRANCH  16  33
ATOM     33  O   UNL     1      55.154   5.625  35.716  0.00  0.00    +0.000 OA
ATOM     34  C   UNL     1      55.348   4.241  35.869  0.00  0.00    +0.000 C 
ENDBRANCH  16  33
BRANCH  21  35
ATOM     35  O   UNL     1      49.656   6.695  31.957  0.00  0.00    +0.000 OA
BRANCH  35  37
ATOM     36  O   UNL     1      50.034   6.803  29.651  0.00  0.00    +0.000 OA
ATOM     37  C   UNL     1      50.194   7.172  30.801  0.00  0.00    +0.000 C 
ATOM     38  C   UNL     1      51.086   8.348  30.974  0.00  0.00    +0.000 C 
ENDBRANCH  35  37
ENDBRANCH  21  35
BRANCH   6  39
ATOM     39  C   UNL     1      51.586   1.769  38.357  0.00  0.00    +0.000 C 
BRANCH  39  41
ATOM     40  O   UNL     1      50.888  -0.683  38.294  0.00  0.00    +0.000 OA
ATOM     41  C   UNL     1      50.563   0.703  38.549  0.00  0.00    +0.000 C 
ATOM     42  C   UNL     1      50.946  -0.248  39.589  0.00  0.00    +0.000 C 
ATOM     43  C   UNL     1      49.080   0.980  38.113  0.00  0.00    +0.000 C 
BRANCH  42  44
ATOM     44  C   UNL     1      50.036  -0.838  40.523  0.00  0.00    +0.000 C 
ATOM     45  C   UNL     1      49.921  -2.341  40.626  0.00  0.00    +0.000 C 
BRANCH  44  46
ATOM     46  C   UNL     1      49.586  -0.105  41.651  0.00  0.00    +0.000 C 
ATOM     47  C   UNL     1      49.176   0.477  42.616  0.00  0.00    +0.000 C 
ATOM     48  C   UNL     1      48.619   1.160  43.871  0.00  0.00    +0.000 C 
ENDBRANCH  44  46
ENDBRANCH  42  44
ENDBRANCH  39  41
BRANCH  39  49
ATOM     49  O   UNL     1      52.088   2.524  39.404  0.00  0.00    +0.000 OA
ATOM     50  H   UNL     1      52.495   2.000  40.121  0.00  0.00    +0.000 HD
ENDBRANCH  39  49
ENDBRANCH   6  39
BRANCH   8  51
ATOM     51  C   UNL     1      54.337   0.217  34.825  0.00  0.00    +0.000 C 
BRANCH  51  52
ATOM     52  O   UNL     1      55.506   0.480  34.239  0.00  0.00    +0.000 OA
ATOM     53  H   UNL     1      55.838   1.362  34.501  0.00  0.00    +0.000 HD
ENDBRANCH  51  52
ENDBRANCH   8  51
TORSDOF 13
ENDMDL
MODEL 7
REMARK VINA RESULT:      -5.7     32.595     35.484
REMARK  Name = 102471178_CandidaspongiolideCore.pdbqt.pdb
REMARK  13 active torsions:
REMARK  status: ('A' for Active; 'I' for Inactive)
REMARK    1  A    between atoms: C_6  and  C_39
REMARK    2  A    between atoms: C_8  and  O_27
REMARK    3  A    between atoms: C_8  and  C_51
REMARK    4  A    between atoms: C_10  and  O_29
REMARK    5  A    between atoms: C_15  and  O_31
REMARK    6  A    between atoms: C_16  and  O_33
REMARK    7  A    between atoms: C_21  and  O_35
REMARK    8  A    between atoms: O_35  and  C_37
REMARK    9  A    between atoms: C_39  and  C_41
REMARK   10  A    between atoms: C_39  and  O_49
REMARK   11  A    between atoms: C_42  and  C_44
REMARK   12  A    between atoms: C_44  and  C_46
REMARK   13  A    between atoms: C_51  and  O_52
REMARK                            x       y       z     vdW  Elec       q    Type
REMARK                         _______ _______ _______ _____ _____    ______ ____
ROOT
ATOM      1  O   UNL     1      13.513   4.713  37.364  0.00  0.00    +0.000 OA
ATOM      2  O   UNL     1      15.367   5.399  36.193  0.00  0.00    +0.000 OA
ATOM      3  O   UNL     1      20.191   5.922  35.247  0.00  0.00    +0.000 OA
ATOM      4  O   UNL     1      12.259   3.825  35.710  0.00  0.00    +0.000 OA
ATOM      5  O   UNL     1      13.718   5.850  33.229  0.00  0.00    +0.000 OA
ATOM      6  C   UNL     1      15.552   4.659  38.467  0.00  0.00    +0.000 C 
ATOM      7  C   UNL     1      16.732   5.360  38.839  0.00  0.00    +0.000 C 
ATOM      8  C   UNL     1      17.888   6.084  39.376  0.00  0.00    +0.000 C 
ATOM      9  C   UNL     1      14.829   4.964  37.204  0.00  0.00    +0.000 C 
ATOM     10  C   UNL     1      19.182   5.670  38.710  0.00  0.00    +0.000 C 
ATOM     11  C   UNL     1      19.330   5.439  37.316  0.00  0.00    +0.000 C 
ATOM     12  C   UNL     1      19.396   5.239  35.883  0.00  0.00    +0.000 C 
ATOM     13  C   UNL     1      12.767   4.802  36.248  0.00  0.00    +0.000 C 
ATOM     14  C   UNL     1      18.485   4.262  35.213  0.00  0.00    +0.000 C 
ATOM     15  C   UNL     1      12.319   6.166  35.872  0.00  0.00    +0.000 C 
ATOM     16  C   UNL     1      13.183   7.328  35.811  0.00  0.00    +0.000 C 
ATOM     17  C   UNL     1      13.955   7.751  34.650  0.00  0.00    +0.000 C 
ATOM     18  C   UNL     1      18.051   4.507  33.887  0.00  0.00    +0.000 C 
ATOM     19  C   UNL     1      15.928   6.700  33.396  0.00  0.00    +0.000 C 
ATOM     20  C   UNL     1      17.764   3.161  35.979  0.00  0.00    +0.000 C 
ATOM     21  C   UNL     1      16.427   5.646  32.519  0.00  0.00    +0.000 C 
ATOM     22  C   UNL     1      14.461   6.713  33.701  0.00  0.00    +0.000 C 
ATOM     23  C   UNL     1      17.621   4.835  32.707  0.00  0.00    +0.000 C 
ATOM     24  C   UNL     1      13.994   9.213  34.215  0.00  0.00    +0.000 C 
ATOM     25  C   UNL     1      16.923   7.540  34.185  0.00  0.00    +0.000 C 
ATOM     26  C   UNL     1      18.404   4.282  31.544  0.00  0.00    +0.000 C 
ENDROOT
BRANCH   8  27
ATOM     27  O   UNL     1      17.955   5.732  40.760  0.00  0.00    +0.000 OA
ATOM     28  H   UNL     1      17.313   5.000  40.855  0.00  0.00    +0.000 HD
ENDBRANCH   8  27
BRANCH  10  29
ATOM     29  O   UNL     1      20.300   5.562  39.522  0.00  0.00    +0.000 OA
ATOM     30  H   UNL     1      20.979   6.227  39.305  0.00  0.00    +0.000 HD
ENDBRANCH  10  29
BRANCH  15  31
ATOM     31  O   UNL     1      11.181   6.278  35.088  0.00  0.00    +0.000 OA
ATOM     32  H   UNL     1      10.514   6.844  35.532  0.00  0.00    +0.000 HD
ENDBRANCH  15  31
BRANCH  16  33
ATOM     33  O   UNL     1      12.877   8.337  36.707  0.00  0.00    +0.000 OA
ATOM     34  C   UNL     1      13.790   8.302  37.776  0.00  0.00    +0.000 C 
ENDBRANCH  16  33
BRANCH  21  35
ATOM     35  O   UNL     1      15.747   5.545  31.279  0.00  0.00    +0.000 OA
BRANCH  35  37
ATOM     36  O   UNL     1      16.918   7.226  30.149  0.00  0.00    +0.000 OA
ATOM     37  C   UNL     1      15.903   6.648  30.496  0.00  0.00    +0.000 C 
ATOM     38  C   UNL     1      14.637   7.205  29.954  0.00  0.00    +0.000 C 
ENDBRANCH  35  37
ENDBRANCH  21  35
BRANCH   6  39
ATOM     39  C   UNL     1      15.125   3.574  39.321  0.00  0.00    +0.000 C 
BRANCH  39  41
ATOM     40  O   UNL     1      17.353   2.335  39.375  0.00  0.00    +0.000 OA
ATOM     41  C   UNL     1      15.907   2.307  39.369  0.00  0.00    +0.000 C 
ATOM     42  C   UNL     1      16.719   2.206  40.579  0.00  0.00    +0.000 C 
ATOM     43  C   UNL     1      15.412   1.071  38.536  0.00  0.00    +0.000 C 
BRANCH  42  44
ATOM     44  C   UNL     1      16.935   0.995  41.311  0.00  0.00    +0.000 C 
ATOM     45  C   UNL     1      17.824  -0.088  40.743  0.00  0.00    +0.000 C 
BRANCH  44  46
ATOM     46  C   UNL     1      16.733   0.955  42.714  0.00  0.00    +0.000 C 
ATOM     47  C   UNL     1      16.514   0.923  43.892  0.00  0.00    +0.000 C 
ATOM     48  C   UNL     1      16.164   0.873  45.385  0.00  0.00    +0.000 C 
ENDBRANCH  44  46
ENDBRANCH  42  44
ENDBRANCH  39  41
BRANCH  39  49
ATOM     49  O   UNL     1      13.941   3.752  40.017  0.00  0.00    +0.000 OA
ATOM     50  H   UNL     1      14.032   4.265  40.843  0.00  0.00    +0.000 HD
ENDBRANCH  39  49
ENDBRANCH   6  39
BRANCH   8  51
ATOM     51  C   UNL     1      17.713   7.543  39.293  0.00  0.00    +0.000 C 
BRANCH  51  52
ATOM     52  O   UNL     1      17.513   8.858  39.203  0.00  0.00    +0.000 OA
ATOM     53  H   UNL     1      17.847   9.318  39.999  0.00  0.00    +0.000 HD
ENDBRANCH  51  52
ENDBRANCH   8  51
TORSDOF 13
ENDMDL
MODEL 8
REMARK VINA RESULT:      -5.7     20.144     24.706
REMARK  Name = 102471178_CandidaspongiolideCore.pdbqt.pdb
REMARK  13 active torsions:
REMARK  status: ('A' for Active; 'I' for Inactive)
REMARK    1  A    between atoms: C_6  and  C_39
REMARK    2  A    between atoms: C_8  and  O_27
REMARK    3  A    between atoms: C_8  and  C_51
REMARK    4  A    between atoms: C_10  and  O_29
REMARK    5  A    between atoms: C_15  and  O_31
REMARK    6  A    between atoms: C_16  and  O_33
REMARK    7  A    between atoms: C_21  and  O_35
REMARK    8  A    between atoms: O_35  and  C_37
REMARK    9  A    between atoms: C_39  and  C_41
REMARK   10  A    between atoms: C_39  and  O_49
REMARK   11  A    between atoms: C_42  and  C_44
REMARK   12  A    between atoms: C_44  and  C_46
REMARK   13  A    between atoms: C_51  and  O_52
REMARK                            x       y       z     vdW  Elec       q    Type
REMARK                         _______ _______ _______ _____ _____    ______ ____
ROOT
ATOM      1  O   UNL     1      40.218  15.000  52.438  0.00  0.00    +0.000 OA
ATOM      2  O   UNL     1      38.282  14.287  51.429  0.00  0.00    +0.000 OA
ATOM      3  O   UNL     1      35.524  12.027  48.005  0.00  0.00    +0.000 OA
ATOM      4  O   UNL     1      39.832  14.412  54.583  0.00  0.00    +0.000 OA
ATOM      5  O   UNL     1      36.336  14.598  54.226  0.00  0.00    +0.000 OA
ATOM      6  C   UNL     1      40.367  14.267  50.244  0.00  0.00    +0.000 C 
ATOM      7  C   UNL     1      39.872  14.359  48.913  0.00  0.00    +0.000 C 
ATOM      8  C   UNL     1      39.506  14.531  47.505  0.00  0.00    +0.000 C 
ATOM      9  C   UNL     1      39.488  14.501  51.419  0.00  0.00    +0.000 C 
ATOM     10  C   UNL     1      38.724  13.351  46.969  0.00  0.00    +0.000 C 
ATOM     11  C   UNL     1      37.698  12.676  47.682  0.00  0.00    +0.000 C 
ATOM     12  C   UNL     1      36.656  12.056  48.474  0.00  0.00    +0.000 C 
ATOM     13  C   UNL     1      39.572  15.114  53.613  0.00  0.00    +0.000 C 
ATOM     14  C   UNL     1      36.959  11.515  49.834  0.00  0.00    +0.000 C 
ATOM     15  C   UNL     1      38.749  16.337  53.787  0.00  0.00    +0.000 C 
ATOM     16  C   UNL     1      37.799  16.834  52.813  0.00  0.00    +0.000 C 
ATOM     17  C   UNL     1      36.396  16.450  52.724  0.00  0.00    +0.000 C 
ATOM     18  C   UNL     1      35.957  11.539  50.834  0.00  0.00    +0.000 C 
ATOM     19  C   UNL     1      35.232  14.238  52.156  0.00  0.00    +0.000 C 
ATOM     20  C   UNL     1      38.378  11.206  50.290  0.00  0.00    +0.000 C 
ATOM     21  C   UNL     1      34.899  12.870  52.541  0.00  0.00    +0.000 C 
ATOM     22  C   UNL     1      35.997  15.070  53.139  0.00  0.00    +0.000 C 
ATOM     23  C   UNL     1      35.024  11.669  51.727  0.00  0.00    +0.000 C 
ATOM     24  C   UNL     1      35.301  17.492  52.519  0.00  0.00    +0.000 C 
ATOM     25  C   UNL     1      35.061  14.659  50.703  0.00  0.00    +0.000 C 
ATOM     26  C   UNL     1      34.111  10.484  51.906  0.00  0.00    +0.000 C 
ENDROOT
BRANCH   8  27
ATOM     27  O   UNL     1      40.741  14.622  46.791  0.00  0.00    +0.000 OA
ATOM     28  H   UNL     1      41.100  13.712  46.813  0.00  0.00    +0.000 HD
ENDBRANCH   8  27
BRANCH  10  29
ATOM     29  O   UNL     1      39.007  12.947  45.674  0.00  0.00    +0.000 OA
ATOM     30  H   UNL     1      39.528  12.122  45.650  0.00  0.00    +0.000 HD
ENDBRANCH  10  29
BRANCH  15  31
ATOM     31  O   UNL     1      38.494  16.763  55.081  0.00  0.00    +0.000 OA
ATOM     32  H   UNL     1      39.275  17.228  55.449  0.00  0.00    +0.000 HD
ENDBRANCH  15  31
BRANCH  16  33
ATOM     33  O   UNL     1      38.098  18.074  52.278  0.00  0.00    +0.000 OA
ATOM     34  C   UNL     1      38.616  17.908  50.981  0.00  0.00    +0.000 C 
ENDBRANCH  16  33
BRANCH  21  35
ATOM     35  O   UNL     1      34.229  12.759  53.786  0.00  0.00    +0.000 OA
BRANCH  35  37
ATOM     36  O   UNL     1      32.049  13.097  53.007  0.00  0.00    +0.000 OA
ATOM     37  C   UNL     1      32.979  13.300  53.766  0.00  0.00    +0.000 C 
ATOM     38  C   UNL     1      32.705  14.260  54.867  0.00  0.00    +0.000 C 
ENDBRANCH  35  37
ENDBRANCH  21  35
BRANCH   6  39
ATOM     39  C   UNL     1      41.739  13.849  50.416  0.00  0.00    +0.000 C 
BRANCH  39  41
ATOM     40  O   UNL     1      43.276  11.929  51.090  0.00  0.00    +0.000 OA
ATOM     41  C   UNL     1      42.087  12.400  50.414  0.00  0.00    +0.000 C 
ATOM     42  C   UNL     1      42.088  11.831  51.759  0.00  0.00    +0.000 C 
ATOM     43  C   UNL     1      41.865  11.563  49.104  0.00  0.00    +0.000 C 
BRANCH  42  44
ATOM     44  C   UNL     1      41.621  10.517  52.083  0.00  0.00    +0.000 C 
ATOM     45  C   UNL     1      42.564   9.338  52.018  0.00  0.00    +0.000 C 
BRANCH  44  46
ATOM     46  C   UNL     1      40.466  10.342  52.887  0.00  0.00    +0.000 C 
ATOM     47  C   UNL     1      39.463  10.214  53.533  0.00  0.00    +0.000 C 
ATOM     48  C   UNL     1      38.143  10.071  54.300  0.00  0.00    +0.000 C 
ENDBRANCH  44  46
ENDBRANCH  42  44
ENDBRANCH  39  41
BRANCH  39  49
ATOM     49  O   UNL     1      42.674  14.844  50.648  0.00  0.00    +0.000 OA
ATOM     50  H   UNL     1      43.602  14.547  50.594  0.00  0.00    +0.000 HD
ENDBRANCH  39  49
ENDBRANCH   6  39
BRANCH   8  51
ATOM     51  C   UNL     1      38.764  15.783  47.276  0.00  0.00    +0.000 C 
BRANCH  51  52
ATOM     52  O   UNL     1      38.127  16.939  47.086  0.00  0.00    +0.000 OA
ATOM     53  H   UNL     1      38.313  17.298  46.195  0.00  0.00    +0.000 HD
ENDBRANCH  51  52
ENDBRANCH   8  51
TORSDOF 13
ENDMDL
MODEL 9
REMARK VINA RESULT:      -5.5      2.824      4.810
REMARK  Name = 102471178_CandidaspongiolideCore.pdbqt.pdb
REMARK  13 active torsions:
REMARK  status: ('A' for Active; 'I' for Inactive)
REMARK    1  A    between atoms: C_6  and  C_39
REMARK    2  A    between atoms: C_8  and  O_27
REMARK    3  A    between atoms: C_8  and  C_51
REMARK    4  A    between atoms: C_10  and  O_29
REMARK    5  A    between atoms: C_15  and  O_31
REMARK    6  A    between atoms: C_16  and  O_33
REMARK    7  A    between atoms: C_21  and  O_35
REMARK    8  A    between atoms: O_35  and  C_37
REMARK    9  A    between atoms: C_39  and  C_41
REMARK   10  A    between atoms: C_39  and  O_49
REMARK   11  A    between atoms: C_42  and  C_44
REMARK   12  A    between atoms: C_44  and  C_46
REMARK   13  A    between atoms: C_51  and  O_52
REMARK                            x       y       z     vdW  Elec       q    Type
REMARK                         _______ _______ _______ _____ _____    ______ ____
ROOT
ATOM      1  O   UNL     1      50.456   0.400  33.252  0.00  0.00    +0.000 OA
ATOM      2  O   UNL     1      51.274   2.239  32.145  0.00  0.00    +0.000 OA
ATOM      3  O   UNL     1      52.573   4.963  28.229  0.00  0.00    +0.000 OA
ATOM      4  O   UNL     1      49.048   1.372  34.725  0.00  0.00    +0.000 OA
ATOM      5  O   UNL     1      50.837   4.402  34.760  0.00  0.00    +0.000 OA
ATOM      6  C   UNL     1      51.015   0.138  31.018  0.00  0.00    +0.000 C 
ATOM      7  C   UNL     1      51.994   0.304  29.999  0.00  0.00    +0.000 C 
ATOM      8  C   UNL     1      53.021   0.310  28.953  0.00  0.00    +0.000 C 
ATOM      9  C   UNL     1      50.932   1.063  32.178  0.00  0.00    +0.000 C 
ATOM     10  C   UNL     1      52.760   1.367  27.903  0.00  0.00    +0.000 C 
ATOM     11  C   UNL     1      52.314   2.686  28.184  0.00  0.00    +0.000 C 
ATOM     12  C   UNL     1      51.872   4.013  28.560  0.00  0.00    +0.000 C 
ATOM     13  C   UNL     1      50.188   1.160  34.330  0.00  0.00    +0.000 C 
ATOM     14  C   UNL     1      50.627   4.196  29.366  0.00  0.00    +0.000 C 
ATOM     15  C   UNL     1      51.343   1.473  35.209  0.00  0.00    +0.000 C 
ATOM     16  C   UNL     1      52.623   1.964  34.741  0.00  0.00    +0.000 C 
ATOM     17  C   UNL     1      52.973   3.364  34.544  0.00  0.00    +0.000 C 
ATOM     18  C   UNL     1      50.534   5.281  30.271  0.00  0.00    +0.000 C 
ATOM     19  C   UNL     1      52.128   5.156  32.917  0.00  0.00    +0.000 C 
ATOM     20  C   UNL     1      49.563   3.114  29.479  0.00  0.00    +0.000 C 
ATOM     21  C   UNL     1      51.055   6.049  32.495  0.00  0.00    +0.000 C 
ATOM     22  C   UNL     1      51.902   4.328  34.145  0.00  0.00    +0.000 C 
ATOM     23  C   UNL     1      50.547   6.242  31.144  0.00  0.00    +0.000 C 
ATOM     24  C   UNL     1      54.309   3.922  35.027  0.00  0.00    +0.000 C 
ATOM     25  C   UNL     1      53.280   4.881  31.960  0.00  0.00    +0.000 C 
ATOM     26  C   UNL     1      49.960   7.553  30.690  0.00  0.00    +0.000 C 
ENDROOT
BRANCH   8  27
ATOM     27  O   UNL     1      52.948  -0.976  28.333  0.00  0.00    +0.000 OA
ATOM     28  H   UNL     1      53.880  -1.270  28.276  0.00  0.00    +0.000 HD
ENDBRANCH   8  27
BRANCH  10  29
ATOM     29  O   UNL     1      53.029   1.025  26.587  0.00  0.00    +0.000 OA
ATOM     30  H   UNL     1      52.353   0.427  26.216  0.00  0.00    +0.000 HD
ENDBRANCH  10  29
BRANCH  15  31
ATOM     31  O   UNL     1      51.079   1.782  36.534  0.00  0.00    +0.000 OA
ATOM     32  H   UNL     1      50.762   2.707  36.614  0.00  0.00    +0.000 HD
ENDBRANCH  15  31
BRANCH  16  33
ATOM     33  O   UNL     1      53.696   1.121  34.970  0.00  0.00    +0.000 OA
ATOM     34  C   UNL     1      53.998   0.422  33.788  0.00  0.00    +0.000 C 
ENDBRANCH  16  33
BRANCH  21  35
ATOM     35  O   UNL     1      50.594   6.929  33.507  0.00  0.00    +0.000 OA
BRANCH  35  37
ATOM     36  O   UNL     1      51.900   8.833  33.130  0.00  0.00    +0.000 OA
ATOM     37  C   UNL     1      51.492   7.907  33.809  0.00  0.00    +0.000 C 
ATOM     38  C   UNL     1      52.024   7.851  35.195  0.00  0.00    +0.000 C 
ENDBRANCH  35  37
ENDBRANCH  21  35
BRANCH   6  39
ATOM     39  C   UNL     1      50.040  -0.914  30.839  0.00  0.00    +0.000 C 
BRANCH  39  41
ATOM     40  O   UNL     1      51.710  -2.765  31.374  0.00  0.00    +0.000 OA
ATOM     41  C   UNL     1      50.479  -2.335  30.749  0.00  0.00    +0.000 C 
ATOM     42  C   UNL     1      50.547  -2.975  32.060  0.00  0.00    +0.000 C 
ATOM     43  C   UNL     1      50.280  -3.112  29.399  0.00  0.00    +0.000 C 
BRANCH  42  44
ATOM     44  C   UNL     1      50.171  -4.332  32.319  0.00  0.00    +0.000 C 
ATOM     45  C   UNL     1      48.719  -4.745  32.243  0.00  0.00    +0.000 C 
BRANCH  44  46
ATOM     46  C   UNL     1      51.118  -5.379  32.192  0.00  0.00    +0.000 C 
ATOM     47  C   UNL     1      51.939  -6.251  32.128  0.00  0.00    +0.000 C 
ATOM     48  C   UNL     1      53.004  -7.355  32.115  0.00  0.00    +0.000 C 
ENDBRANCH  44  46
ENDBRANCH  42  44
ENDBRANCH  39  41
BRANCH  39  49
ATOM     49  O   UNL     1      48.719  -0.526  30.690  0.00  0.00    +0.000 OA
ATOM     50  H   UNL     1      48.580   0.194  30.046  0.00  0.00    +0.000 HD
ENDBRANCH  39  49
ENDBRANCH   6  39
BRANCH   8  51
ATOM     51  C   UNL     1      54.375   0.463  29.510  0.00  0.00    +0.000 C 
BRANCH  51  52
ATOM     52  O   UNL     1      55.602   0.644  30.000  0.00  0.00    +0.000 OA
ATOM     53  H   UNL     1      56.222  -0.025  29.646  0.00  0.00    +0.000 HD
ENDBRANCH  51  52
ENDBRANCH   8  51
TORSDOF 13
ENDMDL
