MODEL 1
REMARK VINA RESULT:      -7.7      0.000      0.000
REMARK  Name = 10288191_Binimetinib.pdbqt.pdb
REMARK  6 active torsions:
REMARK  status: ('A' for Active; 'I' for Inactive)
REMARK    1  A    between atoms: C_6  and  N_21
REMARK    2  A    between atoms: C_7  and  C_14
REMARK    3  A    between atoms: N_13  and  O_16
REMARK    4  A    between atoms: O_16  and  C_17
REMARK    5  A    between atoms: C_18  and  O_19
REMARK    6  A    between atoms: N_21  and  C_25
REMARK                            x       y       z     vdW  Elec       q    Type
REMARK                         _______ _______ _______ _____ _____    ______ ____
ROOT
ATOM      1  F   UNL     1      34.813   3.102  14.364  0.00  0.00    +0.000 F 
ATOM      2  N   UNL     1      35.731  -0.658  16.698  0.00  0.00    +0.000 N 
ATOM      3  N   UNL     1      34.538   1.195  16.592  0.00  0.00    +0.000 NA
ATOM      4  C   UNL     1      36.117  -0.071  15.528  0.00  0.00    +0.000 A 
ATOM      5  C   UNL     1      35.352   1.091  15.479  0.00  0.00    +0.000 A 
ATOM      6  C   UNL     1      36.409   1.647  13.330  0.00  0.00    +0.000 A 
ATOM      7  C   UNL     1      37.176   0.457  13.437  0.00  0.00    +0.000 A 
ATOM      8  C   UNL     1      37.037  -0.411  14.535  0.00  0.00    +0.000 A 
ATOM      9  C   UNL     1      35.504   1.952  14.374  0.00  0.00    +0.000 A 
ATOM     10  C   UNL     1      34.792   0.117  17.308  0.00  0.00    +0.000 A 
ATOM     11  C   UNL     1      36.216  -1.901  17.200  0.00  0.00    +0.000 C 
ENDROOT
BRANCH   7  14
ATOM     12  O   UNL     1      39.300   0.615  12.421  0.00  0.00    +0.000 OA
ATOM     13  N   UNL     1      37.797  -0.840  11.455  0.00  0.00    +0.000 N 
ATOM     14  C   UNL     1      38.190   0.090  12.397  0.00  0.00    +0.000 C 
ATOM     15  H   UNL     1      36.823  -0.987  11.224  0.00  0.00    +0.000 HD
BRANCH  13  16
ATOM     16  O   UNL     1      38.671  -0.935  10.350  0.00  0.00    +0.000 OA
BRANCH  16  17
ATOM     17  C   UNL     1      37.984  -0.510   9.293  0.00  0.00    +0.000 C 
ATOM     18  C   UNL     1      37.181  -0.024   8.081  0.00  0.00    +0.000 C 
BRANCH  18  19
ATOM     19  O   UNL     1      36.477   0.396   7.035  0.00  0.00    +0.000 OA
ATOM     20  H   UNL     1      36.882   0.078   6.210  0.00  0.00    +0.000 HD
ENDBRANCH  18  19
ENDBRANCH  16  17
ENDBRANCH  13  16
ENDBRANCH   7  14
BRANCH   6  21
ATOM     21  N   UNL     1      36.535   2.483  12.191  0.00  0.00    +0.000 N 
ATOM     22  H   UNL     1      35.627   2.806  11.821  0.00  0.00    +0.000 HD
BRANCH  21  25
ATOM     23 BR   UNL     1      41.020   6.183  10.352  0.00  0.00    +0.000 Br
ATOM     24  F   UNL     1      37.733   4.294  13.890  0.00  0.00    +0.000 F 
ATOM     25  C   UNL     1      37.597   3.295  11.743  0.00  0.00    +0.000 A 
ATOM     26  C   UNL     1      38.170   4.229  12.622  0.00  0.00    +0.000 A 
ATOM     27  C   UNL     1      38.069   3.277  10.429  0.00  0.00    +0.000 A 
ATOM     28  C   UNL     1      39.188   5.090  12.224  0.00  0.00    +0.000 A 
ATOM     29  C   UNL     1      39.089   4.131  10.010  0.00  0.00    +0.000 A 
ATOM     30  C   UNL     1      39.641   5.031  10.914  0.00  0.00    +0.000 A 
ENDBRANCH  21  25
ENDBRANCH   6  21
TORSDOF 6
ENDMDL
MODEL 2
REMARK VINA RESULT:      -6.9      2.478      3.007
REMARK  Name = 10288191_Binimetinib.pdbqt.pdb
REMARK  6 active torsions:
REMARK  status: ('A' for Active; 'I' for Inactive)
REMARK    1  A    between atoms: C_6  and  N_21
REMARK    2  A    between atoms: C_7  and  C_14
REMARK    3  A    between atoms: N_13  and  O_16
REMARK    4  A    between atoms: O_16  and  C_17
REMARK    5  A    between atoms: C_18  and  O_19
REMARK    6  A    between atoms: N_21  and  C_25
REMARK                            x       y       z     vdW  Elec       q    Type
REMARK                         _______ _______ _______ _____ _____    ______ ____
ROOT
ATOM      1  F   UNL     1      37.845   3.967  14.760  0.00  0.00    +0.000 F 
ATOM      2  N   UNL     1      34.665   0.925  15.792  0.00  0.00    +0.000 N 
ATOM      3  N   UNL     1      35.809   2.689  16.462  0.00  0.00    +0.000 NA
ATOM      4  C   UNL     1      35.470   1.232  14.733  0.00  0.00    +0.000 A 
ATOM      5  C   UNL     1      36.178   2.347  15.174  0.00  0.00    +0.000 A 
ATOM      6  C   UNL     1      37.341   2.414  13.010  0.00  0.00    +0.000 A 
ATOM      7  C   UNL     1      36.603   1.267  12.614  0.00  0.00    +0.000 A 
ATOM      8  C   UNL     1      35.663   0.666  13.472  0.00  0.00    +0.000 A 
ATOM      9  C   UNL     1      37.118   2.935  14.306  0.00  0.00    +0.000 A 
ATOM     10  C   UNL     1      34.889   1.808  16.805  0.00  0.00    +0.000 A 
ATOM     11  C   UNL     1      33.719  -0.140  15.832  0.00  0.00    +0.000 C 
ENDROOT
BRANCH   7  14
ATOM     12  O   UNL     1      36.344   1.150  10.272  0.00  0.00    +0.000 OA
ATOM     13  N   UNL     1      37.551  -0.543  11.264  0.00  0.00    +0.000 N 
ATOM     14  C   UNL     1      36.818   0.627  11.277  0.00  0.00    +0.000 C 
ATOM     15  H   UNL     1      37.621  -1.139  12.079  0.00  0.00    +0.000 HD
BRANCH  13  16
ATOM     16  O   UNL     1      37.482  -1.246  10.042  0.00  0.00    +0.000 OA
BRANCH  16  17
ATOM     17  C   UNL     1      38.713  -1.235   9.535  0.00  0.00    +0.000 C 
ATOM     18  C   UNL     1      40.130  -1.237   8.950  0.00  0.00    +0.000 C 
BRANCH  18  19
ATOM     19  O   UNL     1      41.357  -1.247   8.441  0.00  0.00    +0.000 OA
ATOM     20  H   UNL     1      41.337  -1.572   7.525  0.00  0.00    +0.000 HD
ENDBRANCH  18  19
ENDBRANCH  16  17
ENDBRANCH  13  16
ENDBRANCH   7  14
BRANCH   6  21
ATOM     21  N   UNL     1      38.250   3.027  12.110  0.00  0.00    +0.000 N 
ATOM     22  H   UNL     1      38.049   4.026  11.947  0.00  0.00    +0.000 HD
BRANCH  21  25
ATOM     23 BR   UNL     1      43.896   1.438  10.440  0.00  0.00    +0.000 Br
ATOM     24  F   UNL     1      38.941   2.618   9.471  0.00  0.00    +0.000 F 
ATOM     25  C   UNL     1      39.576   2.699  11.756  0.00  0.00    +0.000 A 
ATOM     26  C   UNL     1      39.893   2.469  10.406  0.00  0.00    +0.000 A 
ATOM     27  C   UNL     1      40.592   2.513  12.695  0.00  0.00    +0.000 A 
ATOM     28  C   UNL     1      41.171   2.097  10.002  0.00  0.00    +0.000 A 
ATOM     29  C   UNL     1      41.880   2.141  12.309  0.00  0.00    +0.000 A 
ATOM     30  C   UNL     1      42.159   1.937  10.964  0.00  0.00    +0.000 A 
ENDBRANCH  21  25
ENDBRANCH   6  21
TORSDOF 6
ENDMDL
MODEL 3
REMARK VINA RESULT:      -6.7     28.767     32.382
REMARK  Name = 10288191_Binimetinib.pdbqt.pdb
REMARK  6 active torsions:
REMARK  status: ('A' for Active; 'I' for Inactive)
REMARK    1  A    between atoms: C_6  and  N_21
REMARK    2  A    between atoms: C_7  and  C_14
REMARK    3  A    between atoms: N_13  and  O_16
REMARK    4  A    between atoms: O_16  and  C_17
REMARK    5  A    between atoms: C_18  and  O_19
REMARK    6  A    between atoms: N_21  and  C_25
REMARK                            x       y       z     vdW  Elec       q    Type
REMARK                         _______ _______ _______ _____ _____    ______ ____
ROOT
ATOM      1  F   UNL     1      38.267  -1.919  43.432  0.00  0.00    +0.000 F 
ATOM      2  N   UNL     1      38.113  -3.017  47.814  0.00  0.00    +0.000 N 
ATOM      3  N   UNL     1      39.094  -1.800  46.256  0.00  0.00    +0.000 NA
ATOM      4  C   UNL     1      37.441  -3.325  46.666  0.00  0.00    +0.000 A 
ATOM      5  C   UNL     1      38.071  -2.546  45.700  0.00  0.00    +0.000 A 
ATOM      6  C   UNL     1      36.534  -3.465  44.016  0.00  0.00    +0.000 A 
ATOM      7  C   UNL     1      35.937  -4.250  45.037  0.00  0.00    +0.000 A 
ATOM      8  C   UNL     1      36.384  -4.187  46.369  0.00  0.00    +0.000 A 
ATOM      9  C   UNL     1      37.614  -2.622  44.370  0.00  0.00    +0.000 A 
ATOM     10  C   UNL     1      39.090  -2.108  47.539  0.00  0.00    +0.000 A 
ATOM     11  C   UNL     1      37.830  -3.544  49.107  0.00  0.00    +0.000 C 
ENDROOT
BRANCH   7  14
ATOM     12  O   UNL     1      33.783  -4.780  44.232  0.00  0.00    +0.000 OA
ATOM     13  N   UNL     1      35.042  -6.529  45.048  0.00  0.00    +0.000 N 
ATOM     14  C   UNL     1      34.821  -5.203  44.733  0.00  0.00    +0.000 C 
ATOM     15  H   UNL     1      35.707  -6.806  45.758  0.00  0.00    +0.000 HD
BRANCH  13  16
ATOM     16  O   UNL     1      33.876  -7.325  45.009  0.00  0.00    +0.000 OA
BRANCH  16  17
ATOM     17  C   UNL     1      33.653  -7.719  46.261  0.00  0.00    +0.000 C 
ATOM     18  C   UNL     1      33.386  -8.182  47.697  0.00  0.00    +0.000 C 
BRANCH  18  19
ATOM     19  O   UNL     1      33.151  -8.590  48.939  0.00  0.00    +0.000 OA
ATOM     20  H   UNL     1      32.465  -9.280  48.941  0.00  0.00    +0.000 HD
ENDBRANCH  18  19
ENDBRANCH  16  17
ENDBRANCH  13  16
ENDBRANCH   7  14
BRANCH   6  21
ATOM     21  N   UNL     1      36.035  -3.512  42.689  0.00  0.00    +0.000 N 
ATOM     22  H   UNL     1      35.506  -4.374  42.484  0.00  0.00    +0.000 HD
BRANCH  21  25
ATOM     23 BR   UNL     1      34.570   0.780  38.612  0.00  0.00    +0.000 Br
ATOM     24  F   UNL     1      33.419  -2.804  42.178  0.00  0.00    +0.000 F 
ATOM     25  C   UNL     1      35.734  -2.487  41.768  0.00  0.00    +0.000 A 
ATOM     26  C   UNL     1      34.391  -2.166  41.507  0.00  0.00    +0.000 A 
ATOM     27  C   UNL     1      36.710  -1.812  41.032  0.00  0.00    +0.000 A 
ATOM     28  C   UNL     1      34.032  -1.197  40.576  0.00  0.00    +0.000 A 
ATOM     29  C   UNL     1      36.370  -0.837  40.095  0.00  0.00    +0.000 A 
ATOM     30  C   UNL     1      35.032  -0.537  39.875  0.00  0.00    +0.000 A 
ENDBRANCH  21  25
ENDBRANCH   6  21
TORSDOF 6
ENDMDL
MODEL 4
REMARK VINA RESULT:      -6.6     19.288     21.501
REMARK  Name = 10288191_Binimetinib.pdbqt.pdb
REMARK  6 active torsions:
REMARK  status: ('A' for Active; 'I' for Inactive)
REMARK    1  A    between atoms: C_6  and  N_21
REMARK    2  A    between atoms: C_7  and  C_14
REMARK    3  A    between atoms: N_13  and  O_16
REMARK    4  A    between atoms: O_16  and  C_17
REMARK    5  A    between atoms: C_18  and  O_19
REMARK    6  A    between atoms: N_21  and  C_25
REMARK                            x       y       z     vdW  Elec       q    Type
REMARK                         _______ _______ _______ _____ _____    ______ ____
ROOT
ATOM      1  F   UNL     1      20.857  10.859  14.531  0.00  0.00    +0.000 F 
ATOM      2  N   UNL     1      19.151  14.909  13.473  0.00  0.00    +0.000 N 
ATOM      3  N   UNL     1      19.504  12.833  12.814  0.00  0.00    +0.000 NA
ATOM      4  C   UNL     1      19.764  14.312  14.537  0.00  0.00    +0.000 A 
ATOM      5  C   UNL     1      19.973  13.006  14.103  0.00  0.00    +0.000 A 
ATOM      6  C   UNL     1      21.004  12.493  16.274  0.00  0.00    +0.000 A 
ATOM      7  C   UNL     1      20.781  13.840  16.663  0.00  0.00    +0.000 A 
ATOM      8  C   UNL     1      20.160  14.761  15.799  0.00  0.00    +0.000 A 
ATOM      9  C   UNL     1      20.598  12.097  14.978  0.00  0.00    +0.000 A 
ATOM     10  C   UNL     1      19.010  14.005  12.464  0.00  0.00    +0.000 A 
ATOM     11  C   UNL     1      18.706  16.262  13.426  0.00  0.00    +0.000 C 
ENDROOT
BRANCH   7  14
ATOM     12  O   UNL     1      22.164  15.138  18.066  0.00  0.00    +0.000 OA
ATOM     13  N   UNL     1      20.533  13.880  19.098  0.00  0.00    +0.000 N 
ATOM     14  C   UNL     1      21.226  14.348  18.000  0.00  0.00    +0.000 C 
ATOM     15  H   UNL     1      20.035  12.999  19.080  0.00  0.00    +0.000 HD
BRANCH  13  16
ATOM     16  O   UNL     1      21.163  14.159  20.331  0.00  0.00    +0.000 OA
BRANCH  16  17
ATOM     17  C   UNL     1      20.784  13.197  21.169  0.00  0.00    +0.000 C 
ATOM     18  C   UNL     1      20.340  12.099  22.142  0.00  0.00    +0.000 C 
BRANCH  18  19
ATOM     19  O   UNL     1      19.950  11.153  22.989  0.00  0.00    +0.000 OA
ATOM     20  H   UNL     1      20.457  11.213  23.816  0.00  0.00    +0.000 HD
ENDBRANCH  18  19
ENDBRANCH  16  17
ENDBRANCH  13  16
ENDBRANCH   7  14
BRANCH   6  21
ATOM     21  N   UNL     1      21.592  11.573  17.180  0.00  0.00    +0.000 N 
ATOM     22  H   UNL     1      22.285  12.007  17.809  0.00  0.00    +0.000 HD
BRANCH  21  25
ATOM     23 BR   UNL     1      19.583   6.165  19.157  0.00  0.00    +0.000 Br
ATOM     24  F   UNL     1      22.666   9.193  16.292  0.00  0.00    +0.000 F 
ATOM     25  C   UNL     1      21.130  10.340  17.689  0.00  0.00    +0.000 A 
ATOM     26  C   UNL     1      21.676   9.143  17.198  0.00  0.00    +0.000 A 
ATOM     27  C   UNL     1      20.089  10.240  18.614  0.00  0.00    +0.000 A 
ATOM     28  C   UNL     1      21.229   7.897  17.626  0.00  0.00    +0.000 A 
ATOM     29  C   UNL     1      19.628   9.001  19.057  0.00  0.00    +0.000 A 
ATOM     30  C   UNL     1      20.203   7.838  18.559  0.00  0.00    +0.000 A 
ENDBRANCH  21  25
ENDBRANCH   6  21
TORSDOF 6
ENDMDL
MODEL 5
REMARK VINA RESULT:      -6.4      2.287      2.668
REMARK  Name = 10288191_Binimetinib.pdbqt.pdb
REMARK  6 active torsions:
REMARK  status: ('A' for Active; 'I' for Inactive)
REMARK    1  A    between atoms: C_6  and  N_21
REMARK    2  A    between atoms: C_7  and  C_14
REMARK    3  A    between atoms: N_13  and  O_16
REMARK    4  A    between atoms: O_16  and  C_17
REMARK    5  A    between atoms: C_18  and  O_19
REMARK    6  A    between atoms: N_21  and  C_25
REMARK                            x       y       z     vdW  Elec       q    Type
REMARK                         _______ _______ _______ _____ _____    ______ ____
ROOT
ATOM      1  F   UNL     1      37.899   4.123  14.684  0.00  0.00    +0.000 F 
ATOM      2  N   UNL     1      35.343   0.590  15.871  0.00  0.00    +0.000 N 
ATOM      3  N   UNL     1      35.860   2.699  16.261  0.00  0.00    +0.000 NA
ATOM      4  C   UNL     1      36.288   0.889  14.932  0.00  0.00    +0.000 A 
ATOM      5  C   UNL     1      36.596   2.221  15.192  0.00  0.00    +0.000 A 
ATOM      6  C   UNL     1      38.200   2.172  13.330  0.00  0.00    +0.000 A 
ATOM      7  C   UNL     1      37.860   0.810  13.116  0.00  0.00    +0.000 A 
ATOM      8  C   UNL     1      36.903   0.157  13.914  0.00  0.00    +0.000 A 
ATOM      9  C   UNL     1      37.558   2.860  14.387  0.00  0.00    +0.000 A 
ATOM     10  C   UNL     1      35.109   1.685  16.646  0.00  0.00    +0.000 A 
ATOM     11  C   UNL     1      34.684  -0.666  16.011  0.00  0.00    +0.000 C 
ENDROOT
BRANCH   7  14
ATOM     12  O   UNL     1      39.756  -0.068  12.020  0.00  0.00    +0.000 OA
ATOM     13  N   UNL     1      37.701  -0.632  11.144  0.00  0.00    +0.000 N 
ATOM     14  C   UNL     1      38.530  -0.000  12.049  0.00  0.00    +0.000 C 
ATOM     15  H   UNL     1      36.765  -0.297  10.952  0.00  0.00    +0.000 HD
BRANCH  13  16
ATOM     16  O   UNL     1      38.375  -1.137  10.011  0.00  0.00    +0.000 OA
BRANCH  16  17
ATOM     17  C   UNL     1      38.360  -0.163   9.103  0.00  0.00    +0.000 C 
ATOM     18  C   UNL     1      38.350   0.965   8.066  0.00  0.00    +0.000 C 
BRANCH  18  19
ATOM     19  O   UNL     1      38.347   1.948   7.172  0.00  0.00    +0.000 OA
ATOM     20  H   UNL     1      39.255   2.144   6.887  0.00  0.00    +0.000 HD
ENDBRANCH  18  19
ENDBRANCH  16  17
ENDBRANCH  13  16
ENDBRANCH   7  14
BRANCH   6  21
ATOM     21  N   UNL     1      39.135   2.820  12.483  0.00  0.00    +0.000 N 
ATOM     22  H   UNL     1      38.696   3.281  11.670  0.00  0.00    +0.000 HD
BRANCH  21  25
ATOM     23 BR   UNL     1      44.770   4.981  13.356  0.00  0.00    +0.000 Br
ATOM     24  F   UNL     1      40.330   4.563  10.711  0.00  0.00    +0.000 F 
ATOM     25  C   UNL     1      40.425   3.332  12.736  0.00  0.00    +0.000 A 
ATOM     26  C   UNL     1      41.021   4.196  11.803  0.00  0.00    +0.000 A 
ATOM     27  C   UNL     1      41.187   2.961  13.846  0.00  0.00    +0.000 A 
ATOM     28  C   UNL     1      42.308   4.695  11.975  0.00  0.00    +0.000 A 
ATOM     29  C   UNL     1      42.479   3.451  14.038  0.00  0.00    +0.000 A 
ATOM     30  C   UNL     1      43.028   4.316  13.099  0.00  0.00    +0.000 A 
ENDBRANCH  21  25
ENDBRANCH   6  21
TORSDOF 6
ENDMDL
MODEL 6
REMARK VINA RESULT:      -6.4     19.448     21.595
REMARK  Name = 10288191_Binimetinib.pdbqt.pdb
REMARK  6 active torsions:
REMARK  status: ('A' for Active; 'I' for Inactive)
REMARK    1  A    between atoms: C_6  and  N_21
REMARK    2  A    between atoms: C_7  and  C_14
REMARK    3  A    between atoms: N_13  and  O_16
REMARK    4  A    between atoms: O_16  and  C_17
REMARK    5  A    between atoms: C_18  and  O_19
REMARK    6  A    between atoms: N_21  and  C_25
REMARK                            x       y       z     vdW  Elec       q    Type
REMARK                         _______ _______ _______ _____ _____    ______ ____
ROOT
ATOM      1  F   UNL     1      20.938  10.773  14.653  0.00  0.00    +0.000 F 
ATOM      2  N   UNL     1      19.302  14.922  13.916  0.00  0.00    +0.000 N 
ATOM      3  N   UNL     1      19.632  12.902  13.091  0.00  0.00    +0.000 NA
ATOM      4  C   UNL     1      19.895  14.230  14.933  0.00  0.00    +0.000 A 
ATOM      5  C   UNL     1      20.089  12.962  14.395  0.00  0.00    +0.000 A 
ATOM      6  C   UNL     1      21.090  12.256  16.526  0.00  0.00    +0.000 A 
ATOM      7  C   UNL     1      20.882  13.570  17.022  0.00  0.00    +0.000 A 
ATOM      8  C   UNL     1      20.283  14.568  16.231  0.00  0.00    +0.000 A 
ATOM      9  C   UNL     1      20.693  11.975  15.198  0.00  0.00    +0.000 A 
ATOM     10  C   UNL     1      19.159  14.107  12.834  0.00  0.00    +0.000 A 
ATOM     11  C   UNL     1      18.877  16.281  13.976  0.00  0.00    +0.000 C 
ENDROOT
BRANCH   7  14
ATOM     12  O   UNL     1      20.977  13.275  19.361  0.00  0.00    +0.000 OA
ATOM     13  N   UNL     1      22.099  15.095  18.501  0.00  0.00    +0.000 N 
ATOM     14  C   UNL     1      21.320  13.960  18.401  0.00  0.00    +0.000 C 
ATOM     15  H   UNL     1      22.074  15.824  17.800  0.00  0.00    +0.000 HD
BRANCH  13  16
ATOM     16  O   UNL     1      22.242  15.572  19.822  0.00  0.00    +0.000 OA
BRANCH  16  17
ATOM     17  C   UNL     1      22.090  16.893  19.760  0.00  0.00    +0.000 C 
ATOM     18  C   UNL     1      21.928  18.415  19.691  0.00  0.00    +0.000 C 
BRANCH  18  19
ATOM     19  O   UNL     1      21.796  19.736  19.632  0.00  0.00    +0.000 OA
ATOM     20  H   UNL     1      20.859  19.975  19.531  0.00  0.00    +0.000 HD
ENDBRANCH  18  19
ENDBRANCH  16  17
ENDBRANCH  13  16
ENDBRANCH   7  14
BRANCH   6  21
ATOM     21  N   UNL     1      21.654  11.255  17.359  0.00  0.00    +0.000 N 
ATOM     22  H   UNL     1      22.372  11.621  18.004  0.00  0.00    +0.000 HD
BRANCH  21  25
ATOM     23 BR   UNL     1      19.470   5.804  19.002  0.00  0.00    +0.000 Br
ATOM     24  F   UNL     1      22.636   8.903  16.307  0.00  0.00    +0.000 F 
ATOM     25  C   UNL     1      21.153  10.010  17.791  0.00  0.00    +0.000 A 
ATOM     26  C   UNL     1      21.652   8.828  17.218  0.00  0.00    +0.000 A 
ATOM     27  C   UNL     1      20.117   9.886  18.719  0.00  0.00    +0.000 A 
ATOM     28  C   UNL     1      21.164   7.574  17.570  0.00  0.00    +0.000 A 
ATOM     29  C   UNL     1      19.615   8.638  19.086  0.00  0.00    +0.000 A 
ATOM     30  C   UNL     1      20.144   7.490  18.508  0.00  0.00    +0.000 A 
ENDBRANCH  21  25
ENDBRANCH   6  21
TORSDOF 6
ENDMDL
MODEL 7
REMARK VINA RESULT:      -6.4     28.483     30.304
REMARK  Name = 10288191_Binimetinib.pdbqt.pdb
REMARK  6 active torsions:
REMARK  status: ('A' for Active; 'I' for Inactive)
REMARK    1  A    between atoms: C_6  and  N_21
REMARK    2  A    between atoms: C_7  and  C_14
REMARK    3  A    between atoms: N_13  and  O_16
REMARK    4  A    between atoms: O_16  and  C_17
REMARK    5  A    between atoms: C_18  and  O_19
REMARK    6  A    between atoms: N_21  and  C_25
REMARK                            x       y       z     vdW  Elec       q    Type
REMARK                         _______ _______ _______ _____ _____    ______ ____
ROOT
ATOM      1  F   UNL     1      28.663  23.047  34.448  0.00  0.00    +0.000 F 
ATOM      2  N   UNL     1      32.371  25.596  34.876  0.00  0.00    +0.000 N 
ATOM      3  N   UNL     1      30.581  24.772  35.869  0.00  0.00    +0.000 NA
ATOM      4  C   UNL     1      31.764  24.840  33.914  0.00  0.00    +0.000 A 
ATOM      5  C   UNL     1      30.643  24.328  34.561  0.00  0.00    +0.000 A 
ATOM      6  C   UNL     1      30.034  23.155  32.489  0.00  0.00    +0.000 A 
ATOM      7  C   UNL     1      31.183  23.715  31.872  0.00  0.00    +0.000 A 
ATOM      8  C   UNL     1      32.057  24.562  32.578  0.00  0.00    +0.000 A 
ATOM      9  C   UNL     1      29.776  23.485  33.841  0.00  0.00    +0.000 A 
ATOM     10  C   UNL     1      31.645  25.537  36.027  0.00  0.00    +0.000 A 
ATOM     11  C   UNL     1      33.587  26.321  34.714  0.00  0.00    +0.000 C 
ENDROOT
BRANCH   7  14
ATOM     12  O   UNL     1      31.933  22.355  30.096  0.00  0.00    +0.000 OA
ATOM     13  N   UNL     1      31.274  24.495  29.553  0.00  0.00    +0.000 N 
ATOM     14  C   UNL     1      31.498  23.453  30.431  0.00  0.00    +0.000 C 
ATOM     15  H   UNL     1      31.270  25.460  29.858  0.00  0.00    +0.000 HD
BRANCH  13  16
ATOM     16  O   UNL     1      31.846  24.297  28.277  0.00  0.00    +0.000 OA
BRANCH  16  17
ATOM     17  C   UNL     1      30.963  24.762  27.396  0.00  0.00    +0.000 C 
ATOM     18  C   UNL     1      29.954  25.292  26.372  0.00  0.00    +0.000 C 
BRANCH  18  19
ATOM     19  O   UNL     1      29.082  25.747  25.478  0.00  0.00    +0.000 OA
ATOM     20  H   UNL     1      29.130  25.218  24.664  0.00  0.00    +0.000 HD
ENDBRANCH  18  19
ENDBRANCH  16  17
ENDBRANCH  13  16
ENDBRANCH   7  14
BRANCH   6  21
ATOM     21  N   UNL     1      29.193  22.268  31.769  0.00  0.00    +0.000 N 
ATOM     22  H   UNL     1      29.290  21.284  32.066  0.00  0.00    +0.000 HD
BRANCH  21  25
ATOM     23 BR   UNL     1      24.081  23.334  28.620  0.00  0.00    +0.000 Br
ATOM     24  F   UNL     1      29.061  21.950  29.032  0.00  0.00    +0.000 F 
ATOM     25  C   UNL     1      27.983  22.485  31.077  0.00  0.00    +0.000 A 
ATOM     26  C   UNL     1      27.951  22.342  29.680  0.00  0.00    +0.000 A 
ATOM     27  C   UNL     1      26.812  22.914  31.706  0.00  0.00    +0.000 A 
ATOM     28  C   UNL     1      26.800  22.588  28.938  0.00  0.00    +0.000 A 
ATOM     29  C   UNL     1      25.648  23.165  30.980  0.00  0.00    +0.000 A 
ATOM     30  C   UNL     1      25.652  22.999  29.601  0.00  0.00    +0.000 A 
ENDBRANCH  21  25
ENDBRANCH   6  21
TORSDOF 6
ENDMDL
MODEL 8
REMARK VINA RESULT:      -6.3     19.836     21.945
REMARK  Name = 10288191_Binimetinib.pdbqt.pdb
REMARK  6 active torsions:
REMARK  status: ('A' for Active; 'I' for Inactive)
REMARK    1  A    between atoms: C_6  and  N_21
REMARK    2  A    between atoms: C_7  and  C_14
REMARK    3  A    between atoms: N_13  and  O_16
REMARK    4  A    between atoms: O_16  and  C_17
REMARK    5  A    between atoms: C_18  and  O_19
REMARK    6  A    between atoms: N_21  and  C_25
REMARK                            x       y       z     vdW  Elec       q    Type
REMARK                         _______ _______ _______ _____ _____    ______ ____
ROOT
ATOM      1  F   UNL     1      16.719   9.679  20.368  0.00  0.00    +0.000 F 
ATOM      2  N   UNL     1      13.028   7.232  19.462  0.00  0.00    +0.000 N 
ATOM      3  N   UNL     1      13.834   9.215  19.999  0.00  0.00    +0.000 NA
ATOM      4  C   UNL     1      14.380   7.049  19.511  0.00  0.00    +0.000 A 
ATOM      5  C   UNL     1      14.868   8.309  19.846  0.00  0.00    +0.000 A 
ATOM      6  C   UNL     1      17.150   7.401  19.776  0.00  0.00    +0.000 A 
ATOM      7  C   UNL     1      16.601   6.133  19.450  0.00  0.00    +0.000 A 
ATOM      8  C   UNL     1      15.213   5.946  19.315  0.00  0.00    +0.000 A 
ATOM      9  C   UNL     1      16.259   8.480  19.980  0.00  0.00    +0.000 A 
ATOM     10  C   UNL     1      12.733   8.528  19.757  0.00  0.00    +0.000 A 
ATOM     11  C   UNL     1      12.069   6.230  19.134  0.00  0.00    +0.000 C 
ENDROOT
BRANCH   7  14
ATOM     12  O   UNL     1      18.035   4.747  18.188  0.00  0.00    +0.000 OA
ATOM     13  N   UNL     1      17.593   4.083  20.350  0.00  0.00    +0.000 N 
ATOM     14  C   UNL     1      17.475   4.930  19.266  0.00  0.00    +0.000 C 
ATOM     15  H   UNL     1      16.884   4.034  21.070  0.00  0.00    +0.000 HD
BRANCH  13  16
ATOM     16  O   UNL     1      18.185   2.839  20.039  0.00  0.00    +0.000 OA
BRANCH  16  17
ATOM     17  C   UNL     1      17.196   1.948  20.031  0.00  0.00    +0.000 C 
ATOM     18  C   UNL     1      16.050   0.931  20.028  0.00  0.00    +0.000 C 
BRANCH  18  19
ATOM     19  O   UNL     1      15.051   0.055  20.028  0.00  0.00    +0.000 OA
ATOM     20  H   UNL     1      14.474   0.206  20.796  0.00  0.00    +0.000 HD
ENDBRANCH  18  19
ENDBRANCH  16  17
ENDBRANCH  13  16
ENDBRANCH   7  14
BRANCH   6  21
ATOM     21  N   UNL     1      18.556   7.573  19.861  0.00  0.00    +0.000 N 
ATOM     22  H   UNL     1      19.017   6.865  20.453  0.00  0.00    +0.000 HD
BRANCH  21  25
ATOM     23 BR   UNL     1      22.695  10.164  16.208  0.00  0.00    +0.000 Br
ATOM     24  F   UNL     1      20.437   6.093  18.491  0.00  0.00    +0.000 F 
ATOM     25  C   UNL     1      19.473   8.201  18.993  0.00  0.00    +0.000 A 
ATOM     26  C   UNL     1      20.438   7.426  18.329  0.00  0.00    +0.000 A 
ATOM     27  C   UNL     1      19.525   9.585  18.812  0.00  0.00    +0.000 A 
ATOM     28  C   UNL     1      21.398   7.995  17.498  0.00  0.00    +0.000 A 
ATOM     29  C   UNL     1      20.479  10.174  17.982  0.00  0.00    +0.000 A 
ATOM     30  C   UNL     1      21.408   9.372  17.330  0.00  0.00    +0.000 A 
ENDBRANCH  21  25
ENDBRANCH   6  21
TORSDOF 6
ENDMDL
MODEL 9
REMARK VINA RESULT:      -6.3     17.272     18.631
REMARK  Name = 10288191_Binimetinib.pdbqt.pdb
REMARK  6 active torsions:
REMARK  status: ('A' for Active; 'I' for Inactive)
REMARK    1  A    between atoms: C_6  and  N_21
REMARK    2  A    between atoms: C_7  and  C_14
REMARK    3  A    between atoms: N_13  and  O_16
REMARK    4  A    between atoms: O_16  and  C_17
REMARK    5  A    between atoms: C_18  and  O_19
REMARK    6  A    between atoms: N_21  and  C_25
REMARK                            x       y       z     vdW  Elec       q    Type
REMARK                         _______ _______ _______ _____ _____    ______ ____
ROOT
ATOM      1  F   UNL     1      17.471  -1.294  13.039  0.00  0.00    +0.000 F 
ATOM      2  N   UNL     1      19.361  -5.368  12.527  0.00  0.00    +0.000 N 
ATOM      3  N   UNL     1      17.730  -4.199  13.447  0.00  0.00    +0.000 NA
ATOM      4  C   UNL     1      19.565  -4.092  12.086  0.00  0.00    +0.000 A 
ATOM      5  C   UNL     1      18.526  -3.374  12.673  0.00  0.00    +0.000 A 
ATOM      6  C   UNL     1      19.371  -1.340  11.583  0.00  0.00    +0.000 A 
ATOM      7  C   UNL     1      20.419  -2.115  11.021  0.00  0.00    +0.000 A 
ATOM      8  C   UNL     1      20.526  -3.496  11.267  0.00  0.00    +0.000 A 
ATOM      9  C   UNL     1      18.435  -1.992  12.419  0.00  0.00    +0.000 A 
ATOM     10  C   UNL     1      18.264  -5.400  13.334  0.00  0.00    +0.000 A 
ATOM     11  C   UNL     1      20.157  -6.500  12.185  0.00  0.00    +0.000 C 
ENDROOT
BRANCH   7  14
ATOM     12  O   UNL     1      22.215  -0.631  10.644  0.00  0.00    +0.000 OA
ATOM     13  N   UNL     1      21.552  -1.928   8.858  0.00  0.00    +0.000 N 
ATOM     14  C   UNL     1      21.477  -1.488  10.165  0.00  0.00    +0.000 C 
ATOM     15  H   UNL     1      20.756  -2.337   8.386  0.00  0.00    +0.000 HD
BRANCH  13  16
ATOM     16  O   UNL     1      22.359  -1.118   8.030  0.00  0.00    +0.000 OA
BRANCH  16  17
ATOM     17  C   UNL     1      22.786  -1.902   7.043  0.00  0.00    +0.000 C 
ATOM     18  C   UNL     1      23.272  -2.797   5.897  0.00  0.00    +0.000 C 
BRANCH  18  19
ATOM     19  O   UNL     1      23.691  -3.567   4.899  0.00  0.00    +0.000 OA
ATOM     20  H   UNL     1      23.642  -3.080   4.058  0.00  0.00    +0.000 HD
ENDBRANCH  18  19
ENDBRANCH  16  17
ENDBRANCH  13  16
ENDBRANCH   7  14
BRANCH   6  21
ATOM     21  N   UNL     1      19.259   0.042  11.282  0.00  0.00    +0.000 N 
ATOM     22  H   UNL     1      20.172   0.520  11.222  0.00  0.00    +0.000 HD
BRANCH  21  25
ATOM     23 BR   UNL     1      15.020   3.252   8.297  0.00  0.00    +0.000 Br
ATOM     24  F   UNL     1      18.646  -0.439   8.637  0.00  0.00    +0.000 F 
ATOM     25  C   UNL     1      18.245   0.777  10.633  0.00  0.00    +0.000 A 
ATOM     26  C   UNL     1      17.972   0.530   9.278  0.00  0.00    +0.000 A 
ATOM     27  C   UNL     1      17.535   1.807  11.254  0.00  0.00    +0.000 A 
ATOM     28  C   UNL     1      17.017   1.255   8.573  0.00  0.00    +0.000 A 
ATOM     29  C   UNL     1      16.572   2.544  10.565  0.00  0.00    +0.000 A 
ATOM     30  C   UNL     1      16.321   2.261   9.228  0.00  0.00    +0.000 A 
ENDBRANCH  21  25
ENDBRANCH   6  21
TORSDOF 6
ENDMDL
