MODEL 1
REMARK VINA RESULT:      -5.6      0.000      0.000
REMARK  Name = 10281_Thymoquinone.pdbqt.pdb
REMARK  1 active torsions:
REMARK  status: ('A' for Active; 'I' for Inactive)
REMARK    1  A    between atoms: C_3  and  C_10
REMARK                            x       y       z     vdW  Elec       q    Type
REMARK                         _______ _______ _______ _____ _____    ______ ____
ROOT
ATOM      1  O   UNL     1      34.085   2.880  14.187  0.00  0.00    +0.000 OA
ATOM      2  O   UNL     1      36.110  -1.907  15.575  0.00  0.00    +0.000 OA
ATOM      3  C   UNL     1      35.951   1.349  14.017  0.00  0.00    +0.000 C 
ATOM      4  C   UNL     1      34.596   1.813  14.466  0.00  0.00    +0.000 C 
ATOM      5  C   UNL     1      36.220   0.155  14.482  0.00  0.00    +0.000 C 
ATOM      6  C   UNL     1      34.184  -0.365  15.768  0.00  0.00    +0.000 C 
ATOM      7  C   UNL     1      35.564  -0.851  15.319  0.00  0.00    +0.000 C 
ATOM      8  C   UNL     1      33.922   0.826  15.301  0.00  0.00    +0.000 C 
ATOM      9  C   UNL     1      33.219  -1.114  16.629  0.00  0.00    +0.000 C 
ENDROOT
BRANCH   3  10
ATOM     10  C   UNL     1      36.766   2.180  13.193  0.00  0.00    +0.000 C 
ATOM     11  C   UNL     1      37.943   2.922  13.778  0.00  0.00    +0.000 C 
ATOM     12  C   UNL     1      36.754   2.021  11.693  0.00  0.00    +0.000 C 
ENDBRANCH   3  10
TORSDOF 1
ENDMDL
MODEL 2
REMARK VINA RESULT:      -5.6      1.182      2.879
REMARK  Name = 10281_Thymoquinone.pdbqt.pdb
REMARK  1 active torsions:
REMARK  status: ('A' for Active; 'I' for Inactive)
REMARK    1  A    between atoms: C_3  and  C_10
REMARK                            x       y       z     vdW  Elec       q    Type
REMARK                         _______ _______ _______ _____ _____    ______ ____
ROOT
ATOM      1  O   UNL     1      37.585  -1.695  14.955  0.00  0.00    +0.000 OA
ATOM      2  O   UNL     1      33.328   1.590  15.130  0.00  0.00    +0.000 OA
ATOM      3  C   UNL     1      36.638   0.423  14.269  0.00  0.00    +0.000 C 
ATOM      4  C   UNL     1      36.657  -0.911  14.958  0.00  0.00    +0.000 C 
ATOM      5  C   UNL     1      35.496   1.035  14.457  0.00  0.00    +0.000 C 
ATOM      6  C   UNL     1      34.268  -0.584  15.850  0.00  0.00    +0.000 C 
ATOM      7  C   UNL     1      34.233   0.778  15.152  0.00  0.00    +0.000 C 
ATOM      8  C   UNL     1      35.409  -1.189  15.659  0.00  0.00    +0.000 C 
ATOM      9  C   UNL     1      33.168  -1.192  16.659  0.00  0.00    +0.000 C 
ENDROOT
BRANCH   3  10
ATOM     10  C   UNL     1      37.769   0.872  13.527  0.00  0.00    +0.000 C 
ATOM     11  C   UNL     1      38.042   0.335  12.143  0.00  0.00    +0.000 C 
ATOM     12  C   UNL     1      38.465   2.160  13.894  0.00  0.00    +0.000 C 
ENDBRANCH   3  10
TORSDOF 1
ENDMDL
MODEL 3
REMARK VINA RESULT:      -5.1     16.827     18.502
REMARK  Name = 10281_Thymoquinone.pdbqt.pdb
REMARK  1 active torsions:
REMARK  status: ('A' for Active; 'I' for Inactive)
REMARK    1  A    between atoms: C_3  and  C_10
REMARK                            x       y       z     vdW  Elec       q    Type
REMARK                         _______ _______ _______ _____ _____    ______ ____
ROOT
ATOM      1  O   UNL     1      16.921   7.652  19.805  0.00  0.00    +0.000 OA
ATOM      2  O   UNL     1      18.836   2.721  18.827  0.00  0.00    +0.000 OA
ATOM      3  C   UNL     1      18.853   6.311  19.238  0.00  0.00    +0.000 C 
ATOM      4  C   UNL     1      17.412   6.564  19.574  0.00  0.00    +0.000 C 
ATOM      5  C   UNL     1      19.075   5.035  19.043  0.00  0.00    +0.000 C 
ATOM      6  C   UNL     1      16.840   4.064  19.407  0.00  0.00    +0.000 C 
ATOM      7  C   UNL     1      18.306   3.789  19.064  0.00  0.00    +0.000 C 
ATOM      8  C   UNL     1      16.625   5.337  19.600  0.00  0.00    +0.000 C 
ATOM      9  C   UNL     1      15.752   3.046  19.520  0.00  0.00    +0.000 C 
ENDROOT
BRANCH   3  10
ATOM     10  C   UNL     1      19.782   7.389  19.168  0.00  0.00    +0.000 C 
ATOM     11  C   UNL     1      20.173   8.147  20.413  0.00  0.00    +0.000 C 
ATOM     12  C   UNL     1      20.702   7.533  17.980  0.00  0.00    +0.000 C 
ENDBRANCH   3  10
TORSDOF 1
ENDMDL
MODEL 4
REMARK VINA RESULT:      -5.0     16.508     18.165
REMARK  Name = 10281_Thymoquinone.pdbqt.pdb
REMARK  1 active torsions:
REMARK  status: ('A' for Active; 'I' for Inactive)
REMARK    1  A    between atoms: C_3  and  C_10
REMARK                            x       y       z     vdW  Elec       q    Type
REMARK                         _______ _______ _______ _____ _____    ______ ____
ROOT
ATOM      1  O   UNL     1      18.202  10.022  19.018  0.00  0.00    +0.000 OA
ATOM      2  O   UNL     1      23.125   9.938  16.852  0.00  0.00    +0.000 OA
ATOM      3  C   UNL     1      20.210   8.735  18.618  0.00  0.00    +0.000 C 
ATOM      4  C   UNL     1      19.320   9.942  18.550  0.00  0.00    +0.000 C 
ATOM      5  C   UNL     1      21.354   8.959  18.020  0.00  0.00    +0.000 C 
ATOM      6  C   UNL     1      21.084  11.282  17.246  0.00  0.00    +0.000 C 
ATOM      7  C   UNL     1      22.004  10.059  17.306  0.00  0.00    +0.000 C 
ATOM      8  C   UNL     1      19.946  11.053  17.843  0.00  0.00    +0.000 C 
ATOM      9  C   UNL     1      21.397  12.594  16.603  0.00  0.00    +0.000 C 
ENDROOT
BRANCH   3  10
ATOM     10  C   UNL     1      19.772   7.545  19.267  0.00  0.00    +0.000 C 
ATOM     11  C   UNL     1      19.811   6.219  18.548  0.00  0.00    +0.000 C 
ATOM     12  C   UNL     1      19.665   7.486  20.772  0.00  0.00    +0.000 C 
ENDBRANCH   3  10
TORSDOF 1
ENDMDL
MODEL 5
REMARK VINA RESULT:      -4.9     22.909     24.096
REMARK  Name = 10281_Thymoquinone.pdbqt.pdb
REMARK  1 active torsions:
REMARK  status: ('A' for Active; 'I' for Inactive)
REMARK    1  A    between atoms: C_3  and  C_10
REMARK                            x       y       z     vdW  Elec       q    Type
REMARK                         _______ _______ _______ _____ _____    ______ ____
ROOT
ATOM      1  O   UNL     1      38.523 -16.998  -0.802  0.00  0.00    +0.000 OA
ATOM      2  O   UNL     1      43.854 -16.977  -1.528  0.00  0.00    +0.000 OA
ATOM      3  C   UNL     1      40.556 -15.686  -0.811  0.00  0.00    +0.000 C 
ATOM      4  C   UNL     1      39.727 -16.930  -0.953  0.00  0.00    +0.000 C 
ATOM      5  C   UNL     1      41.822 -15.934  -1.035  0.00  0.00    +0.000 C 
ATOM      6  C   UNL     1      41.792 -18.348  -1.528  0.00  0.00    +0.000 C 
ATOM      7  C   UNL     1      42.651 -17.088  -1.386  0.00  0.00    +0.000 C 
ATOM      8  C   UNL     1      40.532 -18.094  -1.304  0.00  0.00    +0.000 C 
ATOM      9  C   UNL     1      42.280 -19.716  -1.879  0.00  0.00    +0.000 C 
ENDROOT
BRANCH   3  10
ATOM     10  C   UNL     1      39.947 -14.443  -0.468  0.00  0.00    +0.000 C 
ATOM     11  C   UNL     1      40.301 -13.746   0.823  0.00  0.00    +0.000 C 
ATOM     12  C   UNL     1      39.284 -13.596  -1.526  0.00  0.00    +0.000 C 
ENDBRANCH   3  10
TORSDOF 1
ENDMDL
MODEL 6
REMARK VINA RESULT:      -4.7     16.713     18.088
REMARK  Name = 10281_Thymoquinone.pdbqt.pdb
REMARK  1 active torsions:
REMARK  status: ('A' for Active; 'I' for Inactive)
REMARK    1  A    between atoms: C_3  and  C_10
REMARK                            x       y       z     vdW  Elec       q    Type
REMARK                         _______ _______ _______ _____ _____    ______ ____
ROOT
ATOM      1  O   UNL     1      19.039  11.291  19.877  0.00  0.00    +0.000 OA
ATOM      2  O   UNL     1      21.344   7.240  17.190  0.00  0.00    +0.000 OA
ATOM      3  C   UNL     1      20.450  10.641  18.023  0.00  0.00    +0.000 C 
ATOM      4  C   UNL     1      19.585  10.419  19.230  0.00  0.00    +0.000 C 
ATOM      5  C   UNL     1      20.895   9.505  17.546  0.00  0.00    +0.000 C 
ATOM      6  C   UNL     1      19.896   7.871  19.096  0.00  0.00    +0.000 C 
ATOM      7  C   UNL     1      20.781   8.081  17.864  0.00  0.00    +0.000 C 
ATOM      8  C   UNL     1      19.456   9.006  19.566  0.00  0.00    +0.000 C 
ATOM      9  C   UNL     1      19.546   6.559  19.721  0.00  0.00    +0.000 C 
ENDROOT
BRANCH   3  10
ATOM     10  C   UNL     1      20.699  11.959  17.540  0.00  0.00    +0.000 C 
ATOM     11  C   UNL     1      22.094  12.535  17.564  0.00  0.00    +0.000 C 
ATOM     12  C   UNL     1      19.709  12.641  16.627  0.00  0.00    +0.000 C 
ENDBRANCH   3  10
TORSDOF 1
ENDMDL
MODEL 7
REMARK VINA RESULT:      -4.6     22.740     23.972
REMARK  Name = 10281_Thymoquinone.pdbqt.pdb
REMARK  1 active torsions:
REMARK  status: ('A' for Active; 'I' for Inactive)
REMARK    1  A    between atoms: C_3  and  C_10
REMARK                            x       y       z     vdW  Elec       q    Type
REMARK                         _______ _______ _______ _____ _____    ______ ____
ROOT
ATOM      1  O   UNL     1      38.933 -18.028  -0.937  0.00  0.00    +0.000 OA
ATOM      2  O   UNL     1      42.008 -13.634  -0.515  0.00  0.00    +0.000 OA
ATOM      3  C   UNL     1      41.043 -16.980  -1.483  0.00  0.00    +0.000 C 
ATOM      4  C   UNL     1      39.673 -17.066  -0.876  0.00  0.00    +0.000 C 
ATOM      5  C   UNL     1      41.592 -15.814  -1.246  0.00  0.00    +0.000 C 
ATOM      6  C   UNL     1      39.839 -14.679   0.061  0.00  0.00    +0.000 C 
ATOM      7  C   UNL     1      41.238 -14.574  -0.553  0.00  0.00    +0.000 C 
ATOM      8  C   UNL     1      39.298 -15.842  -0.178  0.00  0.00    +0.000 C 
ATOM      9  C   UNL     1      39.136 -13.618   0.845  0.00  0.00    +0.000 C 
ENDROOT
BRANCH   3  10
ATOM     10  C   UNL     1      41.586 -18.079  -2.210  0.00  0.00    +0.000 C 
ATOM     11  C   UNL     1      42.024 -17.909  -3.645  0.00  0.00    +0.000 C 
ATOM     12  C   UNL     1      42.125 -19.287  -1.485  0.00  0.00    +0.000 C 
ENDBRANCH   3  10
TORSDOF 1
ENDMDL
MODEL 8
REMARK VINA RESULT:      -4.5     21.450     22.733
REMARK  Name = 10281_Thymoquinone.pdbqt.pdb
REMARK  1 active torsions:
REMARK  status: ('A' for Active; 'I' for Inactive)
REMARK    1  A    between atoms: C_3  and  C_10
REMARK                            x       y       z     vdW  Elec       q    Type
REMARK                         _______ _______ _______ _____ _____    ______ ____
ROOT
ATOM      1  O   UNL     1      40.549 -15.100  -3.532  0.00  0.00    +0.000 OA
ATOM      2  O   UNL     1      40.045 -13.398   1.547  0.00  0.00    +0.000 OA
ATOM      3  C   UNL     1      41.619 -14.814  -1.382  0.00  0.00    +0.000 C 
ATOM      4  C   UNL     1      40.496 -14.733  -2.374  0.00  0.00    +0.000 C 
ATOM      5  C   UNL     1      41.255 -14.339  -0.217  0.00  0.00    +0.000 C 
ATOM      6  C   UNL     1      38.919 -13.678  -0.640  0.00  0.00    +0.000 C 
ATOM      7  C   UNL     1      40.055 -13.752   0.384  0.00  0.00    +0.000 C 
ATOM      8  C   UNL     1      39.289 -14.153  -1.799  0.00  0.00    +0.000 C 
ATOM      9  C   UNL     1      37.545 -13.143  -0.399  0.00  0.00    +0.000 C 
ENDROOT
BRANCH   3  10
ATOM     10  C   UNL     1      42.885 -15.351  -1.758  0.00  0.00    +0.000 C 
ATOM     11  C   UNL     1      43.936 -14.470  -2.388  0.00  0.00    +0.000 C 
ATOM     12  C   UNL     1      43.368 -16.658  -1.178  0.00  0.00    +0.000 C 
ENDBRANCH   3  10
TORSDOF 1
ENDMDL
MODEL 9
REMARK VINA RESULT:      -4.4     26.553     27.588
REMARK  Name = 10281_Thymoquinone.pdbqt.pdb
REMARK  1 active torsions:
REMARK  status: ('A' for Active; 'I' for Inactive)
REMARK    1  A    between atoms: C_3  and  C_10
REMARK                            x       y       z     vdW  Elec       q    Type
REMARK                         _______ _______ _______ _____ _____    ______ ____
ROOT
ATOM      1  O   UNL     1      27.355  21.973  30.587  0.00  0.00    +0.000 OA
ATOM      2  O   UNL     1      31.646  24.061  28.104  0.00  0.00    +0.000 OA
ATOM      3  C   UNL     1      28.206  23.077  28.610  0.00  0.00    +0.000 C 
ATOM      4  C   UNL     1      28.286  22.459  29.976  0.00  0.00    +0.000 C 
ATOM      5  C   UNL     1      29.377  23.514  28.220  0.00  0.00    +0.000 C 
ATOM      6  C   UNL     1      30.807  22.930  30.140  0.00  0.00    +0.000 C 
ATOM      7  C   UNL     1      30.742  23.565  28.748  0.00  0.00    +0.000 C 
ATOM      8  C   UNL     1      29.637  22.497  30.523  0.00  0.00    +0.000 C 
ATOM      9  C   UNL     1      32.026  22.795  30.994  0.00  0.00    +0.000 C 
ENDROOT
BRANCH   3  10
ATOM     10  C   UNL     1      26.965  23.137  27.911  0.00  0.00    +0.000 C 
ATOM     11  C   UNL     1      26.342  21.885  27.345  0.00  0.00    +0.000 C 
ATOM     12  C   UNL     1      26.048  24.325  28.076  0.00  0.00    +0.000 C 
ENDBRANCH   3  10
TORSDOF 1
ENDMDL
