MODEL 1
REMARK VINA RESULT:      -6.2      0.000      0.000
REMARK  Name = 10639_Physcion.pdbqt.pdb
REMARK  3 active torsions:
REMARK  status: ('A' for Active; 'I' for Inactive)
REMARK    1  A    between atoms: C_10  and  O_18
REMARK    2  A    between atoms: C_12  and  O_20
REMARK    3  A    between atoms: C_15  and  O_22
REMARK                            x       y       z     vdW  Elec       q    Type
REMARK                         _______ _______ _______ _____ _____    ______ ____
ROOT
ATOM      1  O   UNL     1      21.603  -7.928  43.993  0.00  0.00    +0.000 OA
ATOM      2  O   UNL     1      16.836 -10.078  42.974  0.00  0.00    +0.000 OA
ATOM      3  C   UNL     1      18.597  -8.729  42.238  0.00  0.00    +0.000 A 
ATOM      4  C   UNL     1      19.843  -8.171  42.513  0.00  0.00    +0.000 A 
ATOM      5  C   UNL     1      19.841  -9.315  44.808  0.00  0.00    +0.000 A 
ATOM      6  C   UNL     1      18.592  -9.861  44.505  0.00  0.00    +0.000 A 
ATOM      7  C   UNL     1      20.507  -8.444  43.805  0.00  0.00    +0.000 C 
ATOM      8  C   UNL     1      17.931  -9.590  43.220  0.00  0.00    +0.000 C 
ATOM      9  C   UNL     1      17.956  -8.482  41.022  0.00  0.00    +0.000 A 
ATOM     10  C   UNL     1      20.444  -7.354  41.545  0.00  0.00    +0.000 A 
ATOM     11  C   UNL     1      18.565  -7.669  40.072  0.00  0.00    +0.000 A 
ATOM     12  C   UNL     1      20.411  -9.616  46.051  0.00  0.00    +0.000 A 
ATOM     13  C   UNL     1      17.926 -10.686  45.417  0.00  0.00    +0.000 A 
ATOM     14  C   UNL     1      19.809  -7.103  40.328  0.00  0.00    +0.000 A 
ATOM     15  C   UNL     1      18.499 -10.981  46.651  0.00  0.00    +0.000 A 
ATOM     16  C   UNL     1      19.745 -10.440  46.961  0.00  0.00    +0.000 A 
ATOM     17  C   UNL     1      17.874  -7.405  38.768  0.00  0.00    +0.000 C 
ENDROOT
BRANCH  10  18
ATOM     18  O   UNL     1      21.665  -6.761  41.722  0.00  0.00    +0.000 OA
ATOM     19  H   UNL     1      21.647  -6.237  42.557  0.00  0.00    +0.000 HD
ENDBRANCH  10  18
BRANCH  12  20
ATOM     20  O   UNL     1      21.628  -9.119  46.417  0.00  0.00    +0.000 OA
ATOM     21  H   UNL     1      21.682  -9.048  47.387  0.00  0.00    +0.000 HD
ENDBRANCH  12  20
BRANCH  15  22
ATOM     22  O   UNL     1      17.766 -11.799  47.473  0.00  0.00    +0.000 OA
ATOM     23  C   UNL     1      16.947 -11.134  48.396  0.00  0.00    +0.000 C 
ENDBRANCH  15  22
TORSDOF 3
ENDMDL
MODEL 2
REMARK VINA RESULT:      -6.0     34.196     37.296
REMARK  Name = 10639_Physcion.pdbqt.pdb
REMARK  3 active torsions:
REMARK  status: ('A' for Active; 'I' for Inactive)
REMARK    1  A    between atoms: C_10  and  O_18
REMARK    2  A    between atoms: C_12  and  O_20
REMARK    3  A    between atoms: C_15  and  O_22
REMARK                            x       y       z     vdW  Elec       q    Type
REMARK                         _______ _______ _______ _____ _____    ______ ____
ROOT
ATOM      1  O   UNL     1      31.713  23.678  28.607  0.00  0.00    +0.000 OA
ATOM      2  O   UNL     1      26.438  24.093  29.224  0.00  0.00    +0.000 OA
ATOM      3  C   UNL     1      28.339  24.679  27.997  0.00  0.00    +0.000 A 
ATOM      4  C   UNL     1      29.719  24.565  27.843  0.00  0.00    +0.000 A 
ATOM      5  C   UNL     1      29.814  23.042  29.904  0.00  0.00    +0.000 A 
ATOM      6  C   UNL     1      28.431  23.174  30.034  0.00  0.00    +0.000 A 
ATOM      7  C   UNL     1      30.503  23.744  28.790  0.00  0.00    +0.000 C 
ATOM      8  C   UNL     1      27.650  23.990  29.093  0.00  0.00    +0.000 C 
ATOM      9  C   UNL     1      27.583  25.450  27.112  0.00  0.00    +0.000 A 
ATOM     10  C   UNL     1      30.337  25.240  26.782  0.00  0.00    +0.000 A 
ATOM     11  C   UNL     1      28.211  26.114  26.064  0.00  0.00    +0.000 A 
ATOM     12  C   UNL     1      30.494  22.248  30.837  0.00  0.00    +0.000 A 
ATOM     13  C   UNL     1      27.739  22.532  31.066  0.00  0.00    +0.000 A 
ATOM     14  C   UNL     1      29.588  26.013  25.893  0.00  0.00    +0.000 A 
ATOM     15  C   UNL     1      28.421  21.745  31.990  0.00  0.00    +0.000 A 
ATOM     16  C   UNL     1      29.802  21.608  31.867  0.00  0.00    +0.000 A 
ATOM     17  C   UNL     1      27.397  26.941  25.115  0.00  0.00    +0.000 C 
ENDROOT
BRANCH  10  18
ATOM     18  O   UNL     1      31.685  25.190  26.549  0.00  0.00    +0.000 OA
ATOM     19  H   UNL     1      31.960  24.246  26.472  0.00  0.00    +0.000 HD
ENDBRANCH  10  18
BRANCH  12  20
ATOM     20  O   UNL     1      31.846  22.072  30.775  0.00  0.00    +0.000 OA
ATOM     21  H   UNL     1      32.297  22.781  31.268  0.00  0.00    +0.000 HD
ENDBRANCH  12  20
BRANCH  15  22
ATOM     22  O   UNL     1      27.651  21.159  32.963  0.00  0.00    +0.000 OA
ATOM     23  C   UNL     1      27.333  21.988  34.048  0.00  0.00    +0.000 C 
ENDBRANCH  15  22
TORSDOF 3
ENDMDL
MODEL 3
REMARK VINA RESULT:      -5.9     49.608     52.817
REMARK  Name = 10639_Physcion.pdbqt.pdb
REMARK  3 active torsions:
REMARK  status: ('A' for Active; 'I' for Inactive)
REMARK    1  A    between atoms: C_10  and  O_18
REMARK    2  A    between atoms: C_12  and  O_20
REMARK    3  A    between atoms: C_15  and  O_22
REMARK                            x       y       z     vdW  Elec       q    Type
REMARK                         _______ _______ _______ _____ _____    ______ ____
ROOT
ATOM      1  O   UNL     1      43.748 -12.841  -2.038  0.00  0.00    +0.000 OA
ATOM      2  O   UNL     1      42.680 -17.668  -4.024  0.00  0.00    +0.000 OA
ATOM      3  C   UNL     1      43.983 -15.730  -4.125  0.00  0.00    +0.000 A 
ATOM      4  C   UNL     1      44.255 -14.470  -3.600  0.00  0.00    +0.000 A 
ATOM      5  C   UNL     1      42.380 -14.790  -1.880  0.00  0.00    +0.000 A 
ATOM      6  C   UNL     1      42.130 -16.049  -2.427  0.00  0.00    +0.000 A 
ATOM      7  C   UNL     1      43.464 -13.956  -2.460  0.00  0.00    +0.000 C 
ATOM      8  C   UNL     1      42.915 -16.561  -3.559  0.00  0.00    +0.000 C 
ATOM      9  C   UNL     1      44.721 -16.230  -5.201  0.00  0.00    +0.000 A 
ATOM     10  C   UNL     1      45.285 -13.709  -4.171  0.00  0.00    +0.000 A 
ATOM     11  C   UNL     1      45.739 -15.464  -5.756  0.00  0.00    +0.000 A 
ATOM     12  C   UNL     1      41.592 -14.368  -0.802  0.00  0.00    +0.000 A 
ATOM     13  C   UNL     1      41.120 -16.871  -1.914  0.00  0.00    +0.000 A 
ATOM     14  C   UNL     1      46.026 -14.202  -5.246  0.00  0.00    +0.000 A 
ATOM     15  C   UNL     1      40.341 -16.444  -0.843  0.00  0.00    +0.000 A 
ATOM     16  C   UNL     1      40.584 -15.188  -0.291  0.00  0.00    +0.000 A 
ATOM     17  C   UNL     1      46.529 -16.003  -6.911  0.00  0.00    +0.000 C 
ENDROOT
BRANCH  10  18
ATOM     18  O   UNL     1      45.627 -12.460  -3.725  0.00  0.00    +0.000 OA
ATOM     19  H   UNL     1      46.521 -12.503  -3.311  0.00  0.00    +0.000 HD
ENDBRANCH  10  18
BRANCH  12  20
ATOM     20  O   UNL     1      41.778 -13.150  -0.216  0.00  0.00    +0.000 OA
ATOM     21  H   UNL     1      41.790 -12.451  -0.895  0.00  0.00    +0.000 HD
ENDBRANCH  12  20
BRANCH  15  22
ATOM     22  O   UNL     1      39.377 -17.322  -0.414  0.00  0.00    +0.000 OA
ATOM     23  C   UNL     1      38.476 -17.744  -1.402  0.00  0.00    +0.000 C 
ENDBRANCH  15  22
TORSDOF 3
ENDMDL
MODEL 4
REMARK VINA RESULT:      -5.9     12.424     14.863
REMARK  Name = 10639_Physcion.pdbqt.pdb
REMARK  3 active torsions:
REMARK  status: ('A' for Active; 'I' for Inactive)
REMARK    1  A    between atoms: C_10  and  O_18
REMARK    2  A    between atoms: C_12  and  O_20
REMARK    3  A    between atoms: C_15  and  O_22
REMARK                            x       y       z     vdW  Elec       q    Type
REMARK                         _______ _______ _______ _____ _____    ______ ____
ROOT
ATOM      1  O   UNL     1      19.848   7.036  38.805  0.00  0.00    +0.000 OA
ATOM      2  O   UNL     1      17.245   2.582  37.477  0.00  0.00    +0.000 OA
ATOM      3  C   UNL     1      18.359   4.510  36.766  0.00  0.00    +0.000 A 
ATOM      4  C   UNL     1      19.038   5.672  37.123  0.00  0.00    +0.000 A 
ATOM      5  C   UNL     1      18.723   5.088  39.599  0.00  0.00    +0.000 A 
ATOM      6  C   UNL     1      18.046   3.930  39.213  0.00  0.00    +0.000 A 
ATOM      7  C   UNL     1      19.243   6.002  38.550  0.00  0.00    +0.000 C 
ATOM      8  C   UNL     1      17.841   3.601  37.795  0.00  0.00    +0.000 C 
ATOM      9  C   UNL     1      18.156   4.184  35.423  0.00  0.00    +0.000 A 
ATOM     10  C   UNL     1      19.516   6.512  36.107  0.00  0.00    +0.000 A 
ATOM     11  C   UNL     1      18.637   5.027  34.428  0.00  0.00    +0.000 A 
ATOM     12  C   UNL     1      18.881   5.337  40.969  0.00  0.00    +0.000 A 
ATOM     13  C   UNL     1      17.538   3.040  40.166  0.00  0.00    +0.000 A 
ATOM     14  C   UNL     1      19.317   6.193  34.763  0.00  0.00    +0.000 A 
ATOM     15  C   UNL     1      17.699   3.294  41.524  0.00  0.00    +0.000 A 
ATOM     16  C   UNL     1      18.373   4.448  41.918  0.00  0.00    +0.000 A 
ATOM     17  C   UNL     1      18.418   4.675  32.987  0.00  0.00    +0.000 C 
ENDROOT
BRANCH  10  18
ATOM     18  O   UNL     1      20.194   7.675  36.357  0.00  0.00    +0.000 OA
ATOM     19  H   UNL     1      21.049   7.658  35.865  0.00  0.00    +0.000 HD
ENDBRANCH  10  18
BRANCH  12  20
ATOM     20  O   UNL     1      19.531   6.448  41.422  0.00  0.00    +0.000 OA
ATOM     21  H   UNL     1      19.067   7.251  41.122  0.00  0.00    +0.000 HD
ENDBRANCH  12  20
BRANCH  15  22
ATOM     22  O   UNL     1      17.165   2.360  42.377  0.00  0.00    +0.000 OA
ATOM     23  C   UNL     1      17.071   1.063  41.854  0.00  0.00    +0.000 C 
ENDBRANCH  15  22
TORSDOF 3
ENDMDL
MODEL 5
REMARK VINA RESULT:      -5.9      1.601      6.399
REMARK  Name = 10639_Physcion.pdbqt.pdb
REMARK  3 active torsions:
REMARK  status: ('A' for Active; 'I' for Inactive)
REMARK    1  A    between atoms: C_10  and  O_18
REMARK    2  A    between atoms: C_12  and  O_20
REMARK    3  A    between atoms: C_15  and  O_22
REMARK                            x       y       z     vdW  Elec       q    Type
REMARK                         _______ _______ _______ _____ _____    ______ ____
ROOT
ATOM      1  O   UNL     1      17.524 -10.610  43.743  0.00  0.00    +0.000 OA
ATOM      2  O   UNL     1      21.273  -7.137  42.239  0.00  0.00    +0.000 OA
ATOM      3  C   UNL     1      20.492  -8.627  43.861  0.00  0.00    +0.000 A 
ATOM      4  C   UNL     1      19.507  -9.533  44.246  0.00  0.00    +0.000 A 
ATOM      5  C   UNL     1      18.263  -9.104  42.046  0.00  0.00    +0.000 A 
ATOM      6  C   UNL     1      19.264  -8.201  41.686  0.00  0.00    +0.000 A 
ATOM      7  C   UNL     1      18.360  -9.803  43.354  0.00  0.00    +0.000 C 
ATOM      8  C   UNL     1      20.405  -7.932  42.573  0.00  0.00    +0.000 C 
ATOM      9  C   UNL     1      21.582  -8.361  44.692  0.00  0.00    +0.000 A 
ATOM     10  C   UNL     1      19.630 -10.175  45.487  0.00  0.00    +0.000 A 
ATOM     11  C   UNL     1      21.690  -9.005  45.919  0.00  0.00    +0.000 A 
ATOM     12  C   UNL     1      17.205  -9.311  41.151  0.00  0.00    +0.000 A 
ATOM     13  C   UNL     1      19.215  -7.519  40.465  0.00  0.00    +0.000 A 
ATOM     14  C   UNL     1      20.717  -9.914  46.322  0.00  0.00    +0.000 A 
ATOM     15  C   UNL     1      18.161  -7.730  39.582  0.00  0.00    +0.000 A 
ATOM     16  C   UNL     1      17.157  -8.630  39.933  0.00  0.00    +0.000 A 
ATOM     17  C   UNL     1      22.861  -8.717  46.810  0.00  0.00    +0.000 C 
ENDROOT
BRANCH  10  18
ATOM     18  O   UNL     1      18.715 -11.081  45.952  0.00  0.00    +0.000 OA
ATOM     19  H   UNL     1      19.113 -11.982  45.919  0.00  0.00    +0.000 HD
ENDBRANCH  10  18
BRANCH  12  20
ATOM     20  O   UNL     1      16.190 -10.178  41.435  0.00  0.00    +0.000 OA
ATOM     21  H   UNL     1      16.079 -10.811  40.703  0.00  0.00    +0.000 HD
ENDBRANCH  12  20
BRANCH  15  22
ATOM     22  O   UNL     1      18.206  -7.014  38.412  0.00  0.00    +0.000 OA
ATOM     23  C   UNL     1      17.008  -6.377  38.059  0.00  0.00    +0.000 C 
ENDBRANCH  15  22
TORSDOF 3
ENDMDL
MODEL 6
REMARK VINA RESULT:      -5.9     33.439     36.281
REMARK  Name = 10639_Physcion.pdbqt.pdb
REMARK  3 active torsions:
REMARK  status: ('A' for Active; 'I' for Inactive)
REMARK    1  A    between atoms: C_10  and  O_18
REMARK    2  A    between atoms: C_12  and  O_20
REMARK    3  A    between atoms: C_15  and  O_22
REMARK                            x       y       z     vdW  Elec       q    Type
REMARK                         _______ _______ _______ _____ _____    ______ ____
ROOT
ATOM      1  O   UNL     1      30.281  21.909  31.221  0.00  0.00    +0.000 OA
ATOM      2  O   UNL     1      26.520  24.521  28.498  0.00  0.00    +0.000 OA
ATOM      3  C   UNL     1      28.791  24.041  28.773  0.00  0.00    +0.000 A 
ATOM      4  C   UNL     1      29.768  23.355  29.491  0.00  0.00    +0.000 A 
ATOM      5  C   UNL     1      27.948  22.357  30.997  0.00  0.00    +0.000 A 
ATOM      6  C   UNL     1      26.991  23.056  30.260  0.00  0.00    +0.000 A 
ATOM      7  C   UNL     1      29.381  22.490  30.626  0.00  0.00    +0.000 C 
ATOM      8  C   UNL     1      27.374  23.916  29.131  0.00  0.00    +0.000 C 
ATOM      9  C   UNL     1      29.139  24.862  27.698  0.00  0.00    +0.000 A 
ATOM     10  C   UNL     1      31.110  23.503  29.114  0.00  0.00    +0.000 A 
ATOM     11  C   UNL     1      30.474  24.999  27.337  0.00  0.00    +0.000 A 
ATOM     12  C   UNL     1      27.511  21.556  32.060  0.00  0.00    +0.000 A 
ATOM     13  C   UNL     1      25.631  22.962  30.572  0.00  0.00    +0.000 A 
ATOM     14  C   UNL     1      31.465  24.322  28.041  0.00  0.00    +0.000 A 
ATOM     15  C   UNL     1      25.203  22.164  31.629  0.00  0.00    +0.000 A 
ATOM     16  C   UNL     1      26.152  21.462  32.370  0.00  0.00    +0.000 A 
ATOM     17  C   UNL     1      30.845  25.881  26.183  0.00  0.00    +0.000 C 
ENDROOT
BRANCH  10  18
ATOM     18  O   UNL     1      32.140  22.871  29.757  0.00  0.00    +0.000 OA
ATOM     19  H   UNL     1      31.826  21.991  30.073  0.00  0.00    +0.000 HD
ENDBRANCH  10  18
BRANCH  12  20
ATOM     20  O   UNL     1      28.388  20.843  32.824  0.00  0.00    +0.000 OA
ATOM     21  H   UNL     1      27.914  20.146  33.313  0.00  0.00    +0.000 HD
ENDBRANCH  12  20
BRANCH  15  22
ATOM     22  O   UNL     1      23.849  22.139  31.854  0.00  0.00    +0.000 OA
ATOM     23  C   UNL     1      23.058  22.470  30.745  0.00  0.00    +0.000 C 
ENDBRANCH  15  22
TORSDOF 3
ENDMDL
MODEL 7
REMARK VINA RESULT:      -5.8     32.978     35.443
REMARK  Name = 10639_Physcion.pdbqt.pdb
REMARK  3 active torsions:
REMARK  status: ('A' for Active; 'I' for Inactive)
REMARK    1  A    between atoms: C_10  and  O_18
REMARK    2  A    between atoms: C_12  and  O_20
REMARK    3  A    between atoms: C_15  and  O_22
REMARK                            x       y       z     vdW  Elec       q    Type
REMARK                         _______ _______ _______ _____ _____    ______ ____
ROOT
ATOM      1  O   UNL     1      25.312  23.461  28.188  0.00  0.00    +0.000 OA
ATOM      2  O   UNL     1      26.918  21.491  32.870  0.00  0.00    +0.000 OA
ATOM      3  C   UNL     1      25.141  22.183  31.519  0.00  0.00    +0.000 A 
ATOM      4  C   UNL     1      24.730  22.699  30.292  0.00  0.00    +0.000 A 
ATOM      5  C   UNL     1      27.172  22.772  29.514  0.00  0.00    +0.000 A 
ATOM      6  C   UNL     1      27.555  22.255  30.752  0.00  0.00    +0.000 A 
ATOM      7  C   UNL     1      25.730  23.011  29.248  0.00  0.00    +0.000 C 
ATOM      8  C   UNL     1      26.562  21.944  31.791  0.00  0.00    +0.000 C 
ATOM      9  C   UNL     1      24.210  21.883  32.516  0.00  0.00    +0.000 A 
ATOM     10  C   UNL     1      23.362  22.912  30.075  0.00  0.00    +0.000 A 
ATOM     11  C   UNL     1      22.856  22.100  32.285  0.00  0.00    +0.000 A 
ATOM     12  C   UNL     1      28.173  23.044  28.572  0.00  0.00    +0.000 A 
ATOM     13  C   UNL     1      28.901  22.013  31.048  0.00  0.00    +0.000 A 
ATOM     14  C   UNL     1      22.426  22.614  31.066  0.00  0.00    +0.000 A 
ATOM     15  C   UNL     1      29.890  22.286  30.108  0.00  0.00    +0.000 A 
ATOM     16  C   UNL     1      29.516  22.802  28.869  0.00  0.00    +0.000 A 
ATOM     17  C   UNL     1      21.859  21.777  33.357  0.00  0.00    +0.000 C 
ENDROOT
BRANCH  10  18
ATOM     18  O   UNL     1      22.861  23.414  28.904  0.00  0.00    +0.000 OA
ATOM     19  H   UNL     1      22.978  22.741  28.192  0.00  0.00    +0.000 HD
ENDBRANCH  10  18
BRANCH  12  20
ATOM     20  O   UNL     1      27.875  23.551  27.341  0.00  0.00    +0.000 OA
ATOM     21  H   UNL     1      28.477  23.177  26.672  0.00  0.00    +0.000 HD
ENDBRANCH  12  20
BRANCH  15  22
ATOM     22  O   UNL     1      31.178  22.014  30.495  0.00  0.00    +0.000 OA
ATOM     23  C   UNL     1      31.862  23.090  31.079  0.00  0.00    +0.000 C 
ENDBRANCH  15  22
TORSDOF 3
ENDMDL
MODEL 8
REMARK VINA RESULT:      -5.8     15.479     18.801
REMARK  Name = 10639_Physcion.pdbqt.pdb
REMARK  3 active torsions:
REMARK  status: ('A' for Active; 'I' for Inactive)
REMARK    1  A    between atoms: C_10  and  O_18
REMARK    2  A    between atoms: C_12  and  O_20
REMARK    3  A    between atoms: C_15  and  O_22
REMARK                            x       y       z     vdW  Elec       q    Type
REMARK                         _______ _______ _______ _____ _____    ______ ____
ROOT
ATOM      1  O   UNL     1      19.282   8.120  33.723  0.00  0.00    +0.000 OA
ATOM      2  O   UNL     1      19.450   6.533  38.806  0.00  0.00    +0.000 OA
ATOM      3  C   UNL     1      18.901   6.027  36.591  0.00  0.00    +0.000 A 
ATOM      4  C   UNL     1      18.860   6.450  35.265  0.00  0.00    +0.000 A 
ATOM      5  C   UNL     1      19.865   8.704  35.962  0.00  0.00    +0.000 A 
ATOM      6  C   UNL     1      19.894   8.253  37.283  0.00  0.00    +0.000 A 
ATOM      7  C   UNL     1      19.340   7.801  34.905  0.00  0.00    +0.000 C 
ATOM      8  C   UNL     1      19.417   6.910  37.643  0.00  0.00    +0.000 C 
ATOM      9  C   UNL     1      18.451   4.753  36.949  0.00  0.00    +0.000 A 
ATOM     10  C   UNL     1      18.359   5.573  34.293  0.00  0.00    +0.000 A 
ATOM     11  C   UNL     1      17.957   3.896  35.973  0.00  0.00    +0.000 A 
ATOM     12  C   UNL     1      20.336   9.995  35.693  0.00  0.00    +0.000 A 
ATOM     13  C   UNL     1      20.379   9.067  38.312  0.00  0.00    +0.000 A 
ATOM     14  C   UNL     1      17.908   4.300  34.643  0.00  0.00    +0.000 A 
ATOM     15  C   UNL     1      20.845  10.349  38.038  0.00  0.00    +0.000 A 
ATOM     16  C   UNL     1      20.820  10.807  36.722  0.00  0.00    +0.000 A 
ATOM     17  C   UNL     1      17.475   2.530  36.360  0.00  0.00    +0.000 C 
ENDROOT
BRANCH  10  18
ATOM     18  O   UNL     1      18.279   5.898  32.965  0.00  0.00    +0.000 OA
ATOM     19  H   UNL     1      18.591   6.826  32.845  0.00  0.00    +0.000 HD
ENDBRANCH  10  18
BRANCH  12  20
ATOM     20  O   UNL     1      20.339  10.504  34.427  0.00  0.00    +0.000 OA
ATOM     21  H   UNL     1      19.631  10.091  33.900  0.00  0.00    +0.000 HD
ENDBRANCH  12  20
BRANCH  15  22
ATOM     22  O   UNL     1      21.300  11.067  39.115  0.00  0.00    +0.000 OA
ATOM     23  C   UNL     1      21.790  10.295  40.178  0.00  0.00    +0.000 C 
ENDBRANCH  15  22
TORSDOF 3
ENDMDL
MODEL 9
REMARK VINA RESULT:      -5.8     15.117     18.270
REMARK  Name = 10639_Physcion.pdbqt.pdb
REMARK  3 active torsions:
REMARK  status: ('A' for Active; 'I' for Inactive)
REMARK    1  A    between atoms: C_10  and  O_18
REMARK    2  A    between atoms: C_12  and  O_20
REMARK    3  A    between atoms: C_15  and  O_22
REMARK                            x       y       z     vdW  Elec       q    Type
REMARK                         _______ _______ _______ _____ _____    ______ ____
ROOT
ATOM      1  O   UNL     1      19.241   8.043  33.692  0.00  0.00    +0.000 OA
ATOM      2  O   UNL     1      19.506   6.452  38.769  0.00  0.00    +0.000 OA
ATOM      3  C   UNL     1      19.865   8.153  37.206  0.00  0.00    +0.000 A 
ATOM      4  C   UNL     1      19.793   8.560  35.877  0.00  0.00    +0.000 A 
ATOM      5  C   UNL     1      18.851   6.264  35.233  0.00  0.00    +0.000 A 
ATOM      6  C   UNL     1      18.935   5.882  36.572  0.00  0.00    +0.000 A 
ATOM      7  C   UNL     1      19.284   7.631  34.845  0.00  0.00    +0.000 C 
ATOM      8  C   UNL     1      19.441   6.805  37.600  0.00  0.00    +0.000 C 
ATOM      9  C   UNL     1      20.343   9.017  38.194  0.00  0.00    +0.000 A 
ATOM     10  C   UNL     1      20.209   9.857  35.546  0.00  0.00    +0.000 A 
ATOM     11  C   UNL     1      20.752  10.301  37.849  0.00  0.00    +0.000 A 
ATOM     12  C   UNL     1      18.360   5.332  34.309  0.00  0.00    +0.000 A 
ATOM     13  C   UNL     1      18.540   4.605  36.985  0.00  0.00    +0.000 A 
ATOM     14  C   UNL     1      20.688  10.727  36.527  0.00  0.00    +0.000 A 
ATOM     15  C   UNL     1      18.052   3.686  36.062  0.00  0.00    +0.000 A 
ATOM     16  C   UNL     1      17.965   4.058  34.722  0.00  0.00    +0.000 A 
ATOM     17  C   UNL     1      21.265  11.227  38.911  0.00  0.00    +0.000 C 
ENDROOT
BRANCH  10  18
ATOM     18  O   UNL     1      20.175  10.349  34.268  0.00  0.00    +0.000 OA
ATOM     19  H   UNL     1      19.991   9.606  33.646  0.00  0.00    +0.000 HD
ENDBRANCH  10  18
BRANCH  12  20
ATOM     20  O   UNL     1      18.249   5.633  32.982  0.00  0.00    +0.000 OA
ATOM     21  H   UNL     1      18.929   5.155  32.474  0.00  0.00    +0.000 HD
ENDBRANCH  12  20
BRANCH  15  22
ATOM     22  O   UNL     1      17.691   2.462  36.567  0.00  0.00    +0.000 OA
ATOM     23  C   UNL     1      16.948   2.505  37.755  0.00  0.00    +0.000 C 
ENDBRANCH  15  22
TORSDOF 3
ENDMDL
