MODEL 1
REMARK VINA RESULT:      -8.1      0.000      0.000
REMARK  Name = 10940649_MilnamideD.pdbqt.pdb
REMARK  7 active torsions:
REMARK  status: ('A' for Active; 'I' for Inactive)
REMARK    1  A    between atoms: C_3  and  C_8
REMARK    2  A    between atoms: C_22  and  C_25
REMARK    3  A    between atoms: C_22  and  C_38
REMARK    4  A    between atoms: N_24  and  C_27
REMARK    5  A    between atoms: C_27  and  C_28
REMARK    6  A    between atoms: C_32  and  C_35
REMARK    7  A    between atoms: C_35  and  O_36
REMARK                            x       y       z     vdW  Elec       q    Type
REMARK                         _______ _______ _______ _____ _____    ______ ____
ROOT
ATOM      1  O   UNL     1      18.978  11.560  20.984  0.00  0.00    +0.000 OA
ATOM      2  N   UNL     1      19.550  11.365  18.796  0.00  0.00    +0.000 N 
ATOM      3  C   UNL     1      18.876  10.948  19.928  0.00  0.00    +0.000 C 
ATOM      4  H   UNL     1      19.521  10.768  17.961  0.00  0.00    +0.000 HD
ATOM      5  C   UNL     1      20.354  12.528  18.709  0.00  0.00    +0.000 C 
ENDROOT
BRANCH   3   9
ATOM      6  N   UNL     1      16.562   9.822  19.872  0.00  0.00    +0.000 NA
ATOM      7  N   UNL     1      15.975   5.968  19.433  0.00  0.00    +0.000 N 
ATOM      8  C   UNL     1      18.803   8.370  19.841  0.00  0.00    +0.000 C 
ATOM      9  C   UNL     1      18.029   9.720  19.785  0.00  0.00    +0.000 C 
ATOM     10  C   UNL     1      17.897   7.113  19.644  0.00  0.00    +0.000 A 
ATOM     11  C   UNL     1      16.520   7.194  19.593  0.00  0.00    +0.000 A 
ATOM     12  C   UNL     1      19.418   8.173  21.258  0.00  0.00    +0.000 C 
ATOM     13  C   UNL     1      19.826   8.305  18.670  0.00  0.00    +0.000 C 
ATOM     14  C   UNL     1      18.194   5.709  19.516  0.00  0.00    +0.000 A 
ATOM     15  C   UNL     1      16.024   8.496  19.716  0.00  0.00    +0.000 C 
ATOM     16  C   UNL     1      16.971   5.021  19.381  0.00  0.00    +0.000 A 
ATOM     17  C   UNL     1      16.027  10.638  18.794  0.00  0.00    +0.000 C 
ATOM     18  C   UNL     1      19.389   4.962  19.506  0.00  0.00    +0.000 A 
ATOM     19  C   UNL     1      14.578   5.713  19.351  0.00  0.00    +0.000 C 
ATOM     20  C   UNL     1      16.911   3.627  19.235  0.00  0.00    +0.000 A 
ATOM     21  C   UNL     1      19.335   3.575  19.362  0.00  0.00    +0.000 A 
ATOM     22  C   UNL     1      18.116   2.923  19.227  0.00  0.00    +0.000 A 
ENDBRANCH   3   9
BRANCH   5  25
ATOM     23  O   UNL     1      21.337  13.497  20.583  0.00  0.00    +0.000 OA
ATOM     24  N   UNL     1      19.288  14.416  19.847  0.00  0.00    +0.000 N 
ATOM     25  C   UNL     1      20.373  13.506  19.824  0.00  0.00    +0.000 C 
ATOM     26  C   UNL     1      18.137  14.355  18.940  0.00  0.00    +0.000 C 
BRANCH  24  27
ATOM     27  C   UNL     1      19.273  15.483  20.763  0.00  0.00    +0.000 C 
ATOM     28  C   UNL     1      19.962  16.713  20.485  0.00  0.00    +0.000 C 
ATOM     29  C   UNL     1      20.583  17.829  20.240  0.00  0.00    +0.000 C 
ATOM     30  C   UNL     1      19.693  19.035  20.022  0.00  0.00    +0.000 C 
BRANCH  27  31
ATOM     31  C   UNL     1      18.542  15.401  22.019  0.00  0.00    +0.000 C 
ATOM     32  C   UNL     1      18.340  14.064  22.706  0.00  0.00    +0.000 C 
ATOM     33  C   UNL     1      18.514  16.601  22.947  0.00  0.00    +0.000 C 
ENDBRANCH  27  31
BRANCH  29  35
ATOM     34  O   UNL     1      22.770  18.831  20.423  0.00  0.00    +0.000 OA
ATOM     35  C   UNL     1      22.071  17.855  20.194  0.00  0.00    +0.000 C 
BRANCH  35  36
ATOM     36  O   UNL     1      22.642  16.678  19.863  0.00  0.00    +0.000 OA
ATOM     37  H   UNL     1      21.919  16.138  19.483  0.00  0.00    +0.000 HD
ENDBRANCH  35  36
ENDBRANCH  29  35
ENDBRANCH  24  27
ENDBRANCH   5  25
BRANCH   5  38
ATOM     38  C   UNL     1      21.020  13.005  17.428  0.00  0.00    +0.000 C 
ATOM     39  C   UNL     1      22.299  12.129  17.235  0.00  0.00    +0.000 C 
ATOM     40  C   UNL     1      20.048  12.715  16.249  0.00  0.00    +0.000 C 
ATOM     41  C   UNL     1      21.430  14.498  17.461  0.00  0.00    +0.000 C 
ENDBRANCH   5  38
TORSDOF 7
ENDMDL
MODEL 2
REMARK VINA RESULT:      -7.5     21.692     25.439
REMARK  Name = 10940649_MilnamideD.pdbqt.pdb
REMARK  7 active torsions:
REMARK  status: ('A' for Active; 'I' for Inactive)
REMARK    1  A    between atoms: C_3  and  C_8
REMARK    2  A    between atoms: C_22  and  C_25
REMARK    3  A    between atoms: C_22  and  C_38
REMARK    4  A    between atoms: N_24  and  C_27
REMARK    5  A    between atoms: C_27  and  C_28
REMARK    6  A    between atoms: C_32  and  C_35
REMARK    7  A    between atoms: C_35  and  O_36
REMARK                            x       y       z     vdW  Elec       q    Type
REMARK                         _______ _______ _______ _____ _____    ______ ____
ROOT
ATOM      1  O   UNL     1      39.692   2.662  12.168  0.00  0.00    +0.000 OA
ATOM      2  N   UNL     1      41.715   2.293  11.205  0.00  0.00    +0.000 N 
ATOM      3  C   UNL     1      40.844   3.035  11.980  0.00  0.00    +0.000 C 
ATOM      4  H   UNL     1      42.636   2.691  10.988  0.00  0.00    +0.000 HD
ATOM      5  C   UNL     1      41.415   1.042  10.613  0.00  0.00    +0.000 C 
ENDROOT
BRANCH   3   9
ATOM      6  N   UNL     1      42.439   5.052  11.855  0.00  0.00    +0.000 NA
ATOM      7  N   UNL     1      42.743   7.819  14.619  0.00  0.00    +0.000 N 
ATOM      8  C   UNL     1      40.983   4.579  14.043  0.00  0.00    +0.000 C 
ATOM      9  C   UNL     1      41.386   4.304  12.564  0.00  0.00    +0.000 C 
ATOM     10  C   UNL     1      41.527   5.930  14.606  0.00  0.00    +0.000 A 
ATOM     11  C   UNL     1      42.418   6.718  13.906  0.00  0.00    +0.000 A 
ATOM     12  C   UNL     1      41.616   3.501  14.972  0.00  0.00    +0.000 C 
ATOM     13  C   UNL     1      39.435   4.704  14.148  0.00  0.00    +0.000 C 
ATOM     14  C   UNL     1      41.316   6.622  15.852  0.00  0.00    +0.000 A 
ATOM     15  C   UNL     1      42.768   6.203  12.654  0.00  0.00    +0.000 C 
ATOM     16  C   UNL     1      42.087   7.801  15.826  0.00  0.00    +0.000 A 
ATOM     17  C   UNL     1      41.963   5.537  10.569  0.00  0.00    +0.000 C 
ATOM     18  C   UNL     1      40.543   6.350  16.999  0.00  0.00    +0.000 A 
ATOM     19  C   UNL     1      43.646   8.826  14.176  0.00  0.00    +0.000 C 
ATOM     20  C   UNL     1      42.103   8.706  16.899  0.00  0.00    +0.000 A 
ATOM     21  C   UNL     1      40.556   7.246  18.069  0.00  0.00    +0.000 A 
ATOM     22  C   UNL     1      41.322   8.403  18.016  0.00  0.00    +0.000 A 
ENDBRANCH   3   9
BRANCH   5  25
ATOM     23  O   UNL     1      40.164  -0.432  11.910  0.00  0.00    +0.000 OA
ATOM     24  N   UNL     1      39.030   0.702  10.174  0.00  0.00    +0.000 N 
ATOM     25  C   UNL     1      40.154   0.340  10.955  0.00  0.00    +0.000 C 
ATOM     26  C   UNL     1      39.083   1.600   9.015  0.00  0.00    +0.000 C 
BRANCH  24  27
ATOM     27  C   UNL     1      37.751   0.219  10.500  0.00  0.00    +0.000 C 
ATOM     28  C   UNL     1      37.208   0.379  11.821  0.00  0.00    +0.000 C 
ATOM     29  C   UNL     1      36.711   0.520  13.015  0.00  0.00    +0.000 C 
ATOM     30  C   UNL     1      35.525   1.455  13.120  0.00  0.00    +0.000 C 
BRANCH  27  31
ATOM     31  C   UNL     1      36.909  -0.441   9.512  0.00  0.00    +0.000 C 
ATOM     32  C   UNL     1      36.383   0.326   8.315  0.00  0.00    +0.000 C 
ATOM     33  C   UNL     1      37.040  -1.938   9.300  0.00  0.00    +0.000 C 
ENDBRANCH  27  31
BRANCH  29  35
ATOM     34  O   UNL     1      36.936  -0.150  15.322  0.00  0.00    +0.000 OA
ATOM     35  C   UNL     1      37.311  -0.219  14.160  0.00  0.00    +0.000 C 
BRANCH  35  36
ATOM     36  O   UNL     1      38.352  -1.012  13.832  0.00  0.00    +0.000 OA
ATOM     37  H   UNL     1      39.119  -0.646  14.318  0.00  0.00    +0.000 HD
ENDBRANCH  35  36
ENDBRANCH  29  35
ENDBRANCH  24  27
ENDBRANCH   5  25
BRANCH   5  38
ATOM     38  C   UNL     1      42.419   0.211   9.831  0.00  0.00    +0.000 C 
ATOM     39  C   UNL     1      43.074   1.168   8.784  0.00  0.00    +0.000 C 
ATOM     40  C   UNL     1      43.524  -0.257  10.821  0.00  0.00    +0.000 C 
ATOM     41  C   UNL     1      41.785  -0.992   9.091  0.00  0.00    +0.000 C 
ENDBRANCH   5  38
TORSDOF 7
ENDMDL
MODEL 3
REMARK VINA RESULT:      -7.3      4.420      7.206
REMARK  Name = 10940649_MilnamideD.pdbqt.pdb
REMARK  7 active torsions:
REMARK  status: ('A' for Active; 'I' for Inactive)
REMARK    1  A    between atoms: C_3  and  C_8
REMARK    2  A    between atoms: C_22  and  C_25
REMARK    3  A    between atoms: C_22  and  C_38
REMARK    4  A    between atoms: N_24  and  C_27
REMARK    5  A    between atoms: C_27  and  C_28
REMARK    6  A    between atoms: C_32  and  C_35
REMARK    7  A    between atoms: C_35  and  O_36
REMARK                            x       y       z     vdW  Elec       q    Type
REMARK                         _______ _______ _______ _____ _____    ______ ____
ROOT
ATOM      1  O   UNL     1      17.132  11.401  23.938  0.00  0.00    +0.000 OA
ATOM      2  N   UNL     1      16.762  12.958  22.327  0.00  0.00    +0.000 N 
ATOM      3  C   UNL     1      17.268  11.751  22.771  0.00  0.00    +0.000 C 
ATOM      4  H   UNL     1      16.985  13.260  21.372  0.00  0.00    +0.000 HD
ATOM      5  C   UNL     1      16.011  13.865  23.114  0.00  0.00    +0.000 C 
ENDROOT
BRANCH   3   9
ATOM      6  N   UNL     1      17.897   9.443  21.820  0.00  0.00    +0.000 NA
ATOM      7  N   UNL     1      20.247   8.878  18.731  0.00  0.00    +0.000 N 
ATOM      8  C   UNL     1      19.004  11.677  20.864  0.00  0.00    +0.000 C 
ATOM      9  C   UNL     1      17.980  10.912  21.754  0.00  0.00    +0.000 C 
ATOM     10  C   UNL     1      19.696  10.783  19.786  0.00  0.00    +0.000 A 
ATOM     11  C   UNL     1      19.532   9.414  19.744  0.00  0.00    +0.000 A 
ATOM     12  C   UNL     1      20.184  12.192  21.740  0.00  0.00    +0.000 C 
ATOM     13  C   UNL     1      18.267  12.778  20.048  0.00  0.00    +0.000 C 
ATOM     14  C   UNL     1      20.601  11.084  18.706  0.00  0.00    +0.000 A 
ATOM     15  C   UNL     1      18.685   8.913  20.738  0.00  0.00    +0.000 C 
ATOM     16  C   UNL     1      20.923   9.872  18.064  0.00  0.00    +0.000 A 
ATOM     17  C   UNL     1      16.530   8.986  21.627  0.00  0.00    +0.000 C 
ATOM     18  C   UNL     1      21.177  12.275  18.220  0.00  0.00    +0.000 A 
ATOM     19  C   UNL     1      20.296   7.488  18.427  0.00  0.00    +0.000 C 
ATOM     20  C   UNL     1      21.790   9.818  16.962  0.00  0.00    +0.000 A 
ATOM     21  C   UNL     1      22.041  12.227  17.125  0.00  0.00    +0.000 A 
ATOM     22  C   UNL     1      22.338  11.019  16.508  0.00  0.00    +0.000 A 
ENDBRANCH   3   9
BRANCH   5  25
ATOM     23  O   UNL     1      14.511  12.823  24.557  0.00  0.00    +0.000 OA
ATOM     24  N   UNL     1      16.416  13.829  25.528  0.00  0.00    +0.000 N 
ATOM     25  C   UNL     1      15.549  13.472  24.467  0.00  0.00    +0.000 C 
ATOM     26  C   UNL     1      17.626  14.644  25.371  0.00  0.00    +0.000 C 
BRANCH  24  27
ATOM     27  C   UNL     1      16.163  13.380  26.837  0.00  0.00    +0.000 C 
ATOM     28  C   UNL     1      15.528  14.230  27.806  0.00  0.00    +0.000 C 
ATOM     29  C   UNL     1      14.953  14.994  28.689  0.00  0.00    +0.000 C 
ATOM     30  C   UNL     1      13.564  14.566  29.113  0.00  0.00    +0.000 C 
BRANCH  27  31
ATOM     31  C   UNL     1      16.508  12.031  27.262  0.00  0.00    +0.000 C 
ATOM     32  C   UNL     1      17.885  11.729  27.820  0.00  0.00    +0.000 C 
ATOM     33  C   UNL     1      15.412  11.093  27.734  0.00  0.00    +0.000 C 
ENDBRANCH  27  31
BRANCH  29  35
ATOM     34  O   UNL     1      15.484  16.706  30.303  0.00  0.00    +0.000 OA
ATOM     35  C   UNL     1      15.667  16.192  29.209  0.00  0.00    +0.000 C 
BRANCH  35  36
ATOM     36  O   UNL     1      16.579  16.714  28.361  0.00  0.00    +0.000 OA
ATOM     37  H   UNL     1      17.274  16.029  28.276  0.00  0.00    +0.000 HD
ENDBRANCH  35  36
ENDBRANCH  29  35
ENDBRANCH  24  27
ENDBRANCH   5  25
BRANCH   5  38
ATOM     38  C   UNL     1      15.400  15.149  22.577  0.00  0.00    +0.000 C 
ATOM     39  C   UNL     1      16.578  16.002  22.006  0.00  0.00    +0.000 C 
ATOM     40  C   UNL     1      14.457  14.772  21.399  0.00  0.00    +0.000 C 
ATOM     41  C   UNL     1      14.652  15.976  23.651  0.00  0.00    +0.000 C 
ENDBRANCH   5  38
TORSDOF 7
ENDMDL
MODEL 4
REMARK VINA RESULT:      -7.3     31.023     34.721
REMARK  Name = 10940649_MilnamideD.pdbqt.pdb
REMARK  7 active torsions:
REMARK  status: ('A' for Active; 'I' for Inactive)
REMARK    1  A    between atoms: C_3  and  C_8
REMARK    2  A    between atoms: C_22  and  C_25
REMARK    3  A    between atoms: C_22  and  C_38
REMARK    4  A    between atoms: N_24  and  C_27
REMARK    5  A    between atoms: C_27  and  C_28
REMARK    6  A    between atoms: C_32  and  C_35
REMARK    7  A    between atoms: C_35  and  O_36
REMARK                            x       y       z     vdW  Elec       q    Type
REMARK                         _______ _______ _______ _____ _____    ______ ____
ROOT
ATOM      1  O   UNL     1      34.623 -15.451  35.244  0.00  0.00    +0.000 OA
ATOM      2  N   UNL     1      33.635 -17.389  35.893  0.00  0.00    +0.000 N 
ATOM      3  C   UNL     1      33.862 -16.374  34.983  0.00  0.00    +0.000 C 
ATOM      4  H   UNL     1      32.915 -18.087  35.678  0.00  0.00    +0.000 HD
ATOM      5  C   UNL     1      34.270 -17.509  37.154  0.00  0.00    +0.000 C 
ENDROOT
BRANCH   3   9
ATOM      6  N   UNL     1      33.878 -16.675  32.426  0.00  0.00    +0.000 NA
ATOM      7  N   UNL     1      30.679 -16.593  30.158  0.00  0.00    +0.000 N 
ATOM      8  C   UNL     1      31.629 -16.059  33.727  0.00  0.00    +0.000 C 
ATOM      9  C   UNL     1      33.130 -16.473  33.679  0.00  0.00    +0.000 C 
ATOM     10  C   UNL     1      30.886 -16.216  32.363  0.00  0.00    +0.000 A 
ATOM     11  C   UNL     1      31.546 -16.533  31.193  0.00  0.00    +0.000 A 
ATOM     12  C   UNL     1      31.511 -14.540  34.049  0.00  0.00    +0.000 C 
ATOM     13  C   UNL     1      30.861 -16.995  34.704  0.00  0.00    +0.000 C 
ATOM     14  C   UNL     1      29.505 -16.061  31.983  0.00  0.00    +0.000 A 
ATOM     15  C   UNL     1      32.924 -16.713  31.350  0.00  0.00    +0.000 C 
ATOM     16  C   UNL     1      29.409 -16.307  30.599  0.00  0.00    +0.000 A 
ATOM     17  C   UNL     1      34.578 -17.950  32.433  0.00  0.00    +0.000 C 
ATOM     18  C   UNL     1      28.331 -15.730  32.689  0.00  0.00    +0.000 A 
ATOM     19  C   UNL     1      31.049 -16.889  28.816  0.00  0.00    +0.000 C 
ATOM     20  C   UNL     1      28.188 -16.237  29.911  0.00  0.00    +0.000 A 
ATOM     21  C   UNL     1      27.114 -15.658  32.010  0.00  0.00    +0.000 A 
ATOM     22  C   UNL     1      27.047 -15.910  30.646  0.00  0.00    +0.000 A 
ENDBRANCH   3   9
BRANCH   5  25
ATOM     23  O   UNL     1      36.527 -16.939  37.155  0.00  0.00    +0.000 OA
ATOM     24  N   UNL     1      35.032 -15.412  38.163  0.00  0.00    +0.000 N 
ATOM     25  C   UNL     1      35.397 -16.613  37.508  0.00  0.00    +0.000 C 
ATOM     26  C   UNL     1      33.669 -15.091  38.602  0.00  0.00    +0.000 C 
BRANCH  24  27
ATOM     27  C   UNL     1      35.992 -14.416  38.414  0.00  0.00    +0.000 C 
ATOM     28  C   UNL     1      36.090 -13.250  37.580  0.00  0.00    +0.000 C 
ATOM     29  C   UNL     1      36.185 -12.191  36.830  0.00  0.00    +0.000 C 
ATOM     30  C   UNL     1      35.802 -10.886  37.495  0.00  0.00    +0.000 C 
BRANCH  27  31
ATOM     31  C   UNL     1      36.911 -14.508  39.538  0.00  0.00    +0.000 C 
ATOM     32  C   UNL     1      36.544 -15.313  40.769  0.00  0.00    +0.000 C 
ATOM     33  C   UNL     1      38.403 -14.361  39.298  0.00  0.00    +0.000 C 
ENDBRANCH  27  31
BRANCH  29  35
ATOM     34  O   UNL     1      36.748 -11.400  34.622  0.00  0.00    +0.000 OA
ATOM     35  C   UNL     1      36.647 -12.320  35.421  0.00  0.00    +0.000 C 
BRANCH  35  36
ATOM     36  O   UNL     1      36.964 -13.578  35.047  0.00  0.00    +0.000 OA
ATOM     37  H   UNL     1      37.057 -14.079  35.883  0.00  0.00    +0.000 HD
ENDBRANCH  35  36
ENDBRANCH  29  35
ENDBRANCH  24  27
ENDBRANCH   5  25
BRANCH   5  38
ATOM     38  C   UNL     1      34.059 -18.678  38.102  0.00  0.00    +0.000 C 
ATOM     39  C   UNL     1      32.516 -18.815  38.309  0.00  0.00    +0.000 C 
ATOM     40  C   UNL     1      34.571 -19.965  37.393  0.00  0.00    +0.000 C 
ATOM     41  C   UNL     1      34.740 -18.490  39.479  0.00  0.00    +0.000 C 
ENDBRANCH   5  38
TORSDOF 7
ENDMDL
MODEL 5
REMARK VINA RESULT:      -7.3     34.979     36.631
REMARK  Name = 10940649_MilnamideD.pdbqt.pdb
REMARK  7 active torsions:
REMARK  status: ('A' for Active; 'I' for Inactive)
REMARK    1  A    between atoms: C_3  and  C_8
REMARK    2  A    between atoms: C_22  and  C_25
REMARK    3  A    between atoms: C_22  and  C_38
REMARK    4  A    between atoms: N_24  and  C_27
REMARK    5  A    between atoms: C_27  and  C_28
REMARK    6  A    between atoms: C_32  and  C_35
REMARK    7  A    between atoms: C_35  and  O_36
REMARK                            x       y       z     vdW  Elec       q    Type
REMARK                         _______ _______ _______ _____ _____    ______ ____
ROOT
ATOM      1  O   UNL     1      51.975   4.180  34.203  0.00  0.00    +0.000 OA
ATOM      2  N   UNL     1      50.364   3.145  32.983  0.00  0.00    +0.000 N 
ATOM      3  C   UNL     1      51.283   3.187  34.014  0.00  0.00    +0.000 C 
ATOM      4  H   UNL     1      49.878   2.260  32.796  0.00  0.00    +0.000 HD
ATOM      5  C   UNL     1      50.084   4.215  32.099  0.00  0.00    +0.000 C 
ENDROOT
BRANCH   3   9
ATOM      6  N   UNL     1      51.924   0.712  34.318  0.00  0.00    +0.000 NA
ATOM      7  N   UNL     1      51.376  -1.338  37.617  0.00  0.00    +0.000 N 
ATOM      8  C   UNL     1      50.607   2.038  36.225  0.00  0.00    +0.000 C 
ATOM      9  C   UNL     1      51.377   1.962  34.873  0.00  0.00    +0.000 C 
ATOM     10  C   UNL     1      50.763   0.764  37.114  0.00  0.00    +0.000 A 
ATOM     11  C   UNL     1      51.388  -0.380  36.663  0.00  0.00    +0.000 A 
ATOM     12  C   UNL     1      49.076   2.126  35.956  0.00  0.00    +0.000 C 
ATOM     13  C   UNL     1      51.185   3.195  37.090  0.00  0.00    +0.000 C 
ATOM     14  C   UNL     1      50.329   0.451  38.452  0.00  0.00    +0.000 A 
ATOM     15  C   UNL     1      51.876  -0.283  35.356  0.00  0.00    +0.000 C 
ATOM     16  C   UNL     1      50.731  -0.869  38.737  0.00  0.00    +0.000 A 
ATOM     17  C   UNL     1      53.319   0.874  33.936  0.00  0.00    +0.000 C 
ATOM     18  C   UNL     1      49.629   1.168  39.442  0.00  0.00    +0.000 A 
ATOM     19  C   UNL     1      51.933  -2.638  37.459  0.00  0.00    +0.000 C 
ATOM     20  C   UNL     1      50.460  -1.482  39.970  0.00  0.00    +0.000 A 
ATOM     21  C   UNL     1      49.356   0.563  40.670  0.00  0.00    +0.000 A 
ATOM     22  C   UNL     1      49.767  -0.738  40.926  0.00  0.00    +0.000 A 
ENDBRANCH   3   9
BRANCH   5  25
ATOM     23  O   UNL     1      50.066   6.298  33.138  0.00  0.00    +0.000 OA
ATOM     24  N   UNL     1      51.885   5.826  31.706  0.00  0.00    +0.000 N 
ATOM     25  C   UNL     1      50.654   5.560  32.352  0.00  0.00    +0.000 C 
ATOM     26  C   UNL     1      52.525   4.924  30.741  0.00  0.00    +0.000 C 
BRANCH  24  27
ATOM     27  C   UNL     1      52.598   7.005  31.988  0.00  0.00    +0.000 C 
ATOM     28  C   UNL     1      52.929   7.370  33.337  0.00  0.00    +0.000 C 
ATOM     29  C   UNL     1      53.232   7.708  34.557  0.00  0.00    +0.000 C 
ATOM     30  C   UNL     1      54.707   7.668  34.895  0.00  0.00    +0.000 C 
BRANCH  27  31
ATOM     31  C   UNL     1      53.053   7.893  30.928  0.00  0.00    +0.000 C 
ATOM     32  C   UNL     1      52.262   9.137  30.575  0.00  0.00    +0.000 C 
ATOM     33  C   UNL     1      54.533   7.968  30.601  0.00  0.00    +0.000 C 
ENDBRANCH  27  31
BRANCH  29  35
ATOM     34  O   UNL     1      52.233   8.049  36.726  0.00  0.00    +0.000 OA
ATOM     35  C   UNL     1      52.155   8.100  35.507  0.00  0.00    +0.000 C 
BRANCH  35  36
ATOM     36  O   UNL     1      51.021   8.537  34.920  0.00  0.00    +0.000 OA
ATOM     37  H   UNL     1      51.076   8.229  33.992  0.00  0.00    +0.000 HD
ENDBRANCH  35  36
ENDBRANCH  29  35
ENDBRANCH  24  27
ENDBRANCH   5  25
BRANCH   5  38
ATOM     38  C   UNL     1      49.011   4.167  31.022  0.00  0.00    +0.000 C 
ATOM     39  C   UNL     1      49.377   2.978  30.077  0.00  0.00    +0.000 C 
ATOM     40  C   UNL     1      47.657   3.840  31.713  0.00  0.00    +0.000 C 
ATOM     41  C   UNL     1      48.913   5.466  30.186  0.00  0.00    +0.000 C 
ENDBRANCH   5  38
TORSDOF 7
ENDMDL
MODEL 6
REMARK VINA RESULT:      -7.0     24.696     27.610
REMARK  Name = 10940649_MilnamideD.pdbqt.pdb
REMARK  7 active torsions:
REMARK  status: ('A' for Active; 'I' for Inactive)
REMARK    1  A    between atoms: C_3  and  C_8
REMARK    2  A    between atoms: C_22  and  C_25
REMARK    3  A    between atoms: C_22  and  C_38
REMARK    4  A    between atoms: N_24  and  C_27
REMARK    5  A    between atoms: C_27  and  C_28
REMARK    6  A    between atoms: C_32  and  C_35
REMARK    7  A    between atoms: C_35  and  O_36
REMARK                            x       y       z     vdW  Elec       q    Type
REMARK                         _______ _______ _______ _____ _____    ______ ____
ROOT
ATOM      1  O   UNL     1      46.694   7.399  18.055  0.00  0.00    +0.000 OA
ATOM      2  N   UNL     1      46.343   9.637  17.903  0.00  0.00    +0.000 N 
ATOM      3  C   UNL     1      45.902   8.328  17.948  0.00  0.00    +0.000 C 
ATOM      4  H   UNL     1      45.659  10.377  17.710  0.00  0.00    +0.000 HD
ATOM      5  C   UNL     1      47.694  10.046  18.027  0.00  0.00    +0.000 C 
ENDROOT
BRANCH   3   9
ATOM      6  N   UNL     1      43.745   8.171  16.553  0.00  0.00    +0.000 NA
ATOM      7  N   UNL     1      40.166   7.587  18.049  0.00  0.00    +0.000 N 
ATOM      8  C   UNL     1      43.664   8.154  19.221  0.00  0.00    +0.000 C 
ATOM      9  C   UNL     1      44.421   8.121  17.860  0.00  0.00    +0.000 C 
ATOM     10  C   UNL     1      42.130   7.891  19.098  0.00  0.00    +0.000 A 
ATOM     11  C   UNL     1      41.490   7.803  17.879  0.00  0.00    +0.000 A 
ATOM     12  C   UNL     1      43.753   9.581  19.840  0.00  0.00    +0.000 C 
ATOM     13  C   UNL     1      44.188   7.011  20.138  0.00  0.00    +0.000 C 
ATOM     14  C   UNL     1      41.088   7.724  20.080  0.00  0.00    +0.000 A 
ATOM     15  C   UNL     1      42.340   7.956  16.779  0.00  0.00    +0.000 C 
ATOM     16  C   UNL     1      39.874   7.533  19.391  0.00  0.00    +0.000 A 
ATOM     17  C   UNL     1      44.213   7.105  15.680  0.00  0.00    +0.000 C 
ATOM     18  C   UNL     1      41.068   7.724  21.489  0.00  0.00    +0.000 A 
ATOM     19  C   UNL     1      39.229   7.458  16.986  0.00  0.00    +0.000 C 
ATOM     20  C   UNL     1      38.657   7.339  20.063  0.00  0.00    +0.000 A 
ATOM     21  C   UNL     1      39.861   7.532  22.162  0.00  0.00    +0.000 A 
ATOM     22  C   UNL     1      38.679   7.341  21.459  0.00  0.00    +0.000 A 
ENDBRANCH   3   9
BRANCH   5  25
ATOM     23  O   UNL     1      49.461   8.615  17.529  0.00  0.00    +0.000 OA
ATOM     24  N   UNL     1      48.838   8.805  19.800  0.00  0.00    +0.000 N 
ATOM     25  C   UNL     1      48.737   9.065  18.412  0.00  0.00    +0.000 C 
ATOM     26  C   UNL     1      47.917   9.336  20.811  0.00  0.00    +0.000 C 
BRANCH  24  27
ATOM     27  C   UNL     1      49.884   8.011  20.302  0.00  0.00    +0.000 C 
ATOM     28  C   UNL     1      49.758   6.582  20.392  0.00  0.00    +0.000 C 
ATOM     29  C   UNL     1      49.651   5.288  20.477  0.00  0.00    +0.000 C 
ATOM     30  C   UNL     1      50.548   4.499  19.548  0.00  0.00    +0.000 C 
BRANCH  27  31
ATOM     31  C   UNL     1      51.148   8.594  20.728  0.00  0.00    +0.000 C 
ATOM     32  C   UNL     1      51.597   8.485  22.172  0.00  0.00    +0.000 C 
ATOM     33  C   UNL     1      52.275   8.751  19.723  0.00  0.00    +0.000 C 
ENDBRANCH  27  31
BRANCH  29  35
ATOM     34  O   UNL     1      47.498   4.934  21.506  0.00  0.00    +0.000 OA
ATOM     35  C   UNL     1      48.694   4.686  21.445  0.00  0.00    +0.000 C 
BRANCH  35  36
ATOM     36  O   UNL     1      49.246   3.803  22.304  0.00  0.00    +0.000 OA
ATOM     37  H   UNL     1      49.660   4.348  23.004  0.00  0.00    +0.000 HD
ENDBRANCH  35  36
ENDBRANCH  29  35
ENDBRANCH  24  27
ENDBRANCH   5  25
BRANCH   5  38
ATOM     38  C   UNL     1      48.141  11.499  18.052  0.00  0.00    +0.000 C 
ATOM     39  C   UNL     1      48.024  12.029  16.587  0.00  0.00    +0.000 C 
ATOM     40  C   UNL     1      47.138  12.291  18.938  0.00  0.00    +0.000 C 
ATOM     41  C   UNL     1      49.596  11.691  18.545  0.00  0.00    +0.000 C 
ENDBRANCH   5  38
TORSDOF 7
ENDMDL
MODEL 7
REMARK VINA RESULT:      -6.8     35.558     38.148
REMARK  Name = 10940649_MilnamideD.pdbqt.pdb
REMARK  7 active torsions:
REMARK  status: ('A' for Active; 'I' for Inactive)
REMARK    1  A    between atoms: C_3  and  C_8
REMARK    2  A    between atoms: C_22  and  C_25
REMARK    3  A    between atoms: C_22  and  C_38
REMARK    4  A    between atoms: N_24  and  C_27
REMARK    5  A    between atoms: C_27  and  C_28
REMARK    6  A    between atoms: C_32  and  C_35
REMARK    7  A    between atoms: C_35  and  O_36
REMARK                            x       y       z     vdW  Elec       q    Type
REMARK                         _______ _______ _______ _____ _____    ______ ____
ROOT
ATOM      1  O   UNL     1      50.742  -1.332  35.203  0.00  0.00    +0.000 OA
ATOM      2  N   UNL     1      50.983  -0.571  37.328  0.00  0.00    +0.000 N 
ATOM      3  C   UNL     1      50.954  -0.391  35.958  0.00  0.00    +0.000 C 
ATOM      4  H   UNL     1      51.265   0.219  37.919  0.00  0.00    +0.000 HD
ATOM      5  C   UNL     1      50.724  -1.794  37.994  0.00  0.00    +0.000 C 
ENDROOT
BRANCH   3   9
ATOM      6  N   UNL     1      52.266   1.822  36.058  0.00  0.00    +0.000 NA
ATOM      7  N   UNL     1      51.491   4.968  33.847  0.00  0.00    +0.000 N 
ATOM      8  C   UNL     1      50.084   1.581  34.539  0.00  0.00    +0.000 C 
ATOM      9  C   UNL     1      51.196   1.003  35.464  0.00  0.00    +0.000 C 
ATOM     10  C   UNL     1      50.388   3.016  34.006  0.00  0.00    +0.000 A 
ATOM     11  C   UNL     1      51.462   3.759  34.451  0.00  0.00    +0.000 A 
ATOM     12  C   UNL     1      48.762   1.749  35.344  0.00  0.00    +0.000 C 
ATOM     13  C   UNL     1      49.962   0.704  33.259  0.00  0.00    +0.000 C 
ATOM     14  C   UNL     1      49.711   3.868  33.061  0.00  0.00    +0.000 A 
ATOM     15  C   UNL     1      52.250   3.103  35.402  0.00  0.00    +0.000 C 
ATOM     16  C   UNL     1      50.429   5.079  32.982  0.00  0.00    +0.000 A 
ATOM     17  C   UNL     1      53.573   1.228  35.822  0.00  0.00    +0.000 C 
ATOM     18  C   UNL     1      48.554   3.721  32.270  0.00  0.00    +0.000 A 
ATOM     19  C   UNL     1      52.471   5.969  34.097  0.00  0.00    +0.000 C 
ATOM     20  C   UNL     1      50.028   6.130  32.143  0.00  0.00    +0.000 A 
ATOM     21  C   UNL     1      48.151   4.764  31.435  0.00  0.00    +0.000 A 
ATOM     22  C   UNL     1      48.879   5.945  31.373  0.00  0.00    +0.000 A 
ENDBRANCH   3   9
BRANCH   5  25
ATOM     23  O   UNL     1      48.999  -3.022  37.027  0.00  0.00    +0.000 OA
ATOM     24  N   UNL     1      51.194  -3.855  36.760  0.00  0.00    +0.000 N 
ATOM     25  C   UNL     1      50.207  -2.959  37.237  0.00  0.00    +0.000 C 
ATOM     26  C   UNL     1      52.623  -3.758  37.077  0.00  0.00    +0.000 C 
BRANCH  24  27
ATOM     27  C   UNL     1      50.841  -4.913  35.904  0.00  0.00    +0.000 C 
ATOM     28  C   UNL     1      50.504  -4.676  34.527  0.00  0.00    +0.000 C 
ATOM     29  C   UNL     1      50.197  -4.469  33.280  0.00  0.00    +0.000 C 
ATOM     30  C   UNL     1      51.181  -5.016  32.268  0.00  0.00    +0.000 C 
BRANCH  27  31
ATOM     31  C   UNL     1      50.826  -6.295  36.362  0.00  0.00    +0.000 C 
ATOM     32  C   UNL     1      51.920  -7.257  35.943  0.00  0.00    +0.000 C 
ATOM     33  C   UNL     1      50.148  -6.638  37.676  0.00  0.00    +0.000 C 
ENDBRANCH  27  31
BRANCH  29  35
ATOM     34  O   UNL     1      48.450  -3.670  31.821  0.00  0.00    +0.000 OA
ATOM     35  C   UNL     1      48.947  -3.738  32.936  0.00  0.00    +0.000 C 
BRANCH  35  36
ATOM     36  O   UNL     1      48.356  -3.115  33.978  0.00  0.00    +0.000 OA
ATOM     37  H   UNL     1      47.557  -3.645  34.175  0.00  0.00    +0.000 HD
ENDBRANCH  35  36
ENDBRANCH  29  35
ENDBRANCH  24  27
ENDBRANCH   5  25
BRANCH   5  38
ATOM     38  C   UNL     1      50.686  -1.944  39.507  0.00  0.00    +0.000 C 
ATOM     39  C   UNL     1      50.139  -3.377  39.802  0.00  0.00    +0.000 C 
ATOM     40  C   UNL     1      52.149  -1.864  40.030  0.00  0.00    +0.000 C 
ATOM     41  C   UNL     1      49.782  -0.902  40.210  0.00  0.00    +0.000 C 
ENDBRANCH   5  38
TORSDOF 7
ENDMDL
MODEL 8
REMARK VINA RESULT:      -6.6     35.207     37.205
REMARK  Name = 10940649_MilnamideD.pdbqt.pdb
REMARK  7 active torsions:
REMARK  status: ('A' for Active; 'I' for Inactive)
REMARK    1  A    between atoms: C_3  and  C_8
REMARK    2  A    between atoms: C_22  and  C_25
REMARK    3  A    between atoms: C_22  and  C_38
REMARK    4  A    between atoms: N_24  and  C_27
REMARK    5  A    between atoms: C_27  and  C_28
REMARK    6  A    between atoms: C_32  and  C_35
REMARK    7  A    between atoms: C_35  and  O_36
REMARK                            x       y       z     vdW  Elec       q    Type
REMARK                         _______ _______ _______ _____ _____    ______ ____
ROOT
ATOM      1  O   UNL     1      50.752  -0.479  33.457  0.00  0.00    +0.000 OA
ATOM      2  N   UNL     1      51.328   1.366  34.648  0.00  0.00    +0.000 N 
ATOM      3  C   UNL     1      50.930   0.046  34.549  0.00  0.00    +0.000 C 
ATOM      4  H   UNL     1      51.366   1.796  35.579  0.00  0.00    +0.000 HD
ATOM      5  C   UNL     1      51.621   2.212  33.551  0.00  0.00    +0.000 C 
ENDROOT
BRANCH   3   9
ATOM      6  N   UNL     1      50.723  -2.162  35.856  0.00  0.00    +0.000 NA
ATOM      7  N   UNL     1      50.032  -2.408  39.709  0.00  0.00    +0.000 N 
ATOM      8  C   UNL     1      50.260   0.187  37.037  0.00  0.00    +0.000 C 
ATOM      9  C   UNL     1      50.733  -0.689  35.840  0.00  0.00    +0.000 C 
ATOM     10  C   UNL     1      50.107  -0.601  38.376  0.00  0.00    +0.000 A 
ATOM     11  C   UNL     1      50.222  -1.975  38.444  0.00  0.00    +0.000 A 
ATOM     12  C   UNL     1      48.829   0.736  36.757  0.00  0.00    +0.000 C 
ATOM     13  C   UNL     1      51.329   1.277  37.341  0.00  0.00    +0.000 C 
ATOM     14  C   UNL     1      49.809  -0.185  39.724  0.00  0.00    +0.000 A 
ATOM     15  C   UNL     1      50.500  -2.581  37.215  0.00  0.00    +0.000 C 
ATOM     16  C   UNL     1      49.773  -1.338  40.533  0.00  0.00    +0.000 A 
ATOM     17  C   UNL     1      52.009  -2.700  35.441  0.00  0.00    +0.000 C 
ATOM     18  C   UNL     1      49.564   1.066  40.325  0.00  0.00    +0.000 A 
ATOM     19  C   UNL     1      50.077  -3.774  40.107  0.00  0.00    +0.000 C 
ATOM     20  C   UNL     1      49.506  -1.276  41.909  0.00  0.00    +0.000 A 
ATOM     21  C   UNL     1      49.297   1.133  41.693  0.00  0.00    +0.000 A 
ATOM     22  C   UNL     1      49.272  -0.019  42.469  0.00  0.00    +0.000 A 
ENDBRANCH   3   9
BRANCH   5  25
ATOM     23  O   UNL     1      52.754   1.145  31.821  0.00  0.00    +0.000 OA
ATOM     24  N   UNL     1      50.489   1.701  31.441  0.00  0.00    +0.000 N 
ATOM     25  C   UNL     1      51.697   1.654  32.179  0.00  0.00    +0.000 C 
ATOM     26  C   UNL     1      49.263   2.362  31.901  0.00  0.00    +0.000 C 
BRANCH  24  27
ATOM     27  C   UNL     1      50.395   1.069  30.189  0.00  0.00    +0.000 C 
ATOM     28  C   UNL     1      49.532  -0.062  29.989  0.00  0.00    +0.000 C 
ATOM     29  C   UNL     1      48.753  -1.087  29.800  0.00  0.00    +0.000 C 
ATOM     30  C   UNL     1      47.568  -0.844  28.890  0.00  0.00    +0.000 C 
BRANCH  27  31
ATOM     31  C   UNL     1      51.145   1.544  29.035  0.00  0.00    +0.000 C 
ATOM     32  C   UNL     1      51.768   0.560  28.065  0.00  0.00    +0.000 C 
ATOM     33  C   UNL     1      50.820   2.902  28.441  0.00  0.00    +0.000 C 
ENDBRANCH  27  31
BRANCH  29  35
ATOM     34  O   UNL     1      48.756  -2.685  31.607  0.00  0.00    +0.000 OA
ATOM     35  C   UNL     1      49.061  -2.384  30.462  0.00  0.00    +0.000 C 
BRANCH  35  36
ATOM     36  O   UNL     1      49.737  -3.261  29.690  0.00  0.00    +0.000 OA
ATOM     37  H   UNL     1      50.198  -3.855  30.317  0.00  0.00    +0.000 HD
ENDBRANCH  35  36
ENDBRANCH  29  35
ENDBRANCH  24  27
ENDBRANCH   5  25
BRANCH   5  38
ATOM     38  C   UNL     1      52.132   3.637  33.692  0.00  0.00    +0.000 C 
ATOM     39  C   UNL     1      51.141   4.377  34.647  0.00  0.00    +0.000 C 
ATOM     40  C   UNL     1      53.523   3.577  34.385  0.00  0.00    +0.000 C 
ATOM     41  C   UNL     1      52.208   4.404  32.350  0.00  0.00    +0.000 C 
ENDBRANCH   5  38
TORSDOF 7
ENDMDL
MODEL 9
REMARK VINA RESULT:      -6.5     35.801     38.060
REMARK  Name = 10940649_MilnamideD.pdbqt.pdb
REMARK  7 active torsions:
REMARK  status: ('A' for Active; 'I' for Inactive)
REMARK    1  A    between atoms: C_3  and  C_8
REMARK    2  A    between atoms: C_22  and  C_25
REMARK    3  A    between atoms: C_22  and  C_38
REMARK    4  A    between atoms: N_24  and  C_27
REMARK    5  A    between atoms: C_27  and  C_28
REMARK    6  A    between atoms: C_32  and  C_35
REMARK    7  A    between atoms: C_35  and  O_36
REMARK                            x       y       z     vdW  Elec       q    Type
REMARK                         _______ _______ _______ _____ _____    ______ ____
ROOT
ATOM      1  O   UNL     1      50.309  -2.985  33.911  0.00  0.00    +0.000 OA
ATOM      2  N   UNL     1      50.694  -0.817  33.357  0.00  0.00    +0.000 N 
ATOM      3  C   UNL     1      50.655  -2.167  33.066  0.00  0.00    +0.000 C 
ATOM      4  H   UNL     1      51.087  -0.177  32.657  0.00  0.00    +0.000 HD
ATOM      5  C   UNL     1      50.300  -0.237  34.588  0.00  0.00    +0.000 C 
ENDROOT
BRANCH   3   9
ATOM      6  N   UNL     1      50.430  -1.912  30.515  0.00  0.00    +0.000 NA
ATOM      7  N   UNL     1      52.404  -4.049  27.884  0.00  0.00    +0.000 N 
ATOM      8  C   UNL     1      51.919  -3.856  31.579  0.00  0.00    +0.000 C 
ATOM      9  C   UNL     1      51.058  -2.562  31.678  0.00  0.00    +0.000 C 
ATOM     10  C   UNL     1      52.358  -4.214  30.124  0.00  0.00    +0.000 A 
ATOM     11  C   UNL     1      51.884  -3.535  29.020  0.00  0.00    +0.000 A 
ATOM     12  C   UNL     1      51.077  -5.086  32.033  0.00  0.00    +0.000 C 
ATOM     13  C   UNL     1      53.253  -3.656  32.355  0.00  0.00    +0.000 C 
ATOM     14  C   UNL     1      53.229  -5.231  29.592  0.00  0.00    +0.000 A 
ATOM     15  C   UNL     1      50.997  -2.500  29.329  0.00  0.00    +0.000 C 
ATOM     16  C   UNL     1      53.239  -5.099  28.189  0.00  0.00    +0.000 A 
ATOM     17  C   UNL     1      50.732  -0.490  30.482  0.00  0.00    +0.000 C 
ATOM     18  C   UNL     1      54.004  -6.254  30.175  0.00  0.00    +0.000 A 
ATOM     19  C   UNL     1      52.106  -3.575  26.576  0.00  0.00    +0.000 C 
ATOM     20  C   UNL     1      53.996  -5.945  27.365  0.00  0.00    +0.000 A 
ATOM     21  C   UNL     1      54.758  -7.099  29.360  0.00  0.00    +0.000 A 
ATOM     22  C   UNL     1      54.753  -6.943  27.980  0.00  0.00    +0.000 A 
ENDBRANCH   3   9
BRANCH   5  25
ATOM     23  O   UNL     1      48.406  -1.200  35.538  0.00  0.00    +0.000 OA
ATOM     24  N   UNL     1      50.483  -1.681  36.556  0.00  0.00    +0.000 N 
ATOM     25  C   UNL     1      49.623  -1.063  35.617  0.00  0.00    +0.000 C 
ATOM     26  C   UNL     1      51.930  -1.449  36.633  0.00  0.00    +0.000 C 
BRANCH  24  27
ATOM     27  C   UNL     1      49.976  -2.607  37.485  0.00  0.00    +0.000 C 
ATOM     28  C   UNL     1      49.607  -3.937  37.086  0.00  0.00    +0.000 C 
ATOM     29  C   UNL     1      49.269  -5.143  36.732  0.00  0.00    +0.000 C 
ATOM     30  C   UNL     1      50.140  -6.250  37.286  0.00  0.00    +0.000 C 
BRANCH  27  31
ATOM     31  C   UNL     1      49.825  -2.271  38.894  0.00  0.00    +0.000 C 
ATOM     32  C   UNL     1      50.233  -3.259  39.968  0.00  0.00    +0.000 C 
ATOM     33  C   UNL     1      49.862  -0.815  39.322  0.00  0.00    +0.000 C 
ENDBRANCH  27  31
BRANCH  29  35
ATOM     34  O   UNL     1      48.143  -5.474  34.625  0.00  0.00    +0.000 OA
ATOM     35  C   UNL     1      48.096  -5.353  35.840  0.00  0.00    +0.000 C 
BRANCH  35  36
ATOM     36  O   UNL     1      46.908  -5.403  36.479  0.00  0.00    +0.000 OA
ATOM     37  H   UNL     1      47.128  -5.568  37.419  0.00  0.00    +0.000 HD
ENDBRANCH  35  36
ENDBRANCH  29  35
ENDBRANCH  24  27
ENDBRANCH   5  25
BRANCH   5  38
ATOM     38  C   UNL     1      50.279   1.260  34.852  0.00  0.00    +0.000 C 
ATOM     39  C   UNL     1      51.757   1.756  34.741  0.00  0.00    +0.000 C 
ATOM     40  C   UNL     1      49.453   1.932  33.719  0.00  0.00    +0.000 C 
ATOM     41  C   UNL     1      49.723   1.635  36.247  0.00  0.00    +0.000 C 
ENDBRANCH   5  38
TORSDOF 7
ENDMDL
