MODEL 1
REMARK VINA RESULT:      -9.1      0.000      0.000
REMARK  Name = 11167602_Regorafenib.pdbqt.pdb
REMARK  6 active torsions:
REMARK  status: ('A' for Active; 'I' for Inactive)
REMARK    1  A    between atoms: C_2  and  N_10
REMARK    2  A    between atoms: C_3  and  O_25
REMARK    3  A    between atoms: N_9  and  C_15
REMARK    4  A    between atoms: C_16  and  C_24
REMARK    5  A    between atoms: O_25  and  C_27
REMARK    6  A    between atoms: C_29  and  C_34
REMARK                            x       y       z     vdW  Elec       q    Type
REMARK                         _______ _______ _______ _____ _____    ______ ____
ROOT
ATOM      1  F   UNL     1      38.326   7.397  19.104  0.00  0.00    +0.000 F 
ATOM      2  C   UNL     1      39.313   5.852  17.607  0.00  0.00    +0.000 A 
ATOM      3  C   UNL     1      41.468   7.608  17.313  0.00  0.00    +0.000 A 
ATOM      4  C   UNL     1      39.343   7.071  18.291  0.00  0.00    +0.000 A 
ATOM      5  C   UNL     1      40.370   5.534  16.755  0.00  0.00    +0.000 A 
ATOM      6  C   UNL     1      40.403   7.959  18.142  0.00  0.00    +0.000 A 
ATOM      7  C   UNL     1      41.440   6.414  16.596  0.00  0.00    +0.000 A 
ENDROOT
BRANCH   2  10
ATOM      8  O   UNL     1      38.029   4.074  15.702  0.00  0.00    +0.000 OA
ATOM      9  N   UNL     1      36.598   3.433  17.402  0.00  0.00    +0.000 N 
ATOM     10  N   UNL     1      38.211   4.996  17.812  0.00  0.00    +0.000 N 
ATOM     11  C   UNL     1      37.649   4.159  16.862  0.00  0.00    +0.000 C 
ATOM     12  H   UNL     1      36.390   3.562  18.381  0.00  0.00    +0.000 HD
ATOM     13  H   UNL     1      37.803   5.022  18.736  0.00  0.00    +0.000 HD
BRANCH   9  15
ATOM     14 CL   UNL     1      33.333  -0.594  14.541  0.00  0.00    +0.000 Cl
ATOM     15  C   UNL     1      35.807   2.501  16.705  0.00  0.00    +0.000 A 
ATOM     16  C   UNL     1      35.261   0.153  16.334  0.00  0.00    +0.000 A 
ATOM     17  C   UNL     1      36.004   1.148  16.980  0.00  0.00    +0.000 A 
ATOM     18  C   UNL     1      34.848   2.868  15.767  0.00  0.00    +0.000 A 
ATOM     19  C   UNL     1      34.304   0.542  15.395  0.00  0.00    +0.000 A 
ATOM     20  C   UNL     1      34.100   1.893  15.113  0.00  0.00    +0.000 A 
BRANCH  16  24
ATOM     21  F   UNL     1      36.506  -1.432  17.610  0.00  0.00    +0.000 F 
ATOM     22  F   UNL     1      34.433  -1.909  17.196  0.00  0.00    +0.000 F 
ATOM     23  F   UNL     1      35.924  -2.019  15.607  0.00  0.00    +0.000 F 
ATOM     24  C   UNL     1      35.522  -1.280  16.677  0.00  0.00    +0.000 C 
ENDBRANCH  16  24
ENDBRANCH   9  15
ENDBRANCH   2  10
BRANCH   3  25
ATOM     25  O   UNL     1      42.511   8.468  17.061  0.00  0.00    +0.000 OA
BRANCH  25  27
ATOM     26  N   UNL     1      44.947   9.864  20.148  0.00  0.00    +0.000 NA
ATOM     27  C   UNL     1      43.279   8.877  18.128  0.00  0.00    +0.000 A 
ATOM     28  C   UNL     1      43.820   8.000  19.063  0.00  0.00    +0.000 A 
ATOM     29  C   UNL     1      44.630   8.542  20.047  0.00  0.00    +0.000 A 
ATOM     30  C   UNL     1      43.592  10.232  18.176  0.00  0.00    +0.000 A 
ATOM     31  C   UNL     1      44.417  10.670  19.200  0.00  0.00    +0.000 A 
BRANCH  29  34
ATOM     32  O   UNL     1      44.524   6.756  21.583  0.00  0.00    +0.000 OA
ATOM     33  N   UNL     1      46.518   7.962  21.388  0.00  0.00    +0.000 N 
ATOM     34  C   UNL     1      45.203   7.649  21.087  0.00  0.00    +0.000 C 
ATOM     35  C   UNL     1      47.447   7.379  22.317  0.00  0.00    +0.000 C 
ATOM     36  H   UNL     1      46.894   8.748  20.860  0.00  0.00    +0.000 HD
ENDBRANCH  29  34
ENDBRANCH  25  27
ENDBRANCH   3  25
TORSDOF 6
ENDMDL
MODEL 2
REMARK VINA RESULT:      -8.2      2.605      3.225
REMARK  Name = 11167602_Regorafenib.pdbqt.pdb
REMARK  6 active torsions:
REMARK  status: ('A' for Active; 'I' for Inactive)
REMARK    1  A    between atoms: C_2  and  N_10
REMARK    2  A    between atoms: C_3  and  O_25
REMARK    3  A    between atoms: N_9  and  C_15
REMARK    4  A    between atoms: C_16  and  C_24
REMARK    5  A    between atoms: O_25  and  C_27
REMARK    6  A    between atoms: C_29  and  C_34
REMARK                            x       y       z     vdW  Elec       q    Type
REMARK                         _______ _______ _______ _____ _____    ______ ____
ROOT
ATOM      1  F   UNL     1      38.839   6.739  18.974  0.00  0.00    +0.000 F 
ATOM      2  C   UNL     1      40.569   7.090  17.398  0.00  0.00    +0.000 A 
ATOM      3  C   UNL     1      42.168   8.079  19.467  0.00  0.00    +0.000 A 
ATOM      4  C   UNL     1      40.085   7.159  18.708  0.00  0.00    +0.000 A 
ATOM      5  C   UNL     1      41.861   7.543  17.135  0.00  0.00    +0.000 A 
ATOM      6  C   UNL     1      40.866   7.662  19.743  0.00  0.00    +0.000 A 
ATOM      7  C   UNL     1      42.656   8.050  18.162  0.00  0.00    +0.000 A 
ENDROOT
BRANCH   2  10
ATOM      8  O   UNL     1      40.492   4.381  16.351  0.00  0.00    +0.000 OA
ATOM      9  N   UNL     1      38.754   5.055  14.984  0.00  0.00    +0.000 N 
ATOM     10  N   UNL     1      39.725   6.559  16.400  0.00  0.00    +0.000 N 
ATOM     11  C   UNL     1      39.728   5.249  15.950  0.00  0.00    +0.000 C 
ATOM     12  H   UNL     1      38.159   5.837  14.750  0.00  0.00    +0.000 HD
ATOM     13  H   UNL     1      39.079   7.214  15.980  0.00  0.00    +0.000 HD
BRANCH   9  15
ATOM     14 CL   UNL     1      37.572  -0.068  12.261  0.00  0.00    +0.000 Cl
ATOM     15  C   UNL     1      38.497   3.844  14.314  0.00  0.00    +0.000 A 
ATOM     16  C   UNL     1      37.178   1.794  14.227  0.00  0.00    +0.000 A 
ATOM     17  C   UNL     1      37.500   3.016  14.829  0.00  0.00    +0.000 A 
ATOM     18  C   UNL     1      39.187   3.444  13.174  0.00  0.00    +0.000 A 
ATOM     19  C   UNL     1      37.883   1.411  13.084  0.00  0.00    +0.000 A 
ATOM     20  C   UNL     1      38.882   2.232  12.562  0.00  0.00    +0.000 A 
BRANCH  16  24
ATOM     21  F   UNL     1      35.051   0.744  13.979  0.00  0.00    +0.000 F 
ATOM     22  F   UNL     1      36.525  -0.286  15.189  0.00  0.00    +0.000 F 
ATOM     23  F   UNL     1      35.548   1.513  15.943  0.00  0.00    +0.000 F 
ATOM     24  C   UNL     1      36.096   0.955  14.830  0.00  0.00    +0.000 C 
ENDBRANCH  16  24
ENDBRANCH   9  15
ENDBRANCH   2  10
BRANCH   3  25
ATOM     25  O   UNL     1      42.968   8.656  20.425  0.00  0.00    +0.000 OA
BRANCH  25  27
ATOM     26  N   UNL     1      46.975   7.501  20.552  0.00  0.00    +0.000 NA
ATOM     27  C   UNL     1      44.271   8.220  20.521  0.00  0.00    +0.000 A 
ATOM     28  C   UNL     1      44.624   6.879  20.619  0.00  0.00    +0.000 A 
ATOM     29  C   UNL     1      45.976   6.578  20.641  0.00  0.00    +0.000 A 
ATOM     30  C   UNL     1      45.255   9.197  20.405  0.00  0.00    +0.000 A 
ATOM     31  C   UNL     1      46.579   8.789  20.433  0.00  0.00    +0.000 A 
BRANCH  29  34
ATOM     32  O   UNL     1      45.578   4.255  20.712  0.00  0.00    +0.000 OA
ATOM     33  N   UNL     1      47.766   5.035  20.979  0.00  0.00    +0.000 N 
ATOM     34  C   UNL     1      46.402   5.162  20.777  0.00  0.00    +0.000 C 
ATOM     35  C   UNL     1      48.599   3.878  21.165  0.00  0.00    +0.000 C 
ATOM     36  H   UNL     1      48.270   5.921  21.005  0.00  0.00    +0.000 HD
ENDBRANCH  29  34
ENDBRANCH  25  27
ENDBRANCH   3  25
TORSDOF 6
ENDMDL
MODEL 3
REMARK VINA RESULT:      -8.1      5.026      5.517
REMARK  Name = 11167602_Regorafenib.pdbqt.pdb
REMARK  6 active torsions:
REMARK  status: ('A' for Active; 'I' for Inactive)
REMARK    1  A    between atoms: C_2  and  N_10
REMARK    2  A    between atoms: C_3  and  O_25
REMARK    3  A    between atoms: N_9  and  C_15
REMARK    4  A    between atoms: C_16  and  C_24
REMARK    5  A    between atoms: O_25  and  C_27
REMARK    6  A    between atoms: C_29  and  C_34
REMARK                            x       y       z     vdW  Elec       q    Type
REMARK                         _______ _______ _______ _____ _____    ______ ____
ROOT
ATOM      1  F   UNL     1      38.271   4.048  15.351  0.00  0.00    +0.000 F 
ATOM      2  C   UNL     1      40.623   4.130  15.100  0.00  0.00    +0.000 A 
ATOM      3  C   UNL     1      40.644   6.464  16.639  0.00  0.00    +0.000 A 
ATOM      4  C   UNL     1      39.435   4.667  15.605  0.00  0.00    +0.000 A 
ATOM      5  C   UNL     1      41.822   4.793  15.360  0.00  0.00    +0.000 A 
ATOM      6  C   UNL     1      39.431   5.835  16.360  0.00  0.00    +0.000 A 
ATOM      7  C   UNL     1      41.834   5.964  16.116  0.00  0.00    +0.000 A 
ENDROOT
BRANCH   2  10
ATOM      8  O   UNL     1      40.180   3.816  12.247  0.00  0.00    +0.000 OA
ATOM      9  N   UNL     1      40.366   1.533  12.560  0.00  0.00    +0.000 N 
ATOM     10  N   UNL     1      40.553   2.938  14.350  0.00  0.00    +0.000 N 
ATOM     11  C   UNL     1      40.351   2.853  12.982  0.00  0.00    +0.000 C 
ATOM     12  H   UNL     1      40.545   0.819  13.251  0.00  0.00    +0.000 HD
ATOM     13  H   UNL     1      40.649   2.082  14.879  0.00  0.00    +0.000 HD
BRANCH   9  15
ATOM     14 CL   UNL     1      39.448  -0.329   7.015  0.00  0.00    +0.000 Cl
ATOM     15  C   UNL     1      40.180   1.097  11.235  0.00  0.00    +0.000 A 
ATOM     16  C   UNL     1      38.640   0.183   9.579  0.00  0.00    +0.000 A 
ATOM     17  C   UNL     1      38.914   0.635  10.875  0.00  0.00    +0.000 A 
ATOM     18  C   UNL     1      41.192   1.109  10.281  0.00  0.00    +0.000 A 
ATOM     19  C   UNL     1      39.670   0.202   8.637  0.00  0.00    +0.000 A 
ATOM     20  C   UNL     1      40.939   0.663   8.988  0.00  0.00    +0.000 A 
BRANCH  16  24
ATOM     21  F   UNL     1      36.657   0.432   8.277  0.00  0.00    +0.000 F 
ATOM     22  F   UNL     1      37.236  -1.586   8.818  0.00  0.00    +0.000 F 
ATOM     23  F   UNL     1      36.415  -0.238  10.324  0.00  0.00    +0.000 F 
ATOM     24  C   UNL     1      37.260  -0.299   9.259  0.00  0.00    +0.000 C 
ENDBRANCH  16  24
ENDBRANCH   9  15
ENDBRANCH   2  10
BRANCH   3  25
ATOM     25  O   UNL     1      40.707   7.660  17.314  0.00  0.00    +0.000 OA
BRANCH  25  27
ATOM     26  N   UNL     1      41.919   7.722  21.306  0.00  0.00    +0.000 NA
ATOM     27  C   UNL     1      41.174   7.643  18.609  0.00  0.00    +0.000 A 
ATOM     28  C   UNL     1      42.498   7.899  18.949  0.00  0.00    +0.000 A 
ATOM     29  C   UNL     1      42.815   7.916  20.297  0.00  0.00    +0.000 A 
ATOM     30  C   UNL     1      40.218   7.462  19.604  0.00  0.00    +0.000 A 
ATOM     31  C   UNL     1      40.640   7.504  20.923  0.00  0.00    +0.000 A 
BRANCH  29  34
ATOM     32  O   UNL     1      44.823   9.151  20.328  0.00  0.00    +0.000 OA
ATOM     33  N   UNL     1      44.714   7.143  21.521  0.00  0.00    +0.000 N 
ATOM     34  C   UNL     1      44.223   8.151  20.709  0.00  0.00    +0.000 C 
ATOM     35  C   UNL     1      45.999   6.956  22.137  0.00  0.00    +0.000 C 
ATOM     36  H   UNL     1      44.047   6.397  21.713  0.00  0.00    +0.000 HD
ENDBRANCH  29  34
ENDBRANCH  25  27
ENDBRANCH   3  25
TORSDOF 6
ENDMDL
MODEL 4
REMARK VINA RESULT:      -7.9     27.951     29.458
REMARK  Name = 11167602_Regorafenib.pdbqt.pdb
REMARK  6 active torsions:
REMARK  status: ('A' for Active; 'I' for Inactive)
REMARK    1  A    between atoms: C_2  and  N_10
REMARK    2  A    between atoms: C_3  and  O_25
REMARK    3  A    between atoms: N_9  and  C_15
REMARK    4  A    between atoms: C_16  and  C_24
REMARK    5  A    between atoms: O_25  and  C_27
REMARK    6  A    between atoms: C_29  and  C_34
REMARK                            x       y       z     vdW  Elec       q    Type
REMARK                         _______ _______ _______ _____ _____    ______ ____
ROOT
ATOM      1  F   UNL     1      35.717  -6.651  43.869  0.00  0.00    +0.000 F 
ATOM      2  C   UNL     1      36.097  -4.486  44.747  0.00  0.00    +0.000 A 
ATOM      3  C   UNL     1      36.062  -5.588  47.315  0.00  0.00    +0.000 A 
ATOM      4  C   UNL     1      35.892  -5.856  44.936  0.00  0.00    +0.000 A 
ATOM      5  C   UNL     1      36.264  -3.671  45.866  0.00  0.00    +0.000 A 
ATOM      6  C   UNL     1      35.859  -6.414  46.210  0.00  0.00    +0.000 A 
ATOM      7  C   UNL     1      36.233  -4.216  47.149  0.00  0.00    +0.000 A 
ENDROOT
BRANCH   2  10
ATOM      8  O   UNL     1      34.231  -2.674  43.455  0.00  0.00    +0.000 OA
ATOM      9  N   UNL     1      35.552  -2.806  41.562  0.00  0.00    +0.000 N 
ATOM     10  N   UNL     1      36.128  -3.990  43.426  0.00  0.00    +0.000 N 
ATOM     11  C   UNL     1      35.211  -3.114  42.870  0.00  0.00    +0.000 C 
ATOM     12  H   UNL     1      36.401  -3.205  41.189  0.00  0.00    +0.000 HD
ATOM     13  H   UNL     1      36.887  -4.327  42.851  0.00  0.00    +0.000 HD
BRANCH   9  15
ATOM     14 CL   UNL     1      32.384   0.700  37.993  0.00  0.00    +0.000 Cl
ATOM     15  C   UNL     1      34.827  -1.954  40.708  0.00  0.00    +0.000 A 
ATOM     16  C   UNL     1      32.683  -1.451  39.658  0.00  0.00    +0.000 A 
ATOM     17  C   UNL     1      33.480  -2.245  40.492  0.00  0.00    +0.000 A 
ATOM     18  C   UNL     1      35.389  -0.847  40.081  0.00  0.00    +0.000 A 
ATOM     19  C   UNL     1      33.267  -0.346  39.037  0.00  0.00    +0.000 A 
ATOM     20  C   UNL     1      34.613  -0.046  39.248  0.00  0.00    +0.000 A 
BRANCH  16  24
ATOM     21  F   UNL     1      30.860  -2.870  40.250  0.00  0.00    +0.000 F 
ATOM     22  F   UNL     1      30.392  -0.806  39.782  0.00  0.00    +0.000 F 
ATOM     23  F   UNL     1      30.954  -2.193  38.194  0.00  0.00    +0.000 F 
ATOM     24  C   UNL     1      31.245  -1.819  39.470  0.00  0.00    +0.000 C 
ENDBRANCH  16  24
ENDBRANCH   9  15
ENDBRANCH   2  10
BRANCH   3  25
ATOM     25  O   UNL     1      35.967  -6.058  48.604  0.00  0.00    +0.000 OA
BRANCH  25  27
ATOM     26  N   UNL     1      37.801  -3.788  51.586  0.00  0.00    +0.000 NA
ATOM     27  C   UNL     1      36.629  -5.364  49.592  0.00  0.00    +0.000 A 
ATOM     28  C   UNL     1      38.012  -5.220  49.630  0.00  0.00    +0.000 A 
ATOM     29  C   UNL     1      38.541  -4.438  50.643  0.00  0.00    +0.000 A 
ATOM     30  C   UNL     1      35.830  -4.702  50.518  0.00  0.00    +0.000 A 
ATOM     31  C   UNL     1      36.460  -3.940  51.489  0.00  0.00    +0.000 A 
BRANCH  29  34
ATOM     32  O   UNL     1      40.695  -4.133  49.735  0.00  0.00    +0.000 OA
ATOM     33  N   UNL     1      40.464  -4.329  52.054  0.00  0.00    +0.000 N 
ATOM     34  C   UNL     1      40.015  -4.281  50.745  0.00  0.00    +0.000 C 
ATOM     35  C   UNL     1      41.785  -4.228  52.612  0.00  0.00    +0.000 C 
ATOM     36  H   UNL     1      39.728  -4.464  52.746  0.00  0.00    +0.000 HD
ENDBRANCH  29  34
ENDBRANCH  25  27
ENDBRANCH   3  25
TORSDOF 6
ENDMDL
MODEL 5
REMARK VINA RESULT:      -7.5      7.769      9.949
REMARK  Name = 11167602_Regorafenib.pdbqt.pdb
REMARK  6 active torsions:
REMARK  status: ('A' for Active; 'I' for Inactive)
REMARK    1  A    between atoms: C_2  and  N_10
REMARK    2  A    between atoms: C_3  and  O_25
REMARK    3  A    between atoms: N_9  and  C_15
REMARK    4  A    between atoms: C_16  and  C_24
REMARK    5  A    between atoms: O_25  and  C_27
REMARK    6  A    between atoms: C_29  and  C_34
REMARK                            x       y       z     vdW  Elec       q    Type
REMARK                         _______ _______ _______ _____ _____    ______ ____
ROOT
ATOM      1  F   UNL     1      40.181   5.106  11.732  0.00  0.00    +0.000 F 
ATOM      2  C   UNL     1      39.002   3.238  10.885  0.00  0.00    +0.000 A 
ATOM      3  C   UNL     1      40.321   3.589   8.446  0.00  0.00    +0.000 A 
ATOM      4  C   UNL     1      39.923   4.274  10.711  0.00  0.00    +0.000 A 
ATOM      5  C   UNL     1      38.734   2.391   9.810  0.00  0.00    +0.000 A 
ATOM      6  C   UNL     1      40.576   4.468   9.498  0.00  0.00    +0.000 A 
ATOM      7  C   UNL     1      39.381   2.571   8.588  0.00  0.00    +0.000 A 
ENDROOT
BRANCH   2  10
ATOM      8  O   UNL     1      36.986   1.312  11.699  0.00  0.00    +0.000 OA
ATOM      9  N   UNL     1      37.056   2.263  13.805  0.00  0.00    +0.000 N 
ATOM     10  N   UNL     1      38.384   3.095  12.145  0.00  0.00    +0.000 N 
ATOM     11  C   UNL     1      37.433   2.144  12.477  0.00  0.00    +0.000 C 
ATOM     12  H   UNL     1      37.513   2.969  14.364  0.00  0.00    +0.000 HD
ATOM     13  H   UNL     1      38.665   3.764  12.848  0.00  0.00    +0.000 HD
BRANCH   9  15
ATOM     14 CL   UNL     1      33.152  -1.203  16.598  0.00  0.00    +0.000 Cl
ATOM     15  C   UNL     1      36.103   1.460  14.459  0.00  0.00    +0.000 A 
ATOM     16  C   UNL     1      35.682  -0.536  15.796  0.00  0.00    +0.000 A 
ATOM     17  C   UNL     1      36.559   0.319  15.119  0.00  0.00    +0.000 A 
ATOM     18  C   UNL     1      34.743   1.753  14.475  0.00  0.00    +0.000 A 
ATOM     19  C   UNL     1      34.321  -0.225  15.799  0.00  0.00    +0.000 A 
ATOM     20  C   UNL     1      33.855   0.914  15.141  0.00  0.00    +0.000 A 
BRANCH  16  24
ATOM     21  F   UNL     1      35.305  -2.720  16.677  0.00  0.00    +0.000 F 
ATOM     22  F   UNL     1      37.244  -2.336  15.787  0.00  0.00    +0.000 F 
ATOM     23  F   UNL     1      36.732  -1.468  17.722  0.00  0.00    +0.000 F 
ATOM     24  C   UNL     1      36.237  -1.743  16.485  0.00  0.00    +0.000 C 
ENDBRANCH  16  24
ENDBRANCH   9  15
ENDBRANCH   2  10
BRANCH   3  25
ATOM     25  O   UNL     1      40.872   3.766   7.198  0.00  0.00    +0.000 OA
BRANCH  25  27
ATOM     26  N   UNL     1      39.064   6.267   4.391  0.00  0.00    +0.000 NA
ATOM     27  C   UNL     1      40.240   4.629   6.332  0.00  0.00    +0.000 A 
ATOM     28  C   UNL     1      40.093   5.990   6.579  0.00  0.00    +0.000 A 
ATOM     29  C   UNL     1      39.496   6.753   5.589  0.00  0.00    +0.000 A 
ATOM     30  C   UNL     1      39.835   4.090   5.115  0.00  0.00    +0.000 A 
ATOM     31  C   UNL     1      39.253   4.943   4.190  0.00  0.00    +0.000 A 
BRANCH  29  34
ATOM     32  O   UNL     1      38.482   8.834   5.141  0.00  0.00    +0.000 OA
ATOM     33  N   UNL     1      40.083   8.701   6.839  0.00  0.00    +0.000 N 
ATOM     34  C   UNL     1      39.287   8.206   5.820  0.00  0.00    +0.000 C 
ATOM     35  C   UNL     1      40.214  10.022   7.389  0.00  0.00    +0.000 C 
ATOM     36  H   UNL     1      40.689   8.006   7.274  0.00  0.00    +0.000 HD
ENDBRANCH  29  34
ENDBRANCH  25  27
ENDBRANCH   3  25
TORSDOF 6
ENDMDL
MODEL 6
REMARK VINA RESULT:      -7.3     17.881     20.862
REMARK  Name = 11167602_Regorafenib.pdbqt.pdb
REMARK  6 active torsions:
REMARK  status: ('A' for Active; 'I' for Inactive)
REMARK    1  A    between atoms: C_2  and  N_10
REMARK    2  A    between atoms: C_3  and  O_25
REMARK    3  A    between atoms: N_9  and  C_15
REMARK    4  A    between atoms: C_16  and  C_24
REMARK    5  A    between atoms: O_25  and  C_27
REMARK    6  A    between atoms: C_29  and  C_34
REMARK                            x       y       z     vdW  Elec       q    Type
REMARK                         _______ _______ _______ _____ _____    ______ ____
ROOT
ATOM      1  F   UNL     1      23.556   1.619   6.285  0.00  0.00    +0.000 F 
ATOM      2  C   UNL     1      24.202  -0.657   6.345  0.00  0.00    +0.000 A 
ATOM      3  C   UNL     1      25.212  -0.374   3.753  0.00  0.00    +0.000 A 
ATOM      4  C   UNL     1      24.121   0.566   5.673  0.00  0.00    +0.000 A 
ATOM      5  C   UNL     1      24.779  -1.744   5.690  0.00  0.00    +0.000 A 
ATOM      6  C   UNL     1      24.607   0.716   4.379  0.00  0.00    +0.000 A 
ATOM      7  C   UNL     1      25.272  -1.610   4.393  0.00  0.00    +0.000 A 
ENDROOT
BRANCH   2  10
ATOM      8  O   UNL     1      21.566  -1.506   7.218  0.00  0.00    +0.000 OA
ATOM      9  N   UNL     1      22.267  -1.141   9.391  0.00  0.00    +0.000 N 
ATOM     10  N   UNL     1      23.697  -0.734   7.660  0.00  0.00    +0.000 N 
ATOM     11  C   UNL     1      22.428  -1.160   8.015  0.00  0.00    +0.000 C 
ATOM     12  H   UNL     1      23.057  -0.865   9.955  0.00  0.00    +0.000 HD
ATOM     13  H   UNL     1      24.329  -0.434   8.389  0.00  0.00    +0.000 HD
BRANCH   9  15
ATOM     14 CL   UNL     1      17.385  -2.800  12.303  0.00  0.00    +0.000 Cl
ATOM     15  C   UNL     1      21.095  -1.503  10.081  0.00  0.00    +0.000 A 
ATOM     16  C   UNL     1      19.826  -3.283  11.164  0.00  0.00    +0.000 A 
ATOM     17  C   UNL     1      20.958  -2.835  10.474  0.00  0.00    +0.000 A 
ATOM     18  C   UNL     1      20.081  -0.601  10.385  0.00  0.00    +0.000 A 
ATOM     19  C   UNL     1      18.820  -2.361  11.459  0.00  0.00    +0.000 A 
ATOM     20  C   UNL     1      18.947  -1.028  11.071  0.00  0.00    +0.000 A 
BRANCH  16  24
ATOM     21  F   UNL     1      20.843  -5.440  11.182  0.00  0.00    +0.000 F 
ATOM     22  F   UNL     1      19.638  -4.903  12.902  0.00  0.00    +0.000 F 
ATOM     23  F   UNL     1      18.686  -5.370  10.996  0.00  0.00    +0.000 F 
ATOM     24  C   UNL     1      19.744  -4.724  11.557  0.00  0.00    +0.000 C 
ENDBRANCH  16  24
ENDBRANCH   9  15
ENDBRANCH   2  10
BRANCH   3  25
ATOM     25  O   UNL     1      25.646  -0.319   2.450  0.00  0.00    +0.000 OA
BRANCH  25  27
ATOM     26  N   UNL     1      28.849   2.132   1.382  0.00  0.00    +0.000 NA
ATOM     27  C   UNL     1      26.736   0.473   2.168  0.00  0.00    +0.000 A 
ATOM     28  C   UNL     1      28.042   0.119   2.486  0.00  0.00    +0.000 A 
ATOM     29  C   UNL     1      29.049   0.980   2.083  0.00  0.00    +0.000 A 
ATOM     30  C   UNL     1      26.482   1.628   1.433  0.00  0.00    +0.000 A 
ATOM     31  C   UNL     1      27.562   2.418   1.075  0.00  0.00    +0.000 A 
BRANCH  29  34
ATOM     32  O   UNL     1      31.220   0.208   1.581  0.00  0.00    +0.000 OA
ATOM     33  N   UNL     1      30.753   0.932   3.754  0.00  0.00    +0.000 N 
ATOM     34  C   UNL     1      30.459   0.662   2.429  0.00  0.00    +0.000 C 
ATOM     35  C   UNL     1      31.965   0.777   4.512  0.00  0.00    +0.000 C 
ATOM     36  H   UNL     1      29.971   1.304   4.291  0.00  0.00    +0.000 HD
ENDBRANCH  29  34
ENDBRANCH  25  27
ENDBRANCH   3  25
TORSDOF 6
ENDMDL
MODEL 7
REMARK VINA RESULT:      -7.3      9.607     11.672
REMARK  Name = 11167602_Regorafenib.pdbqt.pdb
REMARK  6 active torsions:
REMARK  status: ('A' for Active; 'I' for Inactive)
REMARK    1  A    between atoms: C_2  and  N_10
REMARK    2  A    between atoms: C_3  and  O_25
REMARK    3  A    between atoms: N_9  and  C_15
REMARK    4  A    between atoms: C_16  and  C_24
REMARK    5  A    between atoms: O_25  and  C_27
REMARK    6  A    between atoms: C_29  and  C_34
REMARK                            x       y       z     vdW  Elec       q    Type
REMARK                         _______ _______ _______ _____ _____    ______ ____
ROOT
ATOM      1  F   UNL     1      43.510   0.030  12.874  0.00  0.00    +0.000 F 
ATOM      2  C   UNL     1      41.920  -0.738  11.298  0.00  0.00    +0.000 A 
ATOM      3  C   UNL     1      43.777  -2.647  10.448  0.00  0.00    +0.000 A 
ATOM      4  C   UNL     1      43.186  -0.818  11.885  0.00  0.00    +0.000 A 
ATOM      5  C   UNL     1      41.605  -1.616  10.263  0.00  0.00    +0.000 A 
ATOM      6  C   UNL     1      44.124  -1.754  11.462  0.00  0.00    +0.000 A 
ATOM      7  C   UNL     1      42.533  -2.561   9.827  0.00  0.00    +0.000 A 
ENDROOT
BRANCH   2  10
ATOM      8  O   UNL     1      39.198  -1.119  12.234  0.00  0.00    +0.000 OA
ATOM      9  N   UNL     1      39.124   1.151  12.666  0.00  0.00    +0.000 N 
ATOM     10  N   UNL     1      41.017   0.230  11.784  0.00  0.00    +0.000 N 
ATOM     11  C   UNL     1      39.729  -0.017  12.230  0.00  0.00    +0.000 C 
ATOM     12  H   UNL     1      39.667   2.001  12.644  0.00  0.00    +0.000 HD
ATOM     13  H   UNL     1      41.355   1.183  11.786  0.00  0.00    +0.000 HD
BRANCH   9  15
ATOM     14 CL   UNL     1      33.644   1.480  14.885  0.00  0.00    +0.000 Cl
ATOM     15  C   UNL     1      37.814   1.253  13.170  0.00  0.00    +0.000 A 
ATOM     16  C   UNL     1      36.183   0.464  14.804  0.00  0.00    +0.000 A 
ATOM     17  C   UNL     1      37.464   0.428  14.240  0.00  0.00    +0.000 A 
ATOM     18  C   UNL     1      36.866   2.131  12.655  0.00  0.00    +0.000 A 
ATOM     19  C   UNL     1      35.247   1.351  14.271  0.00  0.00    +0.000 A 
ATOM     20  C   UNL     1      35.587   2.179  13.202  0.00  0.00    +0.000 A 
BRANCH  16  24
ATOM     21  F   UNL     1      36.918  -1.263  16.276  0.00  0.00    +0.000 F 
ATOM     22  F   UNL     1      35.570   0.224  17.095  0.00  0.00    +0.000 F 
ATOM     23  F   UNL     1      34.829  -1.282  15.701  0.00  0.00    +0.000 F 
ATOM     24  C   UNL     1      35.874  -0.447  15.950  0.00  0.00    +0.000 C 
ENDBRANCH  16  24
ENDBRANCH   9  15
ENDBRANCH   2  10
BRANCH   3  25
ATOM     25  O   UNL     1      44.677  -3.548   9.929  0.00  0.00    +0.000 OA
BRANCH  25  27
ATOM     26  N   UNL     1      47.210  -2.134   6.930  0.00  0.00    +0.000 NA
ATOM     27  C   UNL     1      45.477  -3.130   8.889  0.00  0.00    +0.000 A 
ATOM     28  C   UNL     1      45.000  -2.899   7.603  0.00  0.00    +0.000 A 
ATOM     29  C   UNL     1      45.902  -2.416   6.669  0.00  0.00    +0.000 A 
ATOM     30  C   UNL     1      46.798  -2.836   9.210  0.00  0.00    +0.000 A 
ATOM     31  C   UNL     1      47.617  -2.351   8.202  0.00  0.00    +0.000 A 
BRANCH  29  34
ATOM     32  O   UNL     1      44.613  -2.923   4.762  0.00  0.00    +0.000 OA
ATOM     33  N   UNL     1      46.070  -1.096   4.687  0.00  0.00    +0.000 N 
ATOM     34  C   UNL     1      45.449  -2.185   5.273  0.00  0.00    +0.000 C 
ATOM     35  C   UNL     1      45.945  -0.519   3.376  0.00  0.00    +0.000 C 
ATOM     36  H   UNL     1      46.740  -0.620   5.290  0.00  0.00    +0.000 HD
ENDBRANCH  29  34
ENDBRANCH  25  27
ENDBRANCH   3  25
TORSDOF 6
ENDMDL
MODEL 8
REMARK VINA RESULT:      -7.1     16.611     18.285
REMARK  Name = 11167602_Regorafenib.pdbqt.pdb
REMARK  6 active torsions:
REMARK  status: ('A' for Active; 'I' for Inactive)
REMARK    1  A    between atoms: C_2  and  N_10
REMARK    2  A    between atoms: C_3  and  O_25
REMARK    3  A    between atoms: N_9  and  C_15
REMARK    4  A    between atoms: C_16  and  C_24
REMARK    5  A    between atoms: O_25  and  C_27
REMARK    6  A    between atoms: C_29  and  C_34
REMARK                            x       y       z     vdW  Elec       q    Type
REMARK                         _______ _______ _______ _____ _____    ______ ____
ROOT
ATOM      1  F   UNL     1      50.239   2.526  28.559  0.00  0.00    +0.000 F 
ATOM      2  C   UNL     1      48.750   2.366  30.391  0.00  0.00    +0.000 A 
ATOM      3  C   UNL     1      48.827   5.151  30.617  0.00  0.00    +0.000 A 
ATOM      4  C   UNL     1      49.527   3.135  29.519  0.00  0.00    +0.000 A 
ATOM      5  C   UNL     1      48.027   3.012  31.393  0.00  0.00    +0.000 A 
ATOM      6  C   UNL     1      49.584   4.520  29.630  0.00  0.00    +0.000 A 
ATOM      7  C   UNL     1      48.074   4.400  31.516  0.00  0.00    +0.000 A 
ENDROOT
BRANCH   2  10
ATOM      8  O   UNL     1      50.672   0.403  31.334  0.00  0.00    +0.000 OA
ATOM      9  N   UNL     1      49.343  -1.227  30.373  0.00  0.00    +0.000 N 
ATOM     10  N   UNL     1      48.732   0.966  30.214  0.00  0.00    +0.000 N 
ATOM     11  C   UNL     1      49.676   0.078  30.701  0.00  0.00    +0.000 C 
ATOM     12  H   UNL     1      48.480  -1.382  29.873  0.00  0.00    +0.000 HD
ATOM     13  H   UNL     1      47.961   0.604  29.671  0.00  0.00    +0.000 HD
BRANCH   9  15
ATOM     14 CL   UNL     1      52.424  -6.050  31.892  0.00  0.00    +0.000 Cl
ATOM     15  C   UNL     1      50.094  -2.370  30.706  0.00  0.00    +0.000 A 
ATOM     16  C   UNL     1      50.478  -4.171  32.306  0.00  0.00    +0.000 A 
ATOM     17  C   UNL     1      49.783  -3.027  31.897  0.00  0.00    +0.000 A 
ATOM     18  C   UNL     1      51.119  -2.867  29.908  0.00  0.00    +0.000 A 
ATOM     19  C   UNL     1      51.503  -4.653  31.490  0.00  0.00    +0.000 A 
ATOM     20  C   UNL     1      51.821  -4.003  30.298  0.00  0.00    +0.000 A 
BRANCH  16  24
ATOM     21  F   UNL     1      49.845  -6.163  33.456  0.00  0.00    +0.000 F 
ATOM     22  F   UNL     1      51.060  -4.737  34.546  0.00  0.00    +0.000 F 
ATOM     23  F   UNL     1      48.961  -4.306  34.140  0.00  0.00    +0.000 F 
ATOM     24  C   UNL     1      50.093  -4.828  33.594  0.00  0.00    +0.000 C 
ENDBRANCH  16  24
ENDBRANCH   9  15
ENDBRANCH   2  10
BRANCH   3  25
ATOM     25  O   UNL     1      48.894   6.508  30.832  0.00  0.00    +0.000 OA
BRANCH  25  27
ATOM     26  N   UNL     1      52.364   8.134  32.482  0.00  0.00    +0.000 NA
ATOM     27  C   UNL     1      50.077   7.025  31.309  0.00  0.00    +0.000 A 
ATOM     28  C   UNL     1      50.956   7.772  30.531  0.00  0.00    +0.000 A 
ATOM     29  C   UNL     1      52.077   8.289  31.158  0.00  0.00    +0.000 A 
ATOM     30  C   UNL     1      50.315   6.859  32.670  0.00  0.00    +0.000 A 
ATOM     31  C   UNL     1      51.465   7.423  33.200  0.00  0.00    +0.000 A 
BRANCH  29  34
ATOM     32  O   UNL     1      54.262   8.831  30.458  0.00  0.00    +0.000 OA
ATOM     33  N   UNL     1      52.460  10.019  29.558  0.00  0.00    +0.000 N 
ATOM     34  C   UNL     1      53.061   9.065  30.360  0.00  0.00    +0.000 C 
ATOM     35  C   UNL     1      53.013  10.980  28.642  0.00  0.00    +0.000 C 
ATOM     36  H   UNL     1      51.444  10.050  29.632  0.00  0.00    +0.000 HD
ENDBRANCH  29  34
ENDBRANCH  25  27
ENDBRANCH   3  25
TORSDOF 6
ENDMDL
MODEL 9
REMARK VINA RESULT:      -7.1     17.540     22.064
REMARK  Name = 11167602_Regorafenib.pdbqt.pdb
REMARK  6 active torsions:
REMARK  status: ('A' for Active; 'I' for Inactive)
REMARK    1  A    between atoms: C_2  and  N_10
REMARK    2  A    between atoms: C_3  and  O_25
REMARK    3  A    between atoms: N_9  and  C_15
REMARK    4  A    between atoms: C_16  and  C_24
REMARK    5  A    between atoms: O_25  and  C_27
REMARK    6  A    between atoms: C_29  and  C_34
REMARK                            x       y       z     vdW  Elec       q    Type
REMARK                         _______ _______ _______ _____ _____    ______ ____
ROOT
ATOM      1  F   UNL     1      50.397   4.303  33.852  0.00  0.00    +0.000 F 
ATOM      2  C   UNL     1      49.891   6.062  32.351  0.00  0.00    +0.000 A 
ATOM      3  C   UNL     1      49.204   4.145  30.436  0.00  0.00    +0.000 A 
ATOM      4  C   UNL     1      49.981   4.696  32.638  0.00  0.00    +0.000 A 
ATOM      5  C   UNL     1      49.471   6.454  31.081  0.00  0.00    +0.000 A 
ATOM      6  C   UNL     1      49.655   3.733  31.689  0.00  0.00    +0.000 A 
ATOM      7  C   UNL     1      49.141   5.500  30.119  0.00  0.00    +0.000 A 
ENDROOT
BRANCH   2  10
ATOM      8  O   UNL     1      52.394   7.482  32.738  0.00  0.00    +0.000 OA
ATOM      9  N   UNL     1      51.431   8.496  34.579  0.00  0.00    +0.000 N 
ATOM     10  N   UNL     1      50.229   6.983  33.365  0.00  0.00    +0.000 N 
ATOM     11  C   UNL     1      51.441   7.640  33.490  0.00  0.00    +0.000 C 
ATOM     12  H   UNL     1      50.578   8.569  35.114  0.00  0.00    +0.000 HD
ATOM     13  H   UNL     1      49.513   7.152  34.058  0.00  0.00    +0.000 HD
BRANCH   9  15
ATOM     14 CL   UNL     1      55.956  11.828  36.446  0.00  0.00    +0.000 Cl
ATOM     15  C   UNL     1      52.506   9.304  34.993  0.00  0.00    +0.000 A 
ATOM     16  C   UNL     1      54.086   9.855  36.768  0.00  0.00    +0.000 A 
ATOM     17  C   UNL     1      53.018   9.098  36.274  0.00  0.00    +0.000 A 
ATOM     18  C   UNL     1      53.073  10.287  34.189  0.00  0.00    +0.000 A 
ATOM     19  C   UNL     1      54.641  10.837  35.945  0.00  0.00    +0.000 A 
ATOM     20  C   UNL     1      54.136  11.051  34.662  0.00  0.00    +0.000 A 
BRANCH  16  24
ATOM     21  F   UNL     1      54.513  10.671  38.968  0.00  0.00    +0.000 F 
ATOM     22  F   UNL     1      53.885   8.605  38.787  0.00  0.00    +0.000 F 
ATOM     23  F   UNL     1      55.893   9.199  38.178  0.00  0.00    +0.000 F 
ATOM     24  C   UNL     1      54.587   9.581  38.151  0.00  0.00    +0.000 C 
ENDBRANCH  16  24
ENDBRANCH   9  15
ENDBRANCH   2  10
BRANCH   3  25
ATOM     25  O   UNL     1      48.937   3.251  29.426  0.00  0.00    +0.000 OA
BRANCH  25  27
ATOM     26  N   UNL     1      50.741  -0.509  29.578  0.00  0.00    +0.000 NA
ATOM     27  C   UNL     1      49.476   1.987  29.527  0.00  0.00    +0.000 A 
ATOM     28  C   UNL     1      48.708   0.828  29.560  0.00  0.00    +0.000 A 
ATOM     29  C   UNL     1      49.384  -0.380  29.595  0.00  0.00    +0.000 A 
ATOM     30  C   UNL     1      50.864   1.907  29.485  0.00  0.00    +0.000 A 
ATOM     31  C   UNL     1      51.441   0.647  29.519  0.00  0.00    +0.000 A 
BRANCH  29  34
ATOM     32  O   UNL     1      47.618  -1.806  28.958  0.00  0.00    +0.000 OA
ATOM     33  N   UNL     1      49.129  -2.538  30.585  0.00  0.00    +0.000 N 
ATOM     34  C   UNL     1      48.607  -1.644  29.666  0.00  0.00    +0.000 C 
ATOM     35  C   UNL     1      48.708  -3.855  30.979  0.00  0.00    +0.000 C 
ATOM     36  H   UNL     1      49.958  -2.201  31.072  0.00  0.00    +0.000 HD
ENDBRANCH  29  34
ENDBRANCH  25  27
ENDBRANCH   3  25
TORSDOF 6
ENDMDL
