MODEL 1
REMARK VINA RESULT:      -8.1      0.000      0.000
REMARK  Name = 114778_Kahweol.pdbqt.pdb
REMARK  3 active torsions:
REMARK  status: ('A' for Active; 'I' for Inactive)
REMARK    1  A    between atoms: C_8  and  O_21
REMARK    2  A    between atoms: C_8  and  C_23
REMARK    3  A    between atoms: C_23  and  O_24
REMARK                            x       y       z     vdW  Elec       q    Type
REMARK                         _______ _______ _______ _____ _____    ______ ____
ROOT
ATOM      1  O   UNL     1      17.650  11.561  19.097  0.00  0.00    +0.000 OA
ATOM      2  C   UNL     1      19.080   5.465  19.148  0.00  0.00    +0.000 C 
ATOM      3  C   UNL     1      18.518   6.371  20.329  0.00  0.00    +0.000 C 
ATOM      4  C   UNL     1      18.423   3.404  20.174  0.00  0.00    +0.000 C 
ATOM      5  C   UNL     1      19.586   4.215  19.776  0.00  0.00    +0.000 C 
ATOM      6  C   UNL     1      17.933   4.844  18.449  0.00  0.00    +0.000 C 
ATOM      7  C   UNL     1      19.026   7.796  20.571  0.00  0.00    +0.000 C 
ATOM      8  C   UNL     1      17.500   3.502  18.888  0.00  0.00    +0.000 C 
ATOM      9  C   UNL     1      19.965   6.250  18.327  0.00  0.00    +0.000 C 
ATOM     10  C   UNL     1      17.890   5.571  21.368  0.00  0.00    +0.000 C 
ATOM     11  C   UNL     1      17.865   4.038  21.360  0.00  0.00    +0.000 C 
ATOM     12  C   UNL     1      19.663   8.549  19.279  0.00  0.00    +0.000 C 
ATOM     13  C   UNL     1      20.274   7.713  18.317  0.00  0.00    +0.000 C 
ATOM     14  C   UNL     1      20.151   7.760  21.656  0.00  0.00    +0.000 C 
ATOM     15  C   UNL     1      17.888   8.653  21.003  0.00  0.00    +0.000 C 
ATOM     16  C   UNL     1      19.114   9.836  18.917  0.00  0.00    +0.000 A 
ATOM     17  C   UNL     1      17.434   9.712  20.671  0.00  0.00    +0.000 C 
ATOM     18  C   UNL     1      18.046  10.382  19.596  0.00  0.00    +0.000 A 
ATOM     19  C   UNL     1      19.409  10.764  17.898  0.00  0.00    +0.000 A 
ATOM     20  C   UNL     1      18.503  11.805  18.049  0.00  0.00    +0.000 A 
ENDROOT
BRANCH   8  21
ATOM     21  O   UNL     1      17.900   2.542  17.926  0.00  0.00    +0.000 OA
ATOM     22  H   UNL     1      17.688   2.930  17.060  0.00  0.00    +0.000 HD
ENDBRANCH   8  21
BRANCH   8  23
ATOM     23  C   UNL     1      16.065   3.359  19.164  0.00  0.00    +0.000 C 
BRANCH  23  24
ATOM     24  O   UNL     1      14.758   3.237  19.399  0.00  0.00    +0.000 OA
ATOM     25  H   UNL     1      14.573   2.445  19.934  0.00  0.00    +0.000 HD
ENDBRANCH  23  24
ENDBRANCH   8  23
TORSDOF 3
ENDMDL
MODEL 2
REMARK VINA RESULT:      -7.4     19.753     21.964
REMARK  Name = 114778_Kahweol.pdbqt.pdb
REMARK  3 active torsions:
REMARK  status: ('A' for Active; 'I' for Inactive)
REMARK    1  A    between atoms: C_8  and  O_21
REMARK    2  A    between atoms: C_8  and  C_23
REMARK    3  A    between atoms: C_23  and  O_24
REMARK                            x       y       z     vdW  Elec       q    Type
REMARK                         _______ _______ _______ _____ _____    ______ ____
ROOT
ATOM      1  O   UNL     1      34.967  -1.267  15.413  0.00  0.00    +0.000 OA
ATOM      2  C   UNL     1      37.608   2.007  10.774  0.00  0.00    +0.000 C 
ATOM      3  C   UNL     1      38.306   1.227  11.972  0.00  0.00    +0.000 C 
ATOM      4  C   UNL     1      39.583   2.064   9.422  0.00  0.00    +0.000 C 
ATOM      5  C   UNL     1      38.644   2.900  10.189  0.00  0.00    +0.000 C 
ATOM      6  C   UNL     1      37.508   1.092   9.617  0.00  0.00    +0.000 C 
ATOM      7  C   UNL     1      37.753   1.269  13.401  0.00  0.00    +0.000 C 
ATOM      8  C   UNL     1      38.597   1.117   8.619  0.00  0.00    +0.000 C 
ATOM      9  C   UNL     1      36.368   2.574  11.236  0.00  0.00    +0.000 C 
ATOM     10  C   UNL     1      39.695   0.915  11.674  0.00  0.00    +0.000 C 
ATOM     11  C   UNL     1      40.413   1.374  10.399  0.00  0.00    +0.000 C 
ATOM     12  C   UNL     1      36.166   1.595  13.535  0.00  0.00    +0.000 C 
ATOM     13  C   UNL     1      35.615   2.407  12.518  0.00  0.00    +0.000 C 
ATOM     14  C   UNL     1      38.499   2.383  14.205  0.00  0.00    +0.000 C 
ATOM     15  C   UNL     1      37.934  -0.067  14.034  0.00  0.00    +0.000 C 
ATOM     16  C   UNL     1      35.351   0.658  14.274  0.00  0.00    +0.000 A 
ATOM     17  C   UNL     1      37.234  -0.840  14.624  0.00  0.00    +0.000 C 
ATOM     18  C   UNL     1      35.878  -0.505  14.792  0.00  0.00    +0.000 A 
ATOM     19  C   UNL     1      33.981   0.614  14.602  0.00  0.00    +0.000 A 
ATOM     20  C   UNL     1      33.790  -0.569  15.305  0.00  0.00    +0.000 A 
ENDROOT
BRANCH   8  21
ATOM     21  O   UNL     1      38.142   1.767   7.445  0.00  0.00    +0.000 OA
ATOM     22  H   UNL     1      38.888   1.742   6.822  0.00  0.00    +0.000 HD
ENDBRANCH   8  21
BRANCH   8  23
ATOM     23  C   UNL     1      39.167  -0.191   8.272  0.00  0.00    +0.000 C 
BRANCH  23  24
ATOM     24  O   UNL     1      39.669  -1.383   7.948  0.00  0.00    +0.000 OA
ATOM     25  H   UNL     1      38.987  -2.075   8.008  0.00  0.00    +0.000 HD
ENDBRANCH  23  24
ENDBRANCH   8  23
TORSDOF 3
ENDMDL
MODEL 3
REMARK VINA RESULT:      -6.7      2.009      3.306
REMARK  Name = 114778_Kahweol.pdbqt.pdb
REMARK  3 active torsions:
REMARK  status: ('A' for Active; 'I' for Inactive)
REMARK    1  A    between atoms: C_8  and  O_21
REMARK    2  A    between atoms: C_8  and  C_23
REMARK    3  A    between atoms: C_23  and  O_24
REMARK                            x       y       z     vdW  Elec       q    Type
REMARK                         _______ _______ _______ _____ _____    ______ ____
ROOT
ATOM      1  O   UNL     1      18.965  12.336  14.755  0.00  0.00    +0.000 OA
ATOM      2  C   UNL     1      20.018   7.860  19.007  0.00  0.00    +0.000 C 
ATOM      3  C   UNL     1      18.992   9.075  19.065  0.00  0.00    +0.000 C 
ATOM      4  C   UNL     1      18.892   6.593  20.697  0.00  0.00    +0.000 C 
ATOM      5  C   UNL     1      20.129   7.332  20.393  0.00  0.00    +0.000 C 
ATOM      6  C   UNL     1      19.320   6.686  18.439  0.00  0.00    +0.000 C 
ATOM      7  C   UNL     1      19.367  10.480  18.581  0.00  0.00    +0.000 C 
ATOM      8  C   UNL     1      18.691   5.735  19.378  0.00  0.00    +0.000 C 
ATOM      9  C   UNL     1      21.209   8.278  18.314  0.00  0.00    +0.000 C 
ATOM     10  C   UNL     1      17.923   8.830  20.020  0.00  0.00    +0.000 C 
ATOM     11  C   UNL     1      17.859   7.593  20.924  0.00  0.00    +0.000 C 
ATOM     12  C   UNL     1      20.562  10.552  17.480  0.00  0.00    +0.000 C 
ATOM     13  C   UNL     1      21.530   9.525  17.552  0.00  0.00    +0.000 C 
ATOM     14  C   UNL     1      19.844  11.331  19.802  0.00  0.00    +0.000 C 
ATOM     15  C   UNL     1      18.186  11.100  17.919  0.00  0.00    +0.000 C 
ATOM     16  C   UNL     1      20.288  11.242  16.241  0.00  0.00    +0.000 A 
ATOM     17  C   UNL     1      17.976  11.648  16.874  0.00  0.00    +0.000 C 
ATOM     18  C   UNL     1      19.042  11.765  15.965  0.00  0.00    +0.000 A 
ATOM     19  C   UNL     1      21.057  11.513  15.091  0.00  0.00    +0.000 A 
ATOM     20  C   UNL     1      20.219  12.190  14.215  0.00  0.00    +0.000 A 
ENDROOT
BRANCH   8  21
ATOM     21  O   UNL     1      19.469   4.553  19.440  0.00  0.00    +0.000 OA
ATOM     22  H   UNL     1      19.228   4.035  18.654  0.00  0.00    +0.000 HD
ENDBRANCH   8  21
BRANCH   8  23
ATOM     23  C   UNL     1      17.292   5.393  19.090  0.00  0.00    +0.000 C 
BRANCH  23  24
ATOM     24  O   UNL     1      16.024   5.089  18.811  0.00  0.00    +0.000 OA
ATOM     25  H   UNL     1      15.415   5.557  19.409  0.00  0.00    +0.000 HD
ENDBRANCH  23  24
ENDBRANCH   8  23
TORSDOF 3
ENDMDL
MODEL 4
REMARK VINA RESULT:      -6.6     20.792     22.773
REMARK  Name = 114778_Kahweol.pdbqt.pdb
REMARK  3 active torsions:
REMARK  status: ('A' for Active; 'I' for Inactive)
REMARK    1  A    between atoms: C_8  and  O_21
REMARK    2  A    between atoms: C_8  and  C_23
REMARK    3  A    between atoms: C_23  and  O_24
REMARK                            x       y       z     vdW  Elec       q    Type
REMARK                         _______ _______ _______ _____ _____    ______ ____
ROOT
ATOM      1  O   UNL     1      36.333   3.140  15.817  0.00  0.00    +0.000 OA
ATOM      2  C   UNL     1      38.817   0.294  10.823  0.00  0.00    +0.000 C 
ATOM      3  C   UNL     1      39.205   1.693  11.473  0.00  0.00    +0.000 C 
ATOM      4  C   UNL     1      40.891   0.059   9.650  0.00  0.00    +0.000 C 
ATOM      5  C   UNL     1      39.443   0.265   9.473  0.00  0.00    +0.000 C 
ATOM      6  C   UNL     1      39.672  -0.754  11.422  0.00  0.00    +0.000 C 
ATOM      7  C   UNL     1      38.144   2.677  11.976  0.00  0.00    +0.000 C 
ATOM      8  C   UNL     1      40.927  -1.104  10.727  0.00  0.00    +0.000 C 
ATOM      9  C   UNL     1      37.396   0.092  10.945  0.00  0.00    +0.000 C 
ATOM     10  C   UNL     1      40.548   2.106  11.099  0.00  0.00    +0.000 C 
ATOM     11  C   UNL     1      41.433   1.326  10.119  0.00  0.00    +0.000 C 
ATOM     12  C   UNL     1      36.713   2.025  12.386  0.00  0.00    +0.000 C 
ATOM     13  C   UNL     1      36.344   0.855  11.684  0.00  0.00    +0.000 C 
ATOM     14  C   UNL     1      37.844   3.723  10.854  0.00  0.00    +0.000 C 
ATOM     15  C   UNL     1      38.641   3.341  13.213  0.00  0.00    +0.000 C 
ATOM     16  C   UNL     1      36.210   2.295  13.714  0.00  0.00    +0.000 A 
ATOM     17  C   UNL     1      38.214   3.534  14.317  0.00  0.00    +0.000 C 
ATOM     18  C   UNL     1      36.942   3.023  14.629  0.00  0.00    +0.000 A 
ATOM     19  C   UNL     1      35.036   1.924  14.401  0.00  0.00    +0.000 A 
ATOM     20  C   UNL     1      35.145   2.468  15.674  0.00  0.00    +0.000 A 
ENDROOT
BRANCH   8  21
ATOM     21  O   UNL     1      40.777  -2.362  10.094  0.00  0.00    +0.000 OA
ATOM     22  H   UNL     1      41.670  -2.743  10.044  0.00  0.00    +0.000 HD
ENDBRANCH   8  21
BRANCH   8  23
ATOM     23  C   UNL     1      42.133  -1.112  11.565  0.00  0.00    +0.000 C 
BRANCH  23  24
ATOM     24  O   UNL     1      43.229  -1.137  12.324  0.00  0.00    +0.000 OA
ATOM     25  H   UNL     1      43.929  -1.669  11.906  0.00  0.00    +0.000 HD
ENDBRANCH  23  24
ENDBRANCH   8  23
TORSDOF 3
ENDMDL
MODEL 5
REMARK VINA RESULT:      -6.2     37.695     40.166
REMARK  Name = 114778_Kahweol.pdbqt.pdb
REMARK  3 active torsions:
REMARK  status: ('A' for Active; 'I' for Inactive)
REMARK    1  A    between atoms: C_8  and  O_21
REMARK    2  A    between atoms: C_8  and  C_23
REMARK    3  A    between atoms: C_23  and  O_24
REMARK                            x       y       z     vdW  Elec       q    Type
REMARK                         _______ _______ _______ _____ _____    ______ ____
ROOT
ATOM      1  O   UNL     1      40.720 -20.564  -6.177  0.00  0.00    +0.000 OA
ATOM      2  C   UNL     1      41.165 -16.427  -1.497  0.00  0.00    +0.000 C 
ATOM      3  C   UNL     1      41.209 -16.171  -3.066  0.00  0.00    +0.000 C 
ATOM      4  C   UNL     1      40.632 -14.156  -0.959  0.00  0.00    +0.000 C 
ATOM      5  C   UNL     1      41.677 -15.189  -0.850  0.00  0.00    +0.000 C 
ATOM      6  C   UNL     1      39.765 -16.284  -1.040  0.00  0.00    +0.000 C 
ATOM      7  C   UNL     1      41.973 -17.097  -4.019  0.00  0.00    +0.000 C 
ATOM      8  C   UNL     1      39.331 -14.961  -0.547  0.00  0.00    +0.000 C 
ATOM      9  C   UNL     1      41.795 -17.688  -1.204  0.00  0.00    +0.000 C 
ATOM     10  C   UNL     1      40.892 -14.791  -3.395  0.00  0.00    +0.000 C 
ATOM     11  C   UNL     1      40.643 -13.703  -2.343  0.00  0.00    +0.000 C 
ATOM     12  C   UNL     1      42.199 -18.619  -3.496  0.00  0.00    +0.000 C 
ATOM     13  C   UNL     1      42.290 -18.783  -2.095  0.00  0.00    +0.000 C 
ATOM     14  C   UNL     1      43.397 -16.505  -4.275  0.00  0.00    +0.000 C 
ATOM     15  C   UNL     1      41.208 -17.229  -5.290  0.00  0.00    +0.000 C 
ATOM     16  C   UNL     1      41.750 -19.695  -4.350  0.00  0.00    +0.000 A 
ATOM     17  C   UNL     1      40.824 -18.137  -5.972  0.00  0.00    +0.000 C 
ATOM     18  C   UNL     1      41.094 -19.447  -5.537  0.00  0.00    +0.000 A 
ATOM     19  C   UNL     1      41.787 -21.099  -4.242  0.00  0.00    +0.000 A 
ATOM     20  C   UNL     1      41.160 -21.591  -5.380  0.00  0.00    +0.000 A 
ENDROOT
BRANCH   8  21
ATOM     21  O   UNL     1      39.208 -15.004   0.864  0.00  0.00    +0.000 OA
ATOM     22  H   UNL     1      39.903 -14.419   1.209  0.00  0.00    +0.000 HD
ENDBRANCH   8  21
BRANCH   8  23
ATOM     23  C   UNL     1      38.089 -14.443  -1.136  0.00  0.00    +0.000 C 
BRANCH  23  24
ATOM     24  O   UNL     1      36.954 -13.988  -1.666  0.00  0.00    +0.000 OA
ATOM     25  H   UNL     1      36.188 -14.246  -1.122  0.00  0.00    +0.000 HD
ENDBRANCH  23  24
ENDBRANCH   8  23
TORSDOF 3
ENDMDL
MODEL 6
REMARK VINA RESULT:      -6.1     37.400     39.549
REMARK  Name = 114778_Kahweol.pdbqt.pdb
REMARK  3 active torsions:
REMARK  status: ('A' for Active; 'I' for Inactive)
REMARK    1  A    between atoms: C_8  and  O_21
REMARK    2  A    between atoms: C_8  and  C_23
REMARK    3  A    between atoms: C_23  and  O_24
REMARK                            x       y       z     vdW  Elec       q    Type
REMARK                         _______ _______ _______ _____ _____    ______ ____
ROOT
ATOM      1  O   UNL     1      37.628 -13.838  -0.714  0.00  0.00    +0.000 OA
ATOM      2  C   UNL     1      41.417 -17.656  -3.921  0.00  0.00    +0.000 C 
ATOM      3  C   UNL     1      41.160 -17.587  -2.353  0.00  0.00    +0.000 C 
ATOM      4  C   UNL     1      42.317 -19.873  -3.858  0.00  0.00    +0.000 C 
ATOM      5  C   UNL     1      42.653 -18.462  -4.113  0.00  0.00    +0.000 C 
ATOM      6  C   UNL     1      40.484 -18.644  -4.504  0.00  0.00    +0.000 C 
ATOM      7  C   UNL     1      41.036 -16.254  -1.607  0.00  0.00    +0.000 C 
ATOM      8  C   UNL     1      40.956 -20.035  -4.656  0.00  0.00    +0.000 C 
ATOM      9  C   UNL     1      41.350 -16.327  -4.472  0.00  0.00    +0.000 C 
ATOM     10  C   UNL     1      41.533 -18.827  -1.691  0.00  0.00    +0.000 C 
ATOM     11  C   UNL     1      42.185 -20.012  -2.415  0.00  0.00    +0.000 C 
ATOM     12  C   UNL     1      40.567 -14.983  -2.506  0.00  0.00    +0.000 C 
ATOM     13  C   UNL     1      40.937 -15.022  -3.870  0.00  0.00    +0.000 C 
ATOM     14  C   UNL     1      42.427 -15.875  -1.003  0.00  0.00    +0.000 C 
ATOM     15  C   UNL     1      40.003 -16.383  -0.543  0.00  0.00    +0.000 C 
ATOM     16  C   UNL     1      39.411 -14.238  -2.061  0.00  0.00    +0.000 A 
ATOM     17  C   UNL     1      39.034 -15.764  -0.205  0.00  0.00    +0.000 C 
ATOM     18  C   UNL     1      38.687 -14.625  -0.954  0.00  0.00    +0.000 A 
ATOM     19  C   UNL     1      38.738 -13.104  -2.558  0.00  0.00    +0.000 A 
ATOM     20  C   UNL     1      37.665 -12.886  -1.704  0.00  0.00    +0.000 A 
ENDROOT
BRANCH   8  21
ATOM     21  O   UNL     1      41.218 -20.295  -6.023  0.00  0.00    +0.000 OA
ATOM     22  H   UNL     1      40.675 -21.067  -6.256  0.00  0.00    +0.000 HD
ENDBRANCH   8  21
BRANCH   8  23
ATOM     23  C   UNL     1      40.062 -21.069  -4.118  0.00  0.00    +0.000 C 
BRANCH  23  24
ATOM     24  O   UNL     1      39.237 -22.002  -3.642  0.00  0.00    +0.000 OA
ATOM     25  H   UNL     1      39.130 -22.730  -4.280  0.00  0.00    +0.000 HD
ENDBRANCH  23  24
ENDBRANCH   8  23
TORSDOF 3
ENDMDL
MODEL 7
REMARK VINA RESULT:      -6.0     37.712     39.898
REMARK  Name = 114778_Kahweol.pdbqt.pdb
REMARK  3 active torsions:
REMARK  status: ('A' for Active; 'I' for Inactive)
REMARK    1  A    between atoms: C_8  and  O_21
REMARK    2  A    between atoms: C_8  and  C_23
REMARK    3  A    between atoms: C_23  and  O_24
REMARK                            x       y       z     vdW  Elec       q    Type
REMARK                         _______ _______ _______ _____ _____    ______ ____
ROOT
ATOM      1  O   UNL     1      46.411 -13.576  -5.154  0.00  0.00    +0.000 OA
ATOM      2  C   UNL     1      41.089 -16.170  -3.111  0.00  0.00    +0.000 C 
ATOM      3  C   UNL     1      42.185 -15.357  -2.293  0.00  0.00    +0.000 C 
ATOM      4  C   UNL     1      39.373 -15.858  -1.472  0.00  0.00    +0.000 C 
ATOM      5  C   UNL     1      40.239 -16.865  -2.107  0.00  0.00    +0.000 C 
ATOM      6  C   UNL     1      40.053 -15.220  -3.574  0.00  0.00    +0.000 C 
ATOM      7  C   UNL     1      43.687 -15.556  -2.526  0.00  0.00    +0.000 C 
ATOM      8  C   UNL     1      38.861 -15.029  -2.722  0.00  0.00    +0.000 C 
ATOM      9  C   UNL     1      41.740 -16.939  -4.140  0.00  0.00    +0.000 C 
ATOM     10  C   UNL     1      41.645 -14.825  -1.052  0.00  0.00    +0.000 C 
ATOM     11  C   UNL     1      40.219 -15.103  -0.559  0.00  0.00    +0.000 C 
ATOM     12  C   UNL     1      44.105 -16.123  -3.991  0.00  0.00    +0.000 C 
ATOM     13  C   UNL     1      43.154 -16.955  -4.625  0.00  0.00    +0.000 C 
ATOM     14  C   UNL     1      44.234 -16.585  -1.485  0.00  0.00    +0.000 C 
ATOM     15  C   UNL     1      44.379 -14.243  -2.402  0.00  0.00    +0.000 C 
ATOM     16  C   UNL     1      45.065 -15.360  -4.756  0.00  0.00    +0.000 A 
ATOM     17  C   UNL     1      45.157 -13.616  -3.064  0.00  0.00    +0.000 C 
ATOM     18  C   UNL     1      45.562 -14.159  -4.296  0.00  0.00    +0.000 A 
ATOM     19  C   UNL     1      45.660 -15.539  -6.020  0.00  0.00    +0.000 A 
ATOM     20  C   UNL     1      46.481 -14.437  -6.221  0.00  0.00    +0.000 A 
ENDROOT
BRANCH   8  21
ATOM     21  O   UNL     1      37.751 -15.678  -3.318  0.00  0.00    +0.000 OA
ATOM     22  H   UNL     1      37.263 -16.093  -2.587  0.00  0.00    +0.000 HD
ENDBRANCH   8  21
BRANCH   8  23
ATOM     23  C   UNL     1      38.516 -13.634  -2.421  0.00  0.00    +0.000 C 
BRANCH  23  24
ATOM     24  O   UNL     1      38.186 -12.371  -2.151  0.00  0.00    +0.000 OA
ATOM     25  H   UNL     1      38.808 -11.977  -1.515  0.00  0.00    +0.000 HD
ENDBRANCH  23  24
ENDBRANCH   8  23
TORSDOF 3
ENDMDL
MODEL 8
REMARK VINA RESULT:      -5.9     21.971     24.078
REMARK  Name = 114778_Kahweol.pdbqt.pdb
REMARK  3 active torsions:
REMARK  status: ('A' for Active; 'I' for Inactive)
REMARK    1  A    between atoms: C_8  and  O_21
REMARK    2  A    between atoms: C_8  and  C_23
REMARK    3  A    between atoms: C_23  and  O_24
REMARK                            x       y       z     vdW  Elec       q    Type
REMARK                         _______ _______ _______ _____ _____    ______ ____
ROOT
ATOM      1  O   UNL     1      36.213   2.522  13.531  0.00  0.00    +0.000 OA
ATOM      2  C   UNL     1      40.253  -0.137   9.553  0.00  0.00    +0.000 C 
ATOM      3  C   UNL     1      38.823   0.493   9.255  0.00  0.00    +0.000 C 
ATOM      4  C   UNL     1      40.982  -0.014   7.276  0.00  0.00    +0.000 C 
ATOM      5  C   UNL     1      40.618  -0.945   8.358  0.00  0.00    +0.000 C 
ATOM      6  C   UNL     1      41.276   0.914   9.359  0.00  0.00    +0.000 C 
ATOM      7  C   UNL     1      37.627   0.271  10.187  0.00  0.00    +0.000 C 
ATOM      8  C   UNL     1      41.916   1.019   8.033  0.00  0.00    +0.000 C 
ATOM      9  C   UNL     1      40.234  -0.764  10.849  0.00  0.00    +0.000 C 
ATOM     10  C   UNL     1      38.673   0.848   7.853  0.00  0.00    +0.000 C 
ATOM     11  C   UNL     1      39.735   0.555   6.785  0.00  0.00    +0.000 C 
ATOM     12  C   UNL     1      37.991  -0.078  11.733  0.00  0.00    +0.000 C 
ATOM     13  C   UNL     1      39.211  -0.762  11.940  0.00  0.00    +0.000 C 
ATOM     14  C   UNL     1      36.779  -0.929   9.654  0.00  0.00    +0.000 C 
ATOM     15  C   UNL     1      36.817   1.519  10.248  0.00  0.00    +0.000 C 
ATOM     16  C   UNL     1      37.412   0.755  12.762  0.00  0.00    +0.000 A 
ATOM     17  C   UNL     1      36.366   2.210  11.118  0.00  0.00    +0.000 C 
ATOM     18  C   UNL     1      36.632   1.849  12.451  0.00  0.00    +0.000 A 
ATOM     19  C   UNL     1      37.485   0.750  14.169  0.00  0.00    +0.000 A 
ATOM     20  C   UNL     1      36.733   1.835  14.599  0.00  0.00    +0.000 A 
ENDROOT
BRANCH   8  21
ATOM     21  O   UNL     1      43.239   0.517   8.110  0.00  0.00    +0.000 OA
ATOM     22  H   UNL     1      43.499   0.594   9.043  0.00  0.00    +0.000 HD
ENDBRANCH   8  21
BRANCH   8  23
ATOM     23  C   UNL     1      41.931   2.363   7.442  0.00  0.00    +0.000 C 
BRANCH  23  24
ATOM     24  O   UNL     1      41.956   3.578   6.893  0.00  0.00    +0.000 OA
ATOM     25  H   UNL     1      42.127   4.260   7.566  0.00  0.00    +0.000 HD
ENDBRANCH  23  24
ENDBRANCH   8  23
TORSDOF 3
ENDMDL
MODEL 9
REMARK VINA RESULT:      -5.8     38.707     40.796
REMARK  Name = 114778_Kahweol.pdbqt.pdb
REMARK  3 active torsions:
REMARK  status: ('A' for Active; 'I' for Inactive)
REMARK    1  A    between atoms: C_8  and  O_21
REMARK    2  A    between atoms: C_8  and  C_23
REMARK    3  A    between atoms: C_23  and  O_24
REMARK                            x       y       z     vdW  Elec       q    Type
REMARK                         _______ _______ _______ _____ _____    ______ ____
ROOT
ATOM      1  O   UNL     1      45.604 -11.805  -4.983  0.00  0.00    +0.000 OA
ATOM      2  C   UNL     1      42.587 -17.179  -3.868  0.00  0.00    +0.000 C 
ATOM      3  C   UNL     1      43.162 -16.119  -2.829  0.00  0.00    +0.000 C 
ATOM      4  C   UNL     1      41.095 -18.186  -2.290  0.00  0.00    +0.000 C 
ATOM      5  C   UNL     1      42.305 -18.419  -3.096  0.00  0.00    +0.000 C 
ATOM      6  C   UNL     1      41.176 -16.838  -4.150  0.00  0.00    +0.000 C 
ATOM      7  C   UNL     1      44.524 -15.445  -3.026  0.00  0.00    +0.000 C 
ATOM      8  C   UNL     1      40.130 -17.494  -3.340  0.00  0.00    +0.000 C 
ATOM      9  C   UNL     1      43.459 -17.243  -5.012  0.00  0.00    +0.000 C 
ATOM     10  C   UNL     1      42.524 -16.241  -1.528  0.00  0.00    +0.000 C 
ATOM     11  C   UNL     1      41.495 -17.326  -1.186  0.00  0.00    +0.000 C 
ATOM     12  C   UNL     1      45.059 -15.367  -4.559  0.00  0.00    +0.000 C 
ATOM     13  C   UNL     1      44.632 -16.407  -5.415  0.00  0.00    +0.000 C 
ATOM     14  C   UNL     1      45.607 -16.237  -2.223  0.00  0.00    +0.000 C 
ATOM     15  C   UNL     1      44.440 -14.031  -2.567  0.00  0.00    +0.000 C 
ATOM     16  C   UNL     1      45.418 -14.066  -5.076  0.00  0.00    +0.000 A 
ATOM     17  C   UNL     1      44.723 -12.960  -3.025  0.00  0.00    +0.000 C 
ATOM     18  C   UNL     1      45.253 -12.920  -4.327  0.00  0.00    +0.000 A 
ATOM     19  C   UNL     1      45.917 -13.620  -6.316  0.00  0.00    +0.000 A 
ATOM     20  C   UNL     1      46.027 -12.239  -6.215  0.00  0.00    +0.000 A 
ENDROOT
BRANCH   8  21
ATOM     21  O   UNL     1      39.476 -18.476  -4.124  0.00  0.00    +0.000 OA
ATOM     22  H   UNL     1      38.753 -18.818  -3.573  0.00  0.00    +0.000 HD
ENDBRANCH   8  21
BRANCH   8  23
ATOM     23  C   UNL     1      39.135 -16.594  -2.742  0.00  0.00    +0.000 C 
BRANCH  23  24
ATOM     24  O   UNL     1      38.221 -15.780  -2.214  0.00  0.00    +0.000 OA
ATOM     25  H   UNL     1      38.134 -14.967  -2.742  0.00  0.00    +0.000 HD
ENDBRANCH  23  24
ENDBRANCH   8  23
TORSDOF 3
ENDMDL
