MODEL 1
REMARK VINA RESULT:      -4.7      0.000      0.000
REMARK  Name = 1174_Uracil.pdbqt.pdb
REMARK  0 active torsions:
REMARK  status: ('A' for Active; 'I' for Inactive)
REMARK                            x       y       z     vdW  Elec       q    Type
REMARK                         _______ _______ _______ _____ _____    ______ ____
ROOT
ATOM      1  O   UNL     1      34.466   2.321  13.845  0.00  0.00    +0.000 OA
ATOM      2  O   UNL     1      32.453  -1.035  16.326  0.00  0.00    +0.000 OA
ATOM      3  N   UNL     1      33.401   0.662  15.051  0.00  0.00    +0.000 N 
ATOM      4  N   UNL     1      35.691   1.065  15.348  0.00  0.00    +0.000 N 
ATOM      5  C   UNL     1      34.517   1.425  14.678  0.00  0.00    +0.000 A 
ATOM      6  C   UNL     1      33.419  -0.365  15.993  0.00  0.00    +0.000 A 
ATOM      7  C   UNL     1      35.690   0.072  16.254  0.00  0.00    +0.000 A 
ATOM      8  C   UNL     1      34.729  -0.564  16.556  0.00  0.00    +0.000 A 
ATOM      9  H   UNL     1      32.524   0.872  14.604  0.00  0.00    +0.000 HD
ATOM     10  H   UNL     1      36.541   1.570  15.134  0.00  0.00    +0.000 HD
ENDROOT
TORSDOF 0
ENDMDL
MODEL 2
REMARK VINA RESULT:      -4.7      2.214      2.342
REMARK  Name = 1174_Uracil.pdbqt.pdb
REMARK  0 active torsions:
REMARK  status: ('A' for Active; 'I' for Inactive)
REMARK                            x       y       z     vdW  Elec       q    Type
REMARK                         _______ _______ _______ _____ _____    ______ ____
ROOT
ATOM      1  O   UNL     1      36.075   1.744  17.592  0.00  0.00    +0.000 OA
ATOM      2  O   UNL     1      32.559  -1.047  16.444  0.00  0.00    +0.000 OA
ATOM      3  N   UNL     1      34.278   0.408  17.019  0.00  0.00    +0.000 N 
ATOM      4  N   UNL     1      36.409  -0.524  17.306  0.00  0.00    +0.000 N 
ATOM      5  C   UNL     1      35.627   0.636  17.328  0.00  0.00    +0.000 A 
ATOM      6  C   UNL     1      33.731  -0.837  16.714  0.00  0.00    +0.000 A 
ATOM      7  C   UNL     1      35.867  -1.717  17.010  0.00  0.00    +0.000 A 
ATOM      8  C   UNL     1      34.716  -1.887  16.750  0.00  0.00    +0.000 A 
ATOM      9  H   UNL     1      33.661   1.203  17.018  0.00  0.00    +0.000 HD
ATOM     10  H   UNL     1      37.396  -0.443  17.519  0.00  0.00    +0.000 HD
ENDROOT
TORSDOF 0
ENDMDL
MODEL 3
REMARK VINA RESULT:      -4.4      2.590      3.185
REMARK  Name = 1174_Uracil.pdbqt.pdb
REMARK  0 active torsions:
REMARK  status: ('A' for Active; 'I' for Inactive)
REMARK                            x       y       z     vdW  Elec       q    Type
REMARK                         _______ _______ _______ _____ _____    ______ ____
ROOT
ATOM      1  O   UNL     1      34.866   1.989  18.117  0.00  0.00    +0.000 OA
ATOM      2  O   UNL     1      37.081  -0.422  14.838  0.00  0.00    +0.000 OA
ATOM      3  N   UNL     1      36.013   0.842  16.471  0.00  0.00    +0.000 N 
ATOM      4  N   UNL     1      34.225  -0.169  17.599  0.00  0.00    +0.000 N 
ATOM      5  C   UNL     1      35.020   0.973  17.453  0.00  0.00    +0.000 A 
ATOM      6  C   UNL     1      36.220  -0.297  15.696  0.00  0.00    +0.000 A 
ATOM      7  C   UNL     1      34.437  -1.259  16.843  0.00  0.00    +0.000 A 
ATOM      8  C   UNL     1      35.289  -1.348  16.013  0.00  0.00    +0.000 A 
ATOM      9  H   UNL     1      36.621   1.630  16.317  0.00  0.00    +0.000 HD
ATOM     10  H   UNL     1      33.484  -0.154  18.288  0.00  0.00    +0.000 HD
ENDROOT
TORSDOF 0
ENDMDL
MODEL 4
REMARK VINA RESULT:      -4.2      1.853      3.097
REMARK  Name = 1174_Uracil.pdbqt.pdb
REMARK  0 active torsions:
REMARK  status: ('A' for Active; 'I' for Inactive)
REMARK                            x       y       z     vdW  Elec       q    Type
REMARK                         _______ _______ _______ _____ _____    ______ ____
ROOT
ATOM      1  O   UNL     1      35.017   1.341  18.213  0.00  0.00    +0.000 OA
ATOM      2  O   UNL     1      34.418   2.516  13.771  0.00  0.00    +0.000 OA
ATOM      3  N   UNL     1      34.745   1.990  16.012  0.00  0.00    +0.000 N 
ATOM      4  N   UNL     1      34.141  -0.168  16.698  0.00  0.00    +0.000 N 
ATOM      5  C   UNL     1      34.663   1.075  17.072  0.00  0.00    +0.000 A 
ATOM      6  C   UNL     1      34.353   1.726  14.701  0.00  0.00    +0.000 A 
ATOM      7  C   UNL     1      33.767  -0.406  15.430  0.00  0.00    +0.000 A 
ATOM      8  C   UNL     1      33.845   0.388  14.544  0.00  0.00    +0.000 A 
ATOM      9  H   UNL     1      35.113   2.905  16.215  0.00  0.00    +0.000 HD
ATOM     10  H   UNL     1      34.050  -0.884  17.408  0.00  0.00    +0.000 HD
ENDROOT
TORSDOF 0
ENDMDL
MODEL 5
REMARK VINA RESULT:      -4.0      1.997      2.821
REMARK  Name = 1174_Uracil.pdbqt.pdb
REMARK  0 active torsions:
REMARK  status: ('A' for Active; 'I' for Inactive)
REMARK                            x       y       z     vdW  Elec       q    Type
REMARK                         _______ _______ _______ _____ _____    ______ ____
ROOT
ATOM      1  O   UNL     1      33.179  -0.615  14.617  0.00  0.00    +0.000 OA
ATOM      2  O   UNL     1      34.941   2.474  17.587  0.00  0.00    +0.000 OA
ATOM      3  N   UNL     1      34.018   0.898  16.149  0.00  0.00    +0.000 N 
ATOM      4  N   UNL     1      34.750   0.930  13.923  0.00  0.00    +0.000 N 
ATOM      5  C   UNL     1      33.920   0.325  14.872  0.00  0.00    +0.000 A 
ATOM      6  C   UNL     1      34.849   1.967  16.479  0.00  0.00    +0.000 A 
ATOM      7  C   UNL     1      35.544   1.960  14.258  0.00  0.00    +0.000 A 
ATOM      8  C   UNL     1      35.612   2.432  15.350  0.00  0.00    +0.000 A 
ATOM      9  H   UNL     1      33.446   0.507  16.879  0.00  0.00    +0.000 HD
ATOM     10  H   UNL     1      34.736   0.574  12.975  0.00  0.00    +0.000 HD
ENDROOT
TORSDOF 0
ENDMDL
MODEL 6
REMARK VINA RESULT:      -3.7      6.298      7.158
REMARK  Name = 1174_Uracil.pdbqt.pdb
REMARK  0 active torsions:
REMARK  status: ('A' for Active; 'I' for Inactive)
REMARK                            x       y       z     vdW  Elec       q    Type
REMARK                         _______ _______ _______ _____ _____    ______ ____
ROOT
ATOM      1  O   UNL     1      39.990  -1.963   9.689  0.00  0.00    +0.000 OA
ATOM      2  O   UNL     1      36.039   0.079   8.388  0.00  0.00    +0.000 OA
ATOM      3  N   UNL     1      38.029  -0.970   8.976  0.00  0.00    +0.000 N 
ATOM      4  N   UNL     1      38.738  -0.740  11.198  0.00  0.00    +0.000 N 
ATOM      5  C   UNL     1      39.003  -1.282   9.935  0.00  0.00    +0.000 A 
ATOM      6  C   UNL     1      36.893  -0.199   9.216  0.00  0.00    +0.000 A 
ATOM      7  C   UNL     1      37.638   0.001  11.413  0.00  0.00    +0.000 A 
ATOM      8  C   UNL     1      36.822   0.254  10.581  0.00  0.00    +0.000 A 
ATOM      9  H   UNL     1      38.161  -1.330   8.045  0.00  0.00    +0.000 HD
ATOM     10  H   UNL     1      39.395  -0.920  11.946  0.00  0.00    +0.000 HD
ENDROOT
TORSDOF 0
ENDMDL
MODEL 7
REMARK VINA RESULT:      -3.7     18.822     19.795
REMARK  Name = 1174_Uracil.pdbqt.pdb
REMARK  0 active torsions:
REMARK  status: ('A' for Active; 'I' for Inactive)
REMARK                            x       y       z     vdW  Elec       q    Type
REMARK                         _______ _______ _______ _____ _____    ______ ____
ROOT
ATOM      1  O   UNL     1      23.614 -10.274  25.493  0.00  0.00    +0.000 OA
ATOM      2  O   UNL     1      20.474 -13.239  23.814  0.00  0.00    +0.000 OA
ATOM      3  N   UNL     1      22.099 -11.801  24.648  0.00  0.00    +0.000 N 
ATOM      4  N   UNL     1      21.392  -9.668  25.313  0.00  0.00    +0.000 N 
ATOM      5  C   UNL     1      22.465 -10.555  25.178  0.00  0.00    +0.000 A 
ATOM      6  C   UNL     1      20.804 -12.159  24.278  0.00  0.00    +0.000 A 
ATOM      7  C   UNL     1      20.149 -10.028  24.951  0.00  0.00    +0.000 A 
ATOM      8  C   UNL     1      19.861 -11.094  24.502  0.00  0.00    +0.000 A 
ATOM      9  H   UNL     1      22.826 -12.486  24.525  0.00  0.00    +0.000 HD
ATOM     10  H   UNL     1      21.574  -8.746  25.689  0.00  0.00    +0.000 HD
ENDROOT
TORSDOF 0
ENDMDL
MODEL 8
REMARK VINA RESULT:      -3.6      6.459      7.262
REMARK  Name = 1174_Uracil.pdbqt.pdb
REMARK  0 active torsions:
REMARK  status: ('A' for Active; 'I' for Inactive)
REMARK                            x       y       z     vdW  Elec       q    Type
REMARK                         _______ _______ _______ _____ _____    ______ ____
ROOT
ATOM      1  O   UNL     1      38.106   1.803   7.219  0.00  0.00    +0.000 OA
ATOM      2  O   UNL     1      36.763   0.779  11.534  0.00  0.00    +0.000 OA
ATOM      3  N   UNL     1      37.445   1.360   9.389  0.00  0.00    +0.000 N 
ATOM      4  N   UNL     1      37.521  -0.357   7.795  0.00  0.00    +0.000 N 
ATOM      5  C   UNL     1      37.723   1.002   8.062  0.00  0.00    +0.000 A 
ATOM      6  C   UNL     1      37.007   0.479  10.376  0.00  0.00    +0.000 A 
ATOM      7  C   UNL     1      37.099  -1.193   8.758  0.00  0.00    +0.000 A 
ATOM      8  C   UNL     1      36.869  -0.866   9.881  0.00  0.00    +0.000 A 
ATOM      9  H   UNL     1      37.570   2.325   9.646  0.00  0.00    +0.000 HD
ATOM     10  H   UNL     1      37.701  -0.695   6.858  0.00  0.00    +0.000 HD
ENDROOT
TORSDOF 0
ENDMDL
MODEL 9
REMARK VINA RESULT:      -3.6     13.397     14.255
REMARK  Name = 1174_Uracil.pdbqt.pdb
REMARK  0 active torsions:
REMARK  status: ('A' for Active; 'I' for Inactive)
REMARK                            x       y       z     vdW  Elec       q    Type
REMARK                         _______ _______ _______ _____ _____    ______ ____
ROOT
ATOM      1  O   UNL     1      23.468  -3.507   5.002  0.00  0.00    +0.000 OA
ATOM      2  O   UNL     1      26.276  -0.046   3.731  0.00  0.00    +0.000 OA
ATOM      3  N   UNL     1      24.856  -1.797   4.301  0.00  0.00    +0.000 N 
ATOM      4  N   UNL     1      24.518  -2.192   6.586  0.00  0.00    +0.000 N 
ATOM      5  C   UNL     1      24.217  -2.578   5.275  0.00  0.00    +0.000 A 
ATOM      6  C   UNL     1      25.714  -0.732   4.571  0.00  0.00    +0.000 A 
ATOM      7  C   UNL     1      25.347  -1.164   6.829  0.00  0.00    +0.000 A 
ATOM      8  C   UNL     1      25.879  -0.513   5.984  0.00  0.00    +0.000 A 
ATOM      9  H   UNL     1      24.681  -2.023   3.335  0.00  0.00    +0.000 HD
ATOM     10  H   UNL     1      24.095  -2.708   7.347  0.00  0.00    +0.000 HD
ENDROOT
TORSDOF 0
ENDMDL
