MODEL 1
REMARK VINA RESULT:      -5.8      0.000      0.000
REMARK  Name = 122178712_SalternamideA.pdbqt.pdb
REMARK  8 active torsions:
REMARK  status: ('A' for Active; 'I' for Inactive)
REMARK    1  A    between atoms: C_3  and  O_24
REMARK    2  A    between atoms: C_3  and  C_26
REMARK    3  A    between atoms: C_6  and  N_10
REMARK    4  A    between atoms: C_11  and  C_14
REMARK    5  A    between atoms: C_13  and  C_15
REMARK    6  A    between atoms: C_27  and  C_28
REMARK    7  A    between atoms: C_29  and  C_31
REMARK    8  A    between atoms: C_31  and  O_32
REMARK                            x       y       z     vdW  Elec       q    Type
REMARK                         _______ _______ _______ _____ _____    ______ ____
ROOT
ATOM      1 CL   UNL     1      51.606   6.022  32.761  0.00  0.00    +0.000 Cl
ATOM      2  O   UNL     1      51.118   4.729  35.595  0.00  0.00    +0.000 OA
ATOM      3  C   UNL     1      49.440   2.614  32.237  0.00  0.00    +0.000 C 
ATOM      4  C   UNL     1      49.464   2.297  33.675  0.00  0.00    +0.000 C 
ATOM      5  C   UNL     1      50.174   3.890  32.287  0.00  0.00    +0.000 C 
ATOM      6  C   UNL     1      49.905   2.817  34.784  0.00  0.00    +0.000 C 
ATOM      7  C   UNL     1      50.715   4.648  33.195  0.00  0.00    +0.000 C 
ATOM      8  C   UNL     1      50.640   4.153  34.626  0.00  0.00    +0.000 C 
ENDROOT
BRANCH   6  10
ATOM      9  O   UNL     1      51.903   1.423  36.400  0.00  0.00    +0.000 OA
ATOM     10  N   UNL     1      49.776   2.280  36.039  0.00  0.00    +0.000 N 
ATOM     11  C   UNL     1      50.753   1.634  36.755  0.00  0.00    +0.000 C 
ATOM     12  H   UNL     1      48.855   2.380  36.461  0.00  0.00    +0.000 HD
BRANCH  11  14
ATOM     13  C   UNL     1      49.996   0.773  39.139  0.00  0.00    +0.000 C 
ATOM     14  C   UNL     1      50.339   1.171  38.059  0.00  0.00    +0.000 C 
BRANCH  13  15
ATOM     15  C   UNL     1      49.597   0.297  40.413  0.00  0.00    +0.000 C 
ATOM     16  C   UNL     1      49.091   1.296  41.414  0.00  0.00    +0.000 C 
ATOM     17  C   UNL     1      49.688  -1.044  40.834  0.00  0.00    +0.000 C 
ATOM     18  C   UNL     1      49.770  -2.383  41.268  0.00  0.00    +0.000 C 
ATOM     19  C   UNL     1      49.893  -3.446  40.217  0.00  0.00    +0.000 C 
ATOM     20  C   UNL     1      49.769  -2.788  42.613  0.00  0.00    +0.000 C 
ATOM     21  C   UNL     1      49.775  -3.161  43.847  0.00  0.00    +0.000 C 
ATOM     22  C   UNL     1      48.475  -3.424  44.542  0.00  0.00    +0.000 C 
ATOM     23  C   UNL     1      51.026  -2.997  44.653  0.00  0.00    +0.000 C 
ENDBRANCH  13  15
ENDBRANCH  11  14
ENDBRANCH   6  10
BRANCH   3  24
ATOM     24  O   UNL     1      48.109   2.860  31.835  0.00  0.00    +0.000 OA
ATOM     25  H   UNL     1      47.547   2.356  32.448  0.00  0.00    +0.000 HD
ENDBRANCH   3  24
BRANCH   3  26
ATOM     26  C   UNL     1      50.054   1.602  31.386  0.00  0.00    +0.000 C 
ATOM     27  C   UNL     1      50.693   0.536  30.492  0.00  0.00    +0.000 C 
BRANCH  27  28
ATOM     28  C   UNL     1      51.328  -0.532  29.598  0.00  0.00    +0.000 C 
ATOM     29  C   UNL     1      51.962  -1.603  28.704  0.00  0.00    +0.000 C 
BRANCH  29  31
ATOM     30  O   UNL     1      53.754  -2.705  27.688  0.00  0.00    +0.000 OA
ATOM     31  C   UNL     1      52.553  -2.603  27.869  0.00  0.00    +0.000 C 
BRANCH  31  32
ATOM     32  O   UNL     1      51.663  -3.431  27.293  0.00  0.00    +0.000 OA
ATOM     33  H   UNL     1      50.913  -2.843  27.068  0.00  0.00    +0.000 HD
ENDBRANCH  31  32
ENDBRANCH  29  31
ENDBRANCH  27  28
ENDBRANCH   3  26
TORSDOF 8
ENDMDL
MODEL 2
REMARK VINA RESULT:      -5.7     32.743     35.134
REMARK  Name = 122178712_SalternamideA.pdbqt.pdb
REMARK  8 active torsions:
REMARK  status: ('A' for Active; 'I' for Inactive)
REMARK    1  A    between atoms: C_3  and  O_24
REMARK    2  A    between atoms: C_3  and  C_26
REMARK    3  A    between atoms: C_6  and  N_10
REMARK    4  A    between atoms: C_11  and  C_14
REMARK    5  A    between atoms: C_13  and  C_15
REMARK    6  A    between atoms: C_27  and  C_28
REMARK    7  A    between atoms: C_29  and  C_31
REMARK    8  A    between atoms: C_31  and  O_32
REMARK                            x       y       z     vdW  Elec       q    Type
REMARK                         _______ _______ _______ _____ _____    ______ ____
ROOT
ATOM      1 CL   UNL     1      13.791   2.573  39.756  0.00  0.00    +0.000 Cl
ATOM      2  O   UNL     1      13.801   2.078  42.870  0.00  0.00    +0.000 OA
ATOM      3  C   UNL     1      17.665   2.445  41.001  0.00  0.00    +0.000 C 
ATOM      4  C   UNL     1      17.278   2.267  42.410  0.00  0.00    +0.000 C 
ATOM      5  C   UNL     1      16.317   2.463  40.409  0.00  0.00    +0.000 C 
ATOM      6  C   UNL     1      16.193   2.132  43.117  0.00  0.00    +0.000 C 
ATOM      7  C   UNL     1      15.089   2.351  40.822  0.00  0.00    +0.000 C 
ATOM      8  C   UNL     1      14.888   2.174  42.314  0.00  0.00    +0.000 C 
ENDROOT
BRANCH   6  10
ATOM      9  O   UNL     1      17.583   3.621  45.215  0.00  0.00    +0.000 OA
ATOM     10  N   UNL     1      16.126   1.972  44.477  0.00  0.00    +0.000 N 
ATOM     11  C   UNL     1      16.803   2.703  45.421  0.00  0.00    +0.000 C 
ATOM     12  H   UNL     1      15.507   1.228  44.795  0.00  0.00    +0.000 HD
BRANCH  11  14
ATOM     13  C   UNL     1      16.331   1.999  47.927  0.00  0.00    +0.000 C 
ATOM     14  C   UNL     1      16.538   2.318  46.787  0.00  0.00    +0.000 C 
BRANCH  13  15
ATOM     15  C   UNL     1      16.092   1.630  49.273  0.00  0.00    +0.000 C 
ATOM     16  C   UNL     1      15.653   0.220  49.553  0.00  0.00    +0.000 C 
ATOM     17  C   UNL     1      16.185   2.503  50.375  0.00  0.00    +0.000 C 
ATOM     18  C   UNL     1      16.277   3.364  51.487  0.00  0.00    +0.000 C 
ATOM     19  C   UNL     1      17.063   4.631  51.319  0.00  0.00    +0.000 C 
ATOM     20  C   UNL     1      15.665   3.132  52.730  0.00  0.00    +0.000 C 
ATOM     21  C   UNL     1      15.099   2.924  53.869  0.00  0.00    +0.000 C 
ATOM     22  C   UNL     1      15.821   2.133  54.916  0.00  0.00    +0.000 C 
ATOM     23  C   UNL     1      13.629   3.171  54.010  0.00  0.00    +0.000 C 
ENDBRANCH  13  15
ENDBRANCH  11  14
ENDBRANCH   6  10
BRANCH   3  24
ATOM     24  O   UNL     1      18.353   1.294  40.556  0.00  0.00    +0.000 OA
ATOM     25  H   UNL     1      19.287   1.553  40.484  0.00  0.00    +0.000 HD
ENDBRANCH   3  24
BRANCH   3  26
ATOM     26  C   UNL     1      18.451   3.644  40.738  0.00  0.00    +0.000 C 
ATOM     27  C   UNL     1      19.274   4.907  40.466  0.00  0.00    +0.000 C 
BRANCH  27  28
ATOM     28  C   UNL     1      20.094   6.172  40.197  0.00  0.00    +0.000 C 
ATOM     29  C   UNL     1      20.916   7.435  39.926  0.00  0.00    +0.000 C 
BRANCH  29  31
ATOM     30  O   UNL     1      21.511   9.335  38.702  0.00  0.00    +0.000 OA
ATOM     31  C   UNL     1      21.683   8.616  39.671  0.00  0.00    +0.000 C 
BRANCH  31  32
ATOM     32  O   UNL     1      22.621   8.870  40.601  0.00  0.00    +0.000 OA
ATOM     33  H   UNL     1      22.159   8.700  41.448  0.00  0.00    +0.000 HD
ENDBRANCH  31  32
ENDBRANCH  29  31
ENDBRANCH  27  28
ENDBRANCH   3  26
TORSDOF 8
ENDMDL
MODEL 3
REMARK VINA RESULT:      -5.6     39.330     41.594
REMARK  Name = 122178712_SalternamideA.pdbqt.pdb
REMARK  8 active torsions:
REMARK  status: ('A' for Active; 'I' for Inactive)
REMARK    1  A    between atoms: C_3  and  O_24
REMARK    2  A    between atoms: C_3  and  C_26
REMARK    3  A    between atoms: C_6  and  N_10
REMARK    4  A    between atoms: C_11  and  C_14
REMARK    5  A    between atoms: C_13  and  C_15
REMARK    6  A    between atoms: C_27  and  C_28
REMARK    7  A    between atoms: C_29  and  C_31
REMARK    8  A    between atoms: C_31  and  O_32
REMARK                            x       y       z     vdW  Elec       q    Type
REMARK                         _______ _______ _______ _____ _____    ______ ____
ROOT
ATOM      1 CL   UNL     1      24.530 -11.222   5.109  0.00  0.00    +0.000 Cl
ATOM      2  O   UNL     1      22.576 -10.691   7.525  0.00  0.00    +0.000 OA
ATOM      3  C   UNL     1      22.839 -14.771   6.167  0.00  0.00    +0.000 C 
ATOM      4  C   UNL     1      22.091 -14.161   7.278  0.00  0.00    +0.000 C 
ATOM      5  C   UNL     1      23.484 -13.553   5.649  0.00  0.00    +0.000 C 
ATOM      6  C   UNL     1      21.901 -12.983   7.800  0.00  0.00    +0.000 C 
ATOM      7  C   UNL     1      23.494 -12.282   5.928  0.00  0.00    +0.000 C 
ATOM      8  C   UNL     1      22.659 -11.841   7.113  0.00  0.00    +0.000 C 
ENDROOT
BRANCH   6  10
ATOM      9  O   UNL     1      19.181 -11.913   7.859  0.00  0.00    +0.000 OA
ATOM     10  N   UNL     1      21.112 -12.694   8.883  0.00  0.00    +0.000 N 
ATOM     11  C   UNL     1      19.835 -12.191   8.853  0.00  0.00    +0.000 C 
ATOM     12  H   UNL     1      21.537 -12.876   9.790  0.00  0.00    +0.000 HD
BRANCH  11  14
ATOM     13  C   UNL     1      18.751 -11.815  11.237  0.00  0.00    +0.000 C 
ATOM     14  C   UNL     1      19.236 -11.985  10.151  0.00  0.00    +0.000 C 
BRANCH  13  15
ATOM     15  C   UNL     1      18.185 -11.609  12.519  0.00  0.00    +0.000 C 
ATOM     16  C   UNL     1      17.224 -12.638  13.042  0.00  0.00    +0.000 C 
ATOM     17  C   UNL     1      18.416 -10.478  13.327  0.00  0.00    +0.000 C 
ATOM     18  C   UNL     1      18.641  -9.355  14.148  0.00  0.00    +0.000 C 
ATOM     19  C   UNL     1      19.852  -8.517  13.860  0.00  0.00    +0.000 C 
ATOM     20  C   UNL     1      17.800  -8.952  15.198  0.00  0.00    +0.000 C 
ATOM     21  C   UNL     1      17.025  -8.577  16.158  0.00  0.00    +0.000 C 
ATOM     22  C   UNL     1      17.234  -9.135  17.532  0.00  0.00    +0.000 C 
ATOM     23  C   UNL     1      15.744  -7.874  15.831  0.00  0.00    +0.000 C 
ENDBRANCH  13  15
ENDBRANCH  11  14
ENDBRANCH   6  10
BRANCH   3  24
ATOM     24  O   UNL     1      21.929 -15.260   5.204  0.00  0.00    +0.000 OA
ATOM     25  H   UNL     1      22.472 -15.651   4.498  0.00  0.00    +0.000 HD
ENDBRANCH   3  24
BRANCH   3  26
ATOM     26  C   UNL     1      23.770 -15.818   6.569  0.00  0.00    +0.000 C 
ATOM     27  C   UNL     1      24.748 -16.916   6.997  0.00  0.00    +0.000 C 
BRANCH  27  28
ATOM     28  C   UNL     1      25.725 -18.013   7.430  0.00  0.00    +0.000 C 
ATOM     29  C   UNL     1      26.704 -19.109   7.861  0.00  0.00    +0.000 C 
BRANCH  29  31
ATOM     30  O   UNL     1      27.430 -21.320   8.070  0.00  0.00    +0.000 OA
ATOM     31  C   UNL     1      27.619 -20.132   8.265  0.00  0.00    +0.000 C 
BRANCH  31  32
ATOM     32  O   UNL     1      28.719 -19.668   8.885  0.00  0.00    +0.000 OA
ATOM     33  H   UNL     1      29.335 -20.429   8.863  0.00  0.00    +0.000 HD
ENDBRANCH  31  32
ENDBRANCH  29  31
ENDBRANCH  27  28
ENDBRANCH   3  26
TORSDOF 8
ENDMDL
MODEL 4
REMARK VINA RESULT:      -5.6     20.290     22.379
REMARK  Name = 122178712_SalternamideA.pdbqt.pdb
REMARK  8 active torsions:
REMARK  status: ('A' for Active; 'I' for Inactive)
REMARK    1  A    between atoms: C_3  and  O_24
REMARK    2  A    between atoms: C_3  and  C_26
REMARK    3  A    between atoms: C_6  and  N_10
REMARK    4  A    between atoms: C_11  and  C_14
REMARK    5  A    between atoms: C_13  and  C_15
REMARK    6  A    between atoms: C_27  and  C_28
REMARK    7  A    between atoms: C_29  and  C_31
REMARK    8  A    between atoms: C_31  and  O_32
REMARK                            x       y       z     vdW  Elec       q    Type
REMARK                         _______ _______ _______ _____ _____    ______ ____
ROOT
ATOM      1 CL   UNL     1      42.453  25.354  27.349  0.00  0.00    +0.000 Cl
ATOM      2  O   UNL     1      43.248  24.953  30.374  0.00  0.00    +0.000 OA
ATOM      3  C   UNL     1      43.089  21.381  27.971  0.00  0.00    +0.000 C 
ATOM      4  C   UNL     1      43.466  21.592  29.379  0.00  0.00    +0.000 C 
ATOM      5  C   UNL     1      42.780  22.777  27.620  0.00  0.00    +0.000 C 
ATOM      6  C   UNL     1      43.554  22.572  30.231  0.00  0.00    +0.000 C 
ATOM      7  C   UNL     1      42.763  23.933  28.217  0.00  0.00    +0.000 C 
ATOM      8  C   UNL     1      43.185  23.951  29.673  0.00  0.00    +0.000 C 
ENDROOT
BRANCH   6  10
ATOM      9  O   UNL     1      46.243  22.215  31.321  0.00  0.00    +0.000 OA
ATOM     10  N   UNL     1      43.947  22.474  31.541  0.00  0.00    +0.000 N 
ATOM     11  C   UNL     1      45.231  22.307  31.999  0.00  0.00    +0.000 C 
ATOM     12  H   UNL     1      43.195  22.532  32.224  0.00  0.00    +0.000 HD
BRANCH  11  14
ATOM     13  C   UNL     1      45.467  22.195  34.631  0.00  0.00    +0.000 C 
ATOM     14  C   UNL     1      45.355  22.240  33.436  0.00  0.00    +0.000 C 
BRANCH  13  15
ATOM     15  C   UNL     1      45.601  22.149  36.041  0.00  0.00    +0.000 C 
ATOM     16  C   UNL     1      46.983  22.229  36.624  0.00  0.00    +0.000 C 
ATOM     17  C   UNL     1      44.533  21.982  36.944  0.00  0.00    +0.000 C 
ATOM     18  C   UNL     1      43.474  21.818  37.860  0.00  0.00    +0.000 C 
ATOM     19  C   UNL     1      42.086  22.118  37.375  0.00  0.00    +0.000 C 
ATOM     20  C   UNL     1      43.624  21.371  39.183  0.00  0.00    +0.000 C 
ATOM     21  C   UNL     1      43.759  20.955  40.396  0.00  0.00    +0.000 C 
ATOM     22  C   UNL     1      44.031  21.944  41.487  0.00  0.00    +0.000 C 
ATOM     23  C   UNL     1      43.981  19.496  40.646  0.00  0.00    +0.000 C 
ENDBRANCH  13  15
ENDBRANCH  11  14
ENDBRANCH   6  10
BRANCH   3  24
ATOM     24  O   UNL     1      41.905  20.614  27.913  0.00  0.00    +0.000 OA
ATOM     25  H   UNL     1      41.181  21.223  28.142  0.00  0.00    +0.000 HD
ENDBRANCH   3  24
BRANCH   3  26
ATOM     26  C   UNL     1      44.132  20.774  27.153  0.00  0.00    +0.000 C 
ATOM     27  C   UNL     1      45.228  20.141  26.290  0.00  0.00    +0.000 C 
BRANCH  27  28
ATOM     28  C   UNL     1      46.325  19.512  25.427  0.00  0.00    +0.000 C 
ATOM     29  C   UNL     1      47.423  18.886  24.562  0.00  0.00    +0.000 C 
BRANCH  29  31
ATOM     30  O   UNL     1      48.757  18.717  22.650  0.00  0.00    +0.000 OA
ATOM     31  C   UNL     1      48.450  18.301  23.754  0.00  0.00    +0.000 C 
BRANCH  31  32
ATOM     32  O   UNL     1      49.055  17.243  24.322  0.00  0.00    +0.000 OA
ATOM     33  H   UNL     1      49.497  16.799  23.569  0.00  0.00    +0.000 HD
ENDBRANCH  31  32
ENDBRANCH  29  31
ENDBRANCH  27  28
ENDBRANCH   3  26
TORSDOF 8
ENDMDL
MODEL 5
REMARK VINA RESULT:      -5.3      7.000     10.029
REMARK  Name = 122178712_SalternamideA.pdbqt.pdb
REMARK  8 active torsions:
REMARK  status: ('A' for Active; 'I' for Inactive)
REMARK    1  A    between atoms: C_3  and  O_24
REMARK    2  A    between atoms: C_3  and  C_26
REMARK    3  A    between atoms: C_6  and  N_10
REMARK    4  A    between atoms: C_11  and  C_14
REMARK    5  A    between atoms: C_13  and  C_15
REMARK    6  A    between atoms: C_27  and  C_28
REMARK    7  A    between atoms: C_29  and  C_31
REMARK    8  A    between atoms: C_31  and  O_32
REMARK                            x       y       z     vdW  Elec       q    Type
REMARK                         _______ _______ _______ _____ _____    ______ ____
ROOT
ATOM      1 CL   UNL     1      50.007 -12.476  30.709  0.00  0.00    +0.000 Cl
ATOM      2  O   UNL     1      49.281 -10.252  32.823  0.00  0.00    +0.000 OA
ATOM      3  C   UNL     1      52.921  -9.635  30.602  0.00  0.00    +0.000 C 
ATOM      4  C   UNL     1      52.244  -8.805  31.612  0.00  0.00    +0.000 C 
ATOM      5  C   UNL     1      51.968 -10.757  30.573  0.00  0.00    +0.000 C 
ATOM      6  C   UNL     1      51.180  -8.849  32.362  0.00  0.00    +0.000 C 
ATOM      7  C   UNL     1      50.864 -11.091  31.175  0.00  0.00    +0.000 C 
ATOM      8  C   UNL     1      50.318 -10.105  32.187  0.00  0.00    +0.000 C 
ENDROOT
BRANCH   6  10
ATOM      9  O   UNL     1      50.061  -6.200  31.840  0.00  0.00    +0.000 OA
ATOM     10  N   UNL     1      50.779  -7.892  33.257  0.00  0.00    +0.000 N 
ATOM     11  C   UNL     1      50.256  -6.659  32.956  0.00  0.00    +0.000 C 
ATOM     12  H   UNL     1      50.890  -8.143  34.238  0.00  0.00    +0.000 HD
BRANCH  11  14
ATOM     13  C   UNL     1      49.635  -5.189  35.066  0.00  0.00    +0.000 C 
ATOM     14  C   UNL     1      49.914  -5.852  34.103  0.00  0.00    +0.000 C 
BRANCH  13  15
ATOM     15  C   UNL     1      49.314  -4.410  36.204  0.00  0.00    +0.000 C 
ATOM     16  C   UNL     1      47.999  -4.661  36.886  0.00  0.00    +0.000 C 
ATOM     17  C   UNL     1      50.116  -3.373  36.720  0.00  0.00    +0.000 C 
ATOM     18  C   UNL     1      50.910  -2.335  37.250  0.00  0.00    +0.000 C 
ATOM     19  C   UNL     1      52.359  -2.306  36.863  0.00  0.00    +0.000 C 
ATOM     20  C   UNL     1      50.435  -1.317  38.092  0.00  0.00    +0.000 C 
ATOM     21  C   UNL     1      49.999  -0.378  38.860  0.00  0.00    +0.000 C 
ATOM     22  C   UNL     1      49.978  -0.589  40.342  0.00  0.00    +0.000 C 
ATOM     23  C   UNL     1      49.217   0.751  38.262  0.00  0.00    +0.000 C 
ENDBRANCH  13  15
ENDBRANCH  11  14
ENDBRANCH   6  10
BRANCH   3  24
ATOM     24  O   UNL     1      54.155 -10.087  31.118  0.00  0.00    +0.000 OA
ATOM     25  H   UNL     1      54.681 -10.364  30.349  0.00  0.00    +0.000 HD
ENDBRANCH   3  24
BRANCH   3  26
ATOM     26  C   UNL     1      53.115  -8.979  29.314  0.00  0.00    +0.000 C 
ATOM     27  C   UNL     1      53.313  -8.288  27.962  0.00  0.00    +0.000 C 
BRANCH  27  28
ATOM     28  C   UNL     1      53.507  -7.594  26.611  0.00  0.00    +0.000 C 
ATOM     29  C   UNL     1      53.701  -6.904  25.258  0.00  0.00    +0.000 C 
BRANCH  29  31
ATOM     30  O   UNL     1      54.224  -5.095  23.874  0.00  0.00    +0.000 OA
ATOM     31  C   UNL     1      53.882  -6.258  23.993  0.00  0.00    +0.000 C 
BRANCH  31  32
ATOM     32  O   UNL     1      53.639  -7.052  22.934  0.00  0.00    +0.000 OA
ATOM     33  H   UNL     1      53.804  -7.953  23.279  0.00  0.00    +0.000 HD
ENDBRANCH  31  32
ENDBRANCH  29  31
ENDBRANCH  27  28
ENDBRANCH   3  26
TORSDOF 8
ENDMDL
MODEL 6
REMARK VINA RESULT:      -5.3     31.439     33.575
REMARK  Name = 122178712_SalternamideA.pdbqt.pdb
REMARK  8 active torsions:
REMARK  status: ('A' for Active; 'I' for Inactive)
REMARK    1  A    between atoms: C_3  and  O_24
REMARK    2  A    between atoms: C_3  and  C_26
REMARK    3  A    between atoms: C_6  and  N_10
REMARK    4  A    between atoms: C_11  and  C_14
REMARK    5  A    between atoms: C_13  and  C_15
REMARK    6  A    between atoms: C_27  and  C_28
REMARK    7  A    between atoms: C_29  and  C_31
REMARK    8  A    between atoms: C_31  and  O_32
REMARK                            x       y       z     vdW  Elec       q    Type
REMARK                         _______ _______ _______ _____ _____    ______ ____
ROOT
ATOM      1 CL   UNL     1      22.344  26.085  32.652  0.00  0.00    +0.000 Cl
ATOM      2  O   UNL     1      22.093  23.797  34.806  0.00  0.00    +0.000 OA
ATOM      3  C   UNL     1      24.078  22.729  31.135  0.00  0.00    +0.000 C 
ATOM      4  C   UNL     1      23.826  21.960  32.365  0.00  0.00    +0.000 C 
ATOM      5  C   UNL     1      23.442  23.994  31.538  0.00  0.00    +0.000 C 
ATOM      6  C   UNL     1      23.251  22.125  33.521  0.00  0.00    +0.000 C 
ATOM      7  C   UNL     1      22.804  24.457  32.573  0.00  0.00    +0.000 C 
ATOM      8  C   UNL     1      22.643  23.514  33.749  0.00  0.00    +0.000 C 
ENDROOT
BRANCH   6  10
ATOM      9  O   UNL     1      21.094  20.231  34.072  0.00  0.00    +0.000 OA
ATOM     10  N   UNL     1      23.158  21.193  34.521  0.00  0.00    +0.000 N 
ATOM     11  C   UNL     1      22.118  20.323  34.734  0.00  0.00    +0.000 C 
ATOM     12  H   UNL     1      23.951  21.161  35.159  0.00  0.00    +0.000 HD
BRANCH  11  14
ATOM     13  C   UNL     1      22.419  18.703  36.804  0.00  0.00    +0.000 C 
ATOM     14  C   UNL     1      22.288  19.443  35.866  0.00  0.00    +0.000 C 
BRANCH  13  15
ATOM     15  C   UNL     1      22.570  17.825  37.905  0.00  0.00    +0.000 C 
ATOM     16  C   UNL     1      22.751  16.360  37.622  0.00  0.00    +0.000 C 
ATOM     17  C   UNL     1      22.512  18.215  39.257  0.00  0.00    +0.000 C 
ATOM     18  C   UNL     1      22.460  18.591  40.615  0.00  0.00    +0.000 C 
ATOM     19  C   UNL     1      22.669  20.041  40.940  0.00  0.00    +0.000 C 
ATOM     20  C   UNL     1      22.203  17.711  41.678  0.00  0.00    +0.000 C 
ATOM     21  C   UNL     1      21.960  16.905  42.655  0.00  0.00    +0.000 C 
ATOM     22  C   UNL     1      23.094  16.174  43.305  0.00  0.00    +0.000 C 
ATOM     23  C   UNL     1      20.553  16.455  42.898  0.00  0.00    +0.000 C 
ENDBRANCH  13  15
ENDBRANCH  11  14
ENDBRANCH   6  10
BRANCH   3  24
ATOM     24  O   UNL     1      23.346  22.160  30.069  0.00  0.00    +0.000 OA
ATOM     25  H   UNL     1      23.927  21.486  29.676  0.00  0.00    +0.000 HD
ENDBRANCH   3  24
BRANCH   3  26
ATOM     26  C   UNL     1      25.486  22.853  30.779  0.00  0.00    +0.000 C 
ATOM     27  C   UNL     1      26.967  22.978  30.409  0.00  0.00    +0.000 C 
BRANCH  27  28
ATOM     28  C   UNL     1      28.448  23.099  30.041  0.00  0.00    +0.000 C 
ATOM     29  C   UNL     1      29.929  23.221  29.669  0.00  0.00    +0.000 C 
BRANCH  29  31
ATOM     30  O   UNL     1      31.717  23.981  28.370  0.00  0.00    +0.000 OA
ATOM     31  C   UNL     1      31.313  23.337  29.322  0.00  0.00    +0.000 C 
BRANCH  31  32
ATOM     32  O   UNL     1      32.140  22.667  30.145  0.00  0.00    +0.000 OA
ATOM     33  H   UNL     1      32.271  23.284  30.893  0.00  0.00    +0.000 HD
ENDBRANCH  31  32
ENDBRANCH  29  31
ENDBRANCH  27  28
ENDBRANCH   3  26
TORSDOF 8
ENDMDL
MODEL 7
REMARK VINA RESULT:      -5.1      7.391      8.897
REMARK  Name = 122178712_SalternamideA.pdbqt.pdb
REMARK  8 active torsions:
REMARK  status: ('A' for Active; 'I' for Inactive)
REMARK    1  A    between atoms: C_3  and  O_24
REMARK    2  A    between atoms: C_3  and  C_26
REMARK    3  A    between atoms: C_6  and  N_10
REMARK    4  A    between atoms: C_11  and  C_14
REMARK    5  A    between atoms: C_13  and  C_15
REMARK    6  A    between atoms: C_27  and  C_28
REMARK    7  A    between atoms: C_29  and  C_31
REMARK    8  A    between atoms: C_31  and  O_32
REMARK                            x       y       z     vdW  Elec       q    Type
REMARK                         _______ _______ _______ _____ _____    ______ ____
ROOT
ATOM      1 CL   UNL     1      56.714   8.195  34.203  0.00  0.00    +0.000 Cl
ATOM      2  O   UNL     1      55.759   8.443  37.198  0.00  0.00    +0.000 OA
ATOM      3  C   UNL     1      52.713   8.949  34.192  0.00  0.00    +0.000 C 
ATOM      4  C   UNL     1      52.639   8.943  35.663  0.00  0.00    +0.000 C 
ATOM      5  C   UNL     1      54.162   8.725  34.050  0.00  0.00    +0.000 C 
ATOM      6  C   UNL     1      53.439   8.818  36.683  0.00  0.00    +0.000 C 
ATOM      7  C   UNL     1      55.188   8.573  34.834  0.00  0.00    +0.000 C 
ATOM      8  C   UNL     1      54.913   8.595  36.325  0.00  0.00    +0.000 C 
ENDROOT
BRANCH   6  10
ATOM      9  O   UNL     1      52.450   6.657  38.385  0.00  0.00    +0.000 OA
ATOM     10  N   UNL     1      53.080   8.858  38.005  0.00  0.00    +0.000 N 
ATOM     11  C   UNL     1      52.621   7.808  38.760  0.00  0.00    +0.000 C 
ATOM     12  H   UNL     1      53.170   9.770  38.450  0.00  0.00    +0.000 HD
BRANCH  11  14
ATOM     13  C   UNL     1      52.060   8.403  41.276  0.00  0.00    +0.000 C 
ATOM     14  C   UNL     1      52.320   8.137  40.133  0.00  0.00    +0.000 C 
BRANCH  13  15
ATOM     15  C   UNL     1      51.751   8.708  42.624  0.00  0.00    +0.000 C 
ATOM     16  C   UNL     1      52.813   8.482  43.662  0.00  0.00    +0.000 C 
ATOM     17  C   UNL     1      50.497   9.161  43.078  0.00  0.00    +0.000 C 
ATOM     18  C   UNL     1      49.248   9.619  43.546  0.00  0.00    +0.000 C 
ATOM     19  C   UNL     1      48.308  10.215  42.541  0.00  0.00    +0.000 C 
ATOM     20  C   UNL     1      48.815   9.533  44.879  0.00  0.00    +0.000 C 
ATOM     21  C   UNL     1      48.413   9.449  46.102  0.00  0.00    +0.000 C 
ATOM     22  C   UNL     1      48.738  10.553  47.060  0.00  0.00    +0.000 C 
ATOM     23  C   UNL     1      47.938   8.129  46.625  0.00  0.00    +0.000 C 
ENDBRANCH  13  15
ENDBRANCH  11  14
ENDBRANCH   6  10
BRANCH   3  24
ATOM     24  O   UNL     1      52.393  10.238  33.713  0.00  0.00    +0.000 OA
ATOM     25  H   UNL     1      51.447  10.364  33.898  0.00  0.00    +0.000 HD
ENDBRANCH   3  24
BRANCH   3  26
ATOM     26  C   UNL     1      51.884   7.942  33.543  0.00  0.00    +0.000 C 
ATOM     27  C   UNL     1      51.011   6.887  32.856  0.00  0.00    +0.000 C 
BRANCH  27  28
ATOM     28  C   UNL     1      50.137   5.836  32.166  0.00  0.00    +0.000 C 
ATOM     29  C   UNL     1      49.265   4.784  31.474  0.00  0.00    +0.000 C 
BRANCH  29  31
ATOM     30  O   UNL     1      48.628   3.428  29.680  0.00  0.00    +0.000 OA
ATOM     31  C   UNL     1      48.451   3.801  30.827  0.00  0.00    +0.000 C 
BRANCH  31  32
ATOM     32  O   UNL     1      47.462   3.316  31.599  0.00  0.00    +0.000 OA
ATOM     33  H   UNL     1      46.688   3.299  31.000  0.00  0.00    +0.000 HD
ENDBRANCH  31  32
ENDBRANCH  29  31
ENDBRANCH  27  28
ENDBRANCH   3  26
TORSDOF 8
ENDMDL
MODEL 8
REMARK VINA RESULT:      -5.1     16.969     20.093
REMARK  Name = 122178712_SalternamideA.pdbqt.pdb
REMARK  8 active torsions:
REMARK  status: ('A' for Active; 'I' for Inactive)
REMARK    1  A    between atoms: C_3  and  O_24
REMARK    2  A    between atoms: C_3  and  C_26
REMARK    3  A    between atoms: C_6  and  N_10
REMARK    4  A    between atoms: C_11  and  C_14
REMARK    5  A    between atoms: C_13  and  C_15
REMARK    6  A    between atoms: C_27  and  C_28
REMARK    7  A    between atoms: C_29  and  C_31
REMARK    8  A    between atoms: C_31  and  O_32
REMARK                            x       y       z     vdW  Elec       q    Type
REMARK                         _______ _______ _______ _____ _____    ______ ____
ROOT
ATOM      1 CL   UNL     1      50.380   8.567  18.952  0.00  0.00    +0.000 Cl
ATOM      2  O   UNL     1      50.585   5.841  17.380  0.00  0.00    +0.000 OA
ATOM      3  C   UNL     1      48.014   5.843  20.837  0.00  0.00    +0.000 C 
ATOM      4  C   UNL     1      48.313   4.796  19.846  0.00  0.00    +0.000 C 
ATOM      5  C   UNL     1      48.867   6.909  20.287  0.00  0.00    +0.000 C 
ATOM      6  C   UNL     1      49.049   4.635  18.784  0.00  0.00    +0.000 C 
ATOM      7  C   UNL     1      49.691   7.057  19.291  0.00  0.00    +0.000 C 
ATOM      8  C   UNL     1      49.870   5.863  18.374  0.00  0.00    +0.000 C 
ENDROOT
BRANCH   6  10
ATOM      9  O   UNL     1      51.013   2.474  18.935  0.00  0.00    +0.000 OA
ATOM     10  N   UNL     1      49.139   3.498  18.024  0.00  0.00    +0.000 N 
ATOM     11  C   UNL     1      50.086   2.511  18.139  0.00  0.00    +0.000 C 
ATOM     12  H   UNL     1      48.422   3.398  17.308  0.00  0.00    +0.000 HD
BRANCH  11  14
ATOM     13  C   UNL     1      49.823   0.515  16.422  0.00  0.00    +0.000 C 
ATOM     14  C   UNL     1      49.936   1.419  17.206  0.00  0.00    +0.000 C 
BRANCH  13  15
ATOM     15  C   UNL     1      49.697  -0.551  15.498  0.00  0.00    +0.000 C 
ATOM     16  C   UNL     1      48.936  -0.299  14.227  0.00  0.00    +0.000 C 
ATOM     17  C   UNL     1      50.191  -1.854  15.703  0.00  0.00    +0.000 C 
ATOM     18  C   UNL     1      50.682  -3.162  15.893  0.00  0.00    +0.000 C 
ATOM     19  C   UNL     1      51.751  -3.357  16.927  0.00  0.00    +0.000 C 
ATOM     20  C   UNL     1      50.224  -4.295  15.200  0.00  0.00    +0.000 C 
ATOM     21  C   UNL     1      49.801  -5.337  14.571  0.00  0.00    +0.000 C 
ATOM     22  C   UNL     1      50.427  -5.711  13.263  0.00  0.00    +0.000 C 
ATOM     23  C   UNL     1      48.494  -5.949  14.968  0.00  0.00    +0.000 C 
ENDBRANCH  13  15
ENDBRANCH  11  14
ENDBRANCH   6  10
BRANCH   3  24
ATOM     24  O   UNL     1      48.516   5.450  22.098  0.00  0.00    +0.000 OA
ATOM     25  H   UNL     1      47.777   5.013  22.555  0.00  0.00    +0.000 HD
ENDBRANCH   3  24
BRANCH   3  26
ATOM     26  C   UNL     1      46.603   6.195  20.936  0.00  0.00    +0.000 C 
ATOM     27  C   UNL     1      45.121   6.566  21.033  0.00  0.00    +0.000 C 
BRANCH  27  28
ATOM     28  C   UNL     1      43.638   6.939  21.127  0.00  0.00    +0.000 C 
ATOM     29  C   UNL     1      42.156   7.312  21.224  0.00  0.00    +0.000 C 
BRANCH  29  31
ATOM     30  O   UNL     1      40.257   8.122  22.320  0.00  0.00    +0.000 OA
ATOM     31  C   UNL     1      40.771   7.662  21.315  0.00  0.00    +0.000 C 
BRANCH  31  32
ATOM     32  O   UNL     1      40.076   7.439  20.185  0.00  0.00    +0.000 OA
ATOM     33  H   UNL     1      40.340   8.179  19.601  0.00  0.00    +0.000 HD
ENDBRANCH  31  32
ENDBRANCH  29  31
ENDBRANCH  27  28
ENDBRANCH   3  26
TORSDOF 8
ENDMDL
MODEL 9
REMARK VINA RESULT:      -5.1     23.690     26.197
REMARK  Name = 122178712_SalternamideA.pdbqt.pdb
REMARK  8 active torsions:
REMARK  status: ('A' for Active; 'I' for Inactive)
REMARK    1  A    between atoms: C_3  and  O_24
REMARK    2  A    between atoms: C_3  and  C_26
REMARK    3  A    between atoms: C_6  and  N_10
REMARK    4  A    between atoms: C_11  and  C_14
REMARK    5  A    between atoms: C_13  and  C_15
REMARK    6  A    between atoms: C_27  and  C_28
REMARK    7  A    between atoms: C_29  and  C_31
REMARK    8  A    between atoms: C_31  and  O_32
REMARK                            x       y       z     vdW  Elec       q    Type
REMARK                         _______ _______ _______ _____ _____    ______ ____
ROOT
ATOM      1 CL   UNL     1      44.246   4.761   8.825  0.00  0.00    +0.000 Cl
ATOM      2  O   UNL     1      44.663   7.088  10.912  0.00  0.00    +0.000 OA
ATOM      3  C   UNL     1      40.658   5.533  10.587  0.00  0.00    +0.000 C 
ATOM      4  C   UNL     1      41.235   6.561  11.469  0.00  0.00    +0.000 C 
ATOM      5  C   UNL     1      41.876   5.187   9.836  0.00  0.00    +0.000 C 
ATOM      6  C   UNL     1      42.384   7.135  11.681  0.00  0.00    +0.000 C 
ATOM      7  C   UNL     1      43.121   5.564   9.804  0.00  0.00    +0.000 C 
ATOM      8  C   UNL     1      43.530   6.638  10.793  0.00  0.00    +0.000 C 
ENDROOT
BRANCH   6  10
ATOM      9  O   UNL     1      43.263   6.844  14.454  0.00  0.00    +0.000 OA
ATOM     10  N   UNL     1      42.645   8.110  12.609  0.00  0.00    +0.000 N 
ATOM     11  C   UNL     1      43.058   7.916  13.904  0.00  0.00    +0.000 C 
ATOM     12  H   UNL     1      42.509   9.065  12.284  0.00  0.00    +0.000 HD
BRANCH  11  14
ATOM     13  C   UNL     1      43.431  10.131  15.302  0.00  0.00    +0.000 C 
ATOM     14  C   UNL     1      43.262   9.129  14.661  0.00  0.00    +0.000 C 
BRANCH  13  15
ATOM     15  C   UNL     1      43.635  11.308  16.063  0.00  0.00    +0.000 C 
ATOM     16  C   UNL     1      42.972  11.404  17.409  0.00  0.00    +0.000 C 
ATOM     17  C   UNL     1      44.375  12.426  15.631  0.00  0.00    +0.000 C 
ATOM     18  C   UNL     1      45.115  13.551  15.213  0.00  0.00    +0.000 C 
ATOM     19  C   UNL     1      46.088  13.360  14.087  0.00  0.00    +0.000 C 
ATOM     20  C   UNL     1      44.987  14.838  15.759  0.00  0.00    +0.000 C 
ATOM     21  C   UNL     1      44.867  16.023  16.255  0.00  0.00    +0.000 C 
ATOM     22  C   UNL     1      45.690  16.410  17.444  0.00  0.00    +0.000 C 
ATOM     23  C   UNL     1      43.689  16.861  15.865  0.00  0.00    +0.000 C 
ENDBRANCH  13  15
ENDBRANCH  11  14
ENDBRANCH   6  10
BRANCH   3  24
ATOM     24  O   UNL     1      39.729   6.137   9.711  0.00  0.00    +0.000 OA
ATOM     25  H   UNL     1      40.094   6.026   8.817  0.00  0.00    +0.000 HD
ENDBRANCH   3  24
BRANCH   3  26
ATOM     26  C   UNL     1      40.045   4.411  11.288  0.00  0.00    +0.000 C 
ATOM     27  C   UNL     1      39.397   3.234  12.021  0.00  0.00    +0.000 C 
BRANCH  27  28
ATOM     28  C   UNL     1      38.745   2.057  12.752  0.00  0.00    +0.000 C 
ATOM     29  C   UNL     1      38.095   0.880  13.486  0.00  0.00    +0.000 C 
BRANCH  29  31
ATOM     30  O   UNL     1      36.391  -0.159  14.701  0.00  0.00    +0.000 OA
ATOM     31  C   UNL     1      37.487  -0.220  14.171  0.00  0.00    +0.000 C 
BRANCH  31  32
ATOM     32  O   UNL     1      38.235  -1.338  14.183  0.00  0.00    +0.000 OA
ATOM     33  H   UNL     1      37.761  -1.926  14.806  0.00  0.00    +0.000 HD
ENDBRANCH  31  32
ENDBRANCH  29  31
ENDBRANCH  27  28
ENDBRANCH   3  26
TORSDOF 8
ENDMDL
