MODEL 1
REMARK VINA RESULT:      -6.0      0.000      0.000
REMARK  Name = 122180587_TripolinolateA.pdbqt.pdb
REMARK  9 active torsions:
REMARK  status: ('A' for Active; 'I' for Inactive)
REMARK    1  A    between atoms: C_1  and  O_16
REMARK    2  A    between atoms: C_2  and  O_7
REMARK    3  A    between atoms: C_3  and  C_9
REMARK    4  A    between atoms: C_10  and  C_11
REMARK    5  A    between atoms: C_11  and  O_12
REMARK    6  A    between atoms: O_12  and  C_14
REMARK    7  A    between atoms: O_16  and  C_18
REMARK    8  A    between atoms: C_18  and  C_19
REMARK    9  A    between atoms: C_19  and  C_21
REMARK                            x       y       z     vdW  Elec       q    Type
REMARK                         _______ _______ _______ _____ _____    ______ ____
ROOT
ATOM      1  C   UNL     1      17.621   3.700  19.936  0.00  0.00    +0.000 A 
ATOM      2  C   UNL     1      17.132   5.000  19.777  0.00  0.00    +0.000 A 
ATOM      3  C   UNL     1      19.311   5.657  18.940  0.00  0.00    +0.000 A 
ATOM      4  C   UNL     1      18.946   3.377  19.634  0.00  0.00    +0.000 A 
ATOM      5  C   UNL     1      17.994   5.975  19.269  0.00  0.00    +0.000 A 
ATOM      6  C   UNL     1      19.789   4.361  19.125  0.00  0.00    +0.000 A 
ENDROOT
BRANCH   2   7
ATOM      7  O   UNL     1      15.833   5.234  20.153  0.00  0.00    +0.000 OA
ATOM      8  C   UNL     1      14.999   5.763  19.160  0.00  0.00    +0.000 C 
ENDBRANCH   2   7
BRANCH   3   9
ATOM      9  C   UNL     1      20.175   6.665  18.418  0.00  0.00    +0.000 C 
ATOM     10  C   UNL     1      20.902   7.513  17.977  0.00  0.00    +0.000 C 
BRANCH  10  11
ATOM     11  C   UNL     1      21.829   8.593  17.410  0.00  0.00    +0.000 C 
BRANCH  11  12
ATOM     12  O   UNL     1      22.636   9.530  16.918  0.00  0.00    +0.000 OA
BRANCH  12  14
ATOM     13  O   UNL     1      21.431  10.473  15.149  0.00  0.00    +0.000 OA
ATOM     14  C   UNL     1      22.021  10.501  16.214  0.00  0.00    +0.000 C 
ATOM     15  C   UNL     1      22.071  11.849  16.850  0.00  0.00    +0.000 C 
ENDBRANCH  12  14
ENDBRANCH  11  12
ENDBRANCH  10  11
ENDBRANCH   3   9
BRANCH   1  16
ATOM     16  O   UNL     1      16.801   2.708  20.491  0.00  0.00    +0.000 OA
BRANCH  16  18
ATOM     17  O   UNL     1      17.113   0.578  19.611  0.00  0.00    +0.000 OA
ATOM     18  C   UNL     1      16.537   1.659  19.620  0.00  0.00    +0.000 C 
BRANCH  18  19
ATOM     19  C   UNL     1      15.456   2.026  18.671  0.00  0.00    +0.000 C 
ATOM     20  C   UNL     1      15.687   2.243  17.181  0.00  0.00    +0.000 C 
BRANCH  19  21
ATOM     21  C   UNL     1      14.132   2.180  19.160  0.00  0.00    +0.000 C 
ATOM     22  C   UNL     1      12.698   2.342  19.696  0.00  0.00    +0.000 C 
ENDBRANCH  19  21
ENDBRANCH  18  19
ENDBRANCH  16  18
ENDBRANCH   1  16
TORSDOF 9
ENDMDL
MODEL 2
REMARK VINA RESULT:      -6.0      2.058      9.729
REMARK  Name = 122180587_TripolinolateA.pdbqt.pdb
REMARK  9 active torsions:
REMARK  status: ('A' for Active; 'I' for Inactive)
REMARK    1  A    between atoms: C_1  and  O_16
REMARK    2  A    between atoms: C_2  and  O_7
REMARK    3  A    between atoms: C_3  and  C_9
REMARK    4  A    between atoms: C_10  and  C_11
REMARK    5  A    between atoms: C_11  and  O_12
REMARK    6  A    between atoms: O_12  and  C_14
REMARK    7  A    between atoms: O_16  and  C_18
REMARK    8  A    between atoms: C_18  and  C_19
REMARK    9  A    between atoms: C_19  and  C_21
REMARK                            x       y       z     vdW  Elec       q    Type
REMARK                         _______ _______ _______ _____ _____    ______ ____
ROOT
ATOM      1  C   UNL     1      21.052  10.612  18.059  0.00  0.00    +0.000 A 
ATOM      2  C   UNL     1      21.860   9.570  17.593  0.00  0.00    +0.000 A 
ATOM      3  C   UNL     1      20.249   7.995  18.492  0.00  0.00    +0.000 A 
ATOM      4  C   UNL     1      19.871  10.361  18.761  0.00  0.00    +0.000 A 
ATOM      5  C   UNL     1      21.440   8.256  17.814  0.00  0.00    +0.000 A 
ATOM      6  C   UNL     1      19.467   9.046  18.968  0.00  0.00    +0.000 A 
ENDROOT
BRANCH   2   7
ATOM      7  O   UNL     1      23.029   9.914  16.963  0.00  0.00    +0.000 OA
ATOM      8  C   UNL     1      22.945  10.076  15.575  0.00  0.00    +0.000 C 
ENDBRANCH   2   7
BRANCH   3   9
ATOM      9  C   UNL     1      19.834   6.647  18.704  0.00  0.00    +0.000 C 
ATOM     10  C   UNL     1      19.482   5.513  18.883  0.00  0.00    +0.000 C 
BRANCH  10  11
ATOM     11  C   UNL     1      19.032   4.067  19.114  0.00  0.00    +0.000 C 
BRANCH  11  12
ATOM     12  O   UNL     1      18.638   2.811  19.315  0.00  0.00    +0.000 OA
BRANCH  12  14
ATOM     13  O   UNL     1      16.502   3.494  19.979  0.00  0.00    +0.000 OA
ATOM     14  C   UNL     1      17.378   2.674  19.771  0.00  0.00    +0.000 C 
ATOM     15  C   UNL     1      16.982   1.268  20.076  0.00  0.00    +0.000 C 
ENDBRANCH  12  14
ENDBRANCH  11  12
ENDBRANCH  10  11
ENDBRANCH   3   9
BRANCH   1  16
ATOM     16  O   UNL     1      21.467  11.941  17.901  0.00  0.00    +0.000 OA
BRANCH  16  18
ATOM     17  O   UNL     1      20.110  12.095  16.018  0.00  0.00    +0.000 OA
ATOM     18  C   UNL     1      20.783  12.617  16.898  0.00  0.00    +0.000 C 
BRANCH  18  19
ATOM     19  C   UNL     1      20.989  14.082  17.020  0.00  0.00    +0.000 C 
ATOM     20  C   UNL     1      20.565  15.081  15.952  0.00  0.00    +0.000 C 
BRANCH  19  21
ATOM     21  C   UNL     1      21.606  14.596  18.191  0.00  0.00    +0.000 C 
ATOM     22  C   UNL     1      22.283  15.150  19.459  0.00  0.00    +0.000 C 
ENDBRANCH  19  21
ENDBRANCH  18  19
ENDBRANCH  16  18
ENDBRANCH   1  16
TORSDOF 9
ENDMDL
MODEL 3
REMARK VINA RESULT:      -5.7     18.178     20.817
REMARK  Name = 122180587_TripolinolateA.pdbqt.pdb
REMARK  9 active torsions:
REMARK  status: ('A' for Active; 'I' for Inactive)
REMARK    1  A    between atoms: C_1  and  O_16
REMARK    2  A    between atoms: C_2  and  O_7
REMARK    3  A    between atoms: C_3  and  C_9
REMARK    4  A    between atoms: C_10  and  C_11
REMARK    5  A    between atoms: C_11  and  O_12
REMARK    6  A    between atoms: O_12  and  C_14
REMARK    7  A    between atoms: O_16  and  C_18
REMARK    8  A    between atoms: C_18  and  C_19
REMARK    9  A    between atoms: C_19  and  C_21
REMARK                            x       y       z     vdW  Elec       q    Type
REMARK                         _______ _______ _______ _____ _____    ______ ____
ROOT
ATOM      1  C   UNL     1      30.996  -0.296   3.629  0.00  0.00    +0.000 A 
ATOM      2  C   UNL     1      30.254   0.875   3.814  0.00  0.00    +0.000 A 
ATOM      3  C   UNL     1      28.445  -0.479   4.696  0.00  0.00    +0.000 A 
ATOM      4  C   UNL     1      30.468  -1.551   3.939  0.00  0.00    +0.000 A 
ATOM      5  C   UNL     1      28.972   0.768   4.358  0.00  0.00    +0.000 A 
ATOM      6  C   UNL     1      29.190  -1.637   4.484  0.00  0.00    +0.000 A 
ENDROOT
BRANCH   2   7
ATOM      7  O   UNL     1      30.836   2.056   3.428  0.00  0.00    +0.000 OA
ATOM      8  C   UNL     1      30.091   2.835   2.534  0.00  0.00    +0.000 C 
ENDBRANCH   2   7
BRANCH   3   9
ATOM      9  C   UNL     1      27.136  -0.568   5.255  0.00  0.00    +0.000 C 
ATOM     10  C   UNL     1      26.033  -0.641   5.725  0.00  0.00    +0.000 C 
BRANCH  10  11
ATOM     11  C   UNL     1      24.627  -0.731   6.327  0.00  0.00    +0.000 C 
BRANCH  11  12
ATOM     12  O   UNL     1      23.406  -0.812   6.850  0.00  0.00    +0.000 OA
BRANCH  12  14
ATOM     13  O   UNL     1      22.079  -2.607   7.544  0.00  0.00    +0.000 OA
ATOM     14  C   UNL     1      22.835  -2.031   6.785  0.00  0.00    +0.000 C 
ATOM     15  C   UNL     1      23.192  -2.814   5.567  0.00  0.00    +0.000 C 
ENDBRANCH  12  14
ENDBRANCH  11  12
ENDBRANCH  10  11
ENDBRANCH   3   9
BRANCH   1  16
ATOM     16  O   UNL     1      32.265  -0.232   3.038  0.00  0.00    +0.000 OA
BRANCH  16  18
ATOM     17  O   UNL     1      33.477  -1.592   4.484  0.00  0.00    +0.000 OA
ATOM     18  C   UNL     1      33.079  -1.310   3.360  0.00  0.00    +0.000 C 
BRANCH  18  19
ATOM     19  C   UNL     1      33.428  -2.085   2.143  0.00  0.00    +0.000 C 
ATOM     20  C   UNL     1      33.247  -3.593   2.029  0.00  0.00    +0.000 C 
BRANCH  19  21
ATOM     21  C   UNL     1      33.952  -1.399   1.016  0.00  0.00    +0.000 C 
ATOM     22  C   UNL     1      34.528  -0.656  -0.204  0.00  0.00    +0.000 C 
ENDBRANCH  19  21
ENDBRANCH  18  19
ENDBRANCH  16  18
ENDBRANCH   1  16
TORSDOF 9
ENDMDL
MODEL 4
REMARK VINA RESULT:      -5.7      1.597      2.149
REMARK  Name = 122180587_TripolinolateA.pdbqt.pdb
REMARK  9 active torsions:
REMARK  status: ('A' for Active; 'I' for Inactive)
REMARK    1  A    between atoms: C_1  and  O_16
REMARK    2  A    between atoms: C_2  and  O_7
REMARK    3  A    between atoms: C_3  and  C_9
REMARK    4  A    between atoms: C_10  and  C_11
REMARK    5  A    between atoms: C_11  and  O_12
REMARK    6  A    between atoms: O_12  and  C_14
REMARK    7  A    between atoms: O_16  and  C_18
REMARK    8  A    between atoms: C_18  and  C_19
REMARK    9  A    between atoms: C_19  and  C_21
REMARK                            x       y       z     vdW  Elec       q    Type
REMARK                         _______ _______ _______ _____ _____    ______ ____
ROOT
ATOM      1  C   UNL     1      17.662   4.659  20.068  0.00  0.00    +0.000 A 
ATOM      2  C   UNL     1      17.723   5.956  20.587  0.00  0.00    +0.000 A 
ATOM      3  C   UNL     1      19.507   6.439  19.016  0.00  0.00    +0.000 A 
ATOM      4  C   UNL     1      18.528   4.236  19.058  0.00  0.00    +0.000 A 
ATOM      5  C   UNL     1      18.655   6.844  20.043  0.00  0.00    +0.000 A 
ATOM      6  C   UNL     1      19.447   5.136  18.525  0.00  0.00    +0.000 A 
ENDROOT
BRANCH   2   7
ATOM      7  O   UNL     1      16.870   6.263  21.617  0.00  0.00    +0.000 OA
ATOM      8  C   UNL     1      16.803   7.617  21.966  0.00  0.00    +0.000 C 
ENDBRANCH   2   7
BRANCH   3   9
ATOM      9  C   UNL     1      20.448   7.361  18.469  0.00  0.00    +0.000 C 
ATOM     10  C   UNL     1      21.241   8.137  18.008  0.00  0.00    +0.000 C 
BRANCH  10  11
ATOM     11  C   UNL     1      22.254   9.122  17.418  0.00  0.00    +0.000 C 
BRANCH  11  12
ATOM     12  O   UNL     1      23.137   9.978  16.907  0.00  0.00    +0.000 OA
BRANCH  12  14
ATOM     13  O   UNL     1      22.536  12.237  16.895  0.00  0.00    +0.000 OA
ATOM     14  C   UNL     1      22.610  11.119  16.420  0.00  0.00    +0.000 C 
ATOM     15  C   UNL     1      22.012  10.992  15.060  0.00  0.00    +0.000 C 
ENDBRANCH  12  14
ENDBRANCH  11  12
ENDBRANCH  10  11
ENDBRANCH   3   9
BRANCH   1  16
ATOM     16  O   UNL     1      16.776   3.726  20.624  0.00  0.00    +0.000 OA
BRANCH  16  18
ATOM     17  O   UNL     1      14.844   3.861  19.336  0.00  0.00    +0.000 OA
ATOM     18  C   UNL     1      15.835   3.251  19.719  0.00  0.00    +0.000 C 
BRANCH  18  19
ATOM     19  C   UNL     1      16.180   1.877  19.277  0.00  0.00    +0.000 C 
ATOM     20  C   UNL     1      16.693   0.797  20.221  0.00  0.00    +0.000 C 
BRANCH  19  21
ATOM     21  C   UNL     1      16.025   1.533  17.909  0.00  0.00    +0.000 C 
ATOM     22  C   UNL     1      15.862   1.155  16.424  0.00  0.00    +0.000 C 
ENDBRANCH  19  21
ENDBRANCH  18  19
ENDBRANCH  16  18
ENDBRANCH   1  16
TORSDOF 9
ENDMDL
MODEL 5
REMARK VINA RESULT:      -5.7     17.152     18.667
REMARK  Name = 122180587_TripolinolateA.pdbqt.pdb
REMARK  9 active torsions:
REMARK  status: ('A' for Active; 'I' for Inactive)
REMARK    1  A    between atoms: C_1  and  O_16
REMARK    2  A    between atoms: C_2  and  O_7
REMARK    3  A    between atoms: C_3  and  C_9
REMARK    4  A    between atoms: C_10  and  C_11
REMARK    5  A    between atoms: C_11  and  O_12
REMARK    6  A    between atoms: O_12  and  C_14
REMARK    7  A    between atoms: O_16  and  C_18
REMARK    8  A    between atoms: C_18  and  C_19
REMARK    9  A    between atoms: C_19  and  C_21
REMARK                            x       y       z     vdW  Elec       q    Type
REMARK                         _______ _______ _______ _____ _____    ______ ____
ROOT
ATOM      1  C   UNL     1      26.074   0.547   5.304  0.00  0.00    +0.000 A 
ATOM      2  C   UNL     1      26.986   1.438   4.729  0.00  0.00    +0.000 A 
ATOM      3  C   UNL     1      28.540  -0.407   4.472  0.00  0.00    +0.000 A 
ATOM      4  C   UNL     1      26.392  -0.799   5.494  0.00  0.00    +0.000 A 
ATOM      5  C   UNL     1      28.223   0.942   4.309  0.00  0.00    +0.000 A 
ATOM      6  C   UNL     1      27.627  -1.276   5.066  0.00  0.00    +0.000 A 
ENDROOT
BRANCH   2   7
ATOM      7  O   UNL     1      26.606   2.753   4.634  0.00  0.00    +0.000 OA
ATOM      8  C   UNL     1      27.651   3.686   4.601  0.00  0.00    +0.000 C 
ENDBRANCH   2   7
BRANCH   3   9
ATOM      9  C   UNL     1      29.805  -0.896   4.033  0.00  0.00    +0.000 C 
ATOM     10  C   UNL     1      30.872  -1.308   3.665  0.00  0.00    +0.000 C 
BRANCH  10  11
ATOM     11  C   UNL     1      32.234  -1.831   3.199  0.00  0.00    +0.000 C 
BRANCH  11  12
ATOM     12  O   UNL     1      33.419  -2.284   2.795  0.00  0.00    +0.000 OA
BRANCH  12  14
ATOM     13  O   UNL     1      34.280  -4.191   1.751  0.00  0.00    +0.000 OA
ATOM     14  C   UNL     1      33.387  -3.459   2.135  0.00  0.00    +0.000 C 
ATOM     15  C   UNL     1      32.015  -3.952   1.819  0.00  0.00    +0.000 C 
ENDBRANCH  12  14
ENDBRANCH  11  12
ENDBRANCH  10  11
ENDBRANCH   3   9
BRANCH   1  16
ATOM     16  O   UNL     1      24.845   1.019   5.783  0.00  0.00    +0.000 OA
BRANCH  16  18
ATOM     17  O   UNL     1      23.580   0.627   3.871  0.00  0.00    +0.000 OA
ATOM     18  C   UNL     1      23.752   0.527   5.079  0.00  0.00    +0.000 C 
BRANCH  18  19
ATOM     19  C   UNL     1      22.793  -0.135   5.998  0.00  0.00    +0.000 C 
ATOM     20  C   UNL     1      22.460   0.395   7.386  0.00  0.00    +0.000 C 
BRANCH  19  21
ATOM     21  C   UNL     1      22.139  -1.321   5.573  0.00  0.00    +0.000 C 
ATOM     22  C   UNL     1      21.423  -2.606   5.118  0.00  0.00    +0.000 C 
ENDBRANCH  19  21
ENDBRANCH  18  19
ENDBRANCH  16  18
ENDBRANCH   1  16
TORSDOF 9
ENDMDL
MODEL 6
REMARK VINA RESULT:      -5.6     28.792     30.883
REMARK  Name = 122180587_TripolinolateA.pdbqt.pdb
REMARK  9 active torsions:
REMARK  status: ('A' for Active; 'I' for Inactive)
REMARK    1  A    between atoms: C_1  and  O_16
REMARK    2  A    between atoms: C_2  and  O_7
REMARK    3  A    between atoms: C_3  and  C_9
REMARK    4  A    between atoms: C_10  and  C_11
REMARK    5  A    between atoms: C_11  and  O_12
REMARK    6  A    between atoms: O_12  and  C_14
REMARK    7  A    between atoms: O_16  and  C_18
REMARK    8  A    between atoms: C_18  and  C_19
REMARK    9  A    between atoms: C_19  and  C_21
REMARK                            x       y       z     vdW  Elec       q    Type
REMARK                         _______ _______ _______ _____ _____    ______ ____
ROOT
ATOM      1  C   UNL     1      35.799 -13.907  36.726  0.00  0.00    +0.000 A 
ATOM      2  C   UNL     1      35.379 -13.656  38.036  0.00  0.00    +0.000 A 
ATOM      3  C   UNL     1      35.854 -11.304  37.677  0.00  0.00    +0.000 A 
ATOM      4  C   UNL     1      36.273 -12.883  35.903  0.00  0.00    +0.000 A 
ATOM      5  C   UNL     1      35.407 -12.338  38.500  0.00  0.00    +0.000 A 
ATOM      6  C   UNL     1      36.290 -11.576  36.381  0.00  0.00    +0.000 A 
ENDROOT
BRANCH   2   7
ATOM      7  O   UNL     1      34.982 -14.733  38.787  0.00  0.00    +0.000 OA
ATOM      8  C   UNL     1      35.975 -15.313  39.587  0.00  0.00    +0.000 C 
ENDBRANCH   2   7
BRANCH   3   9
ATOM      9  C   UNL     1      35.872  -9.965  38.166  0.00  0.00    +0.000 C 
ATOM     10  C   UNL     1      35.887  -8.837  38.579  0.00  0.00    +0.000 C 
BRANCH  10  11
ATOM     11  C   UNL     1      35.906  -7.401  39.110  0.00  0.00    +0.000 C 
BRANCH  11  12
ATOM     12  O   UNL     1      35.922  -6.153  39.573  0.00  0.00    +0.000 OA
BRANCH  12  14
ATOM     13  O   UNL     1      36.232  -4.187  38.347  0.00  0.00    +0.000 OA
ATOM     14  C   UNL     1      35.639  -5.201  38.662  0.00  0.00    +0.000 C 
ATOM     15  C   UNL     1      34.375  -5.431  37.903  0.00  0.00    +0.000 C 
ENDBRANCH  12  14
ENDBRANCH  11  12
ENDBRANCH  10  11
ENDBRANCH   3   9
BRANCH   1  16
ATOM     16  O   UNL     1      35.833 -15.223  36.244  0.00  0.00    +0.000 OA
BRANCH  16  18
ATOM     17  O   UNL     1      33.789 -15.137  35.138  0.00  0.00    +0.000 OA
ATOM     18  C   UNL     1      34.975 -15.441  35.174  0.00  0.00    +0.000 C 
BRANCH  18  19
ATOM     19  C   UNL     1      35.688 -16.118  34.062  0.00  0.00    +0.000 C 
ATOM     20  C   UNL     1      37.009 -16.854  34.237  0.00  0.00    +0.000 C 
BRANCH  19  21
ATOM     21  C   UNL     1      35.119 -16.091  32.761  0.00  0.00    +0.000 C 
ATOM     22  C   UNL     1      34.495 -16.059  31.353  0.00  0.00    +0.000 C 
ENDBRANCH  19  21
ENDBRANCH  18  19
ENDBRANCH  16  18
ENDBRANCH   1  16
TORSDOF 9
ENDMDL
MODEL 7
REMARK VINA RESULT:      -5.3     15.896     17.020
REMARK  Name = 122180587_TripolinolateA.pdbqt.pdb
REMARK  9 active torsions:
REMARK  status: ('A' for Active; 'I' for Inactive)
REMARK    1  A    between atoms: C_1  and  O_16
REMARK    2  A    between atoms: C_2  and  O_7
REMARK    3  A    between atoms: C_3  and  C_9
REMARK    4  A    between atoms: C_10  and  C_11
REMARK    5  A    between atoms: C_11  and  O_12
REMARK    6  A    between atoms: O_12  and  C_14
REMARK    7  A    between atoms: O_16  and  C_18
REMARK    8  A    between atoms: C_18  and  C_19
REMARK    9  A    between atoms: C_19  and  C_21
REMARK                            x       y       z     vdW  Elec       q    Type
REMARK                         _______ _______ _______ _____ _____    ______ ____
ROOT
ATOM      1  C   UNL     1      23.929  -0.514   5.612  0.00  0.00    +0.000 A 
ATOM      2  C   UNL     1      24.799   0.568   5.785  0.00  0.00    +0.000 A 
ATOM      3  C   UNL     1      26.613  -0.839   5.002  0.00  0.00    +0.000 A 
ATOM      4  C   UNL     1      24.390  -1.756   5.171  0.00  0.00    +0.000 A 
ATOM      5  C   UNL     1      26.148   0.391   5.468  0.00  0.00    +0.000 A 
ATOM      6  C   UNL     1      25.736  -1.913   4.857  0.00  0.00    +0.000 A 
ENDROOT
BRANCH   2   7
ATOM      7  O   UNL     1      24.265   1.733   6.276  0.00  0.00    +0.000 OA
ATOM      8  C   UNL     1      23.974   2.716   5.322  0.00  0.00    +0.000 C 
ENDBRANCH   2   7
BRANCH   3   9
ATOM      9  C   UNL     1      27.993  -1.000   4.679  0.00  0.00    +0.000 C 
ATOM     10  C   UNL     1      29.154  -1.135   4.406  0.00  0.00    +0.000 C 
BRANCH  10  11
ATOM     11  C   UNL     1      30.635  -1.312   4.054  0.00  0.00    +0.000 C 
BRANCH  11  12
ATOM     12  O   UNL     1      31.921  -1.468   3.749  0.00  0.00    +0.000 OA
BRANCH  12  14
ATOM     13  O   UNL     1      32.751  -1.381   1.565  0.00  0.00    +0.000 OA
ATOM     14  C   UNL     1      32.164  -1.900   2.496  0.00  0.00    +0.000 C 
ATOM     15  C   UNL     1      31.616  -3.255   2.195  0.00  0.00    +0.000 C 
ENDBRANCH  12  14
ENDBRANCH  11  12
ENDBRANCH  10  11
ENDBRANCH   3   9
BRANCH   1  16
ATOM     16  O   UNL     1      22.580  -0.388   5.969  0.00  0.00    +0.000 OA
BRANCH  16  18
ATOM     17  O   UNL     1      22.724  -0.389   8.290  0.00  0.00    +0.000 OA
ATOM     18  C   UNL     1      22.299  -0.863   7.244  0.00  0.00    +0.000 C 
BRANCH  18  19
ATOM     19  C   UNL     1      21.414  -2.052   7.176  0.00  0.00    +0.000 C 
ATOM     20  C   UNL     1      20.861  -2.613   5.872  0.00  0.00    +0.000 C 
BRANCH  19  21
ATOM     21  C   UNL     1      21.058  -2.717   8.379  0.00  0.00    +0.000 C 
ATOM     22  C   UNL     1      20.667  -3.432   9.686  0.00  0.00    +0.000 C 
ENDBRANCH  19  21
ENDBRANCH  18  19
ENDBRANCH  16  18
ENDBRANCH   1  16
TORSDOF 9
ENDMDL
MODEL 8
REMARK VINA RESULT:      -5.3      2.510      9.034
REMARK  Name = 122180587_TripolinolateA.pdbqt.pdb
REMARK  9 active torsions:
REMARK  status: ('A' for Active; 'I' for Inactive)
REMARK    1  A    between atoms: C_1  and  O_16
REMARK    2  A    between atoms: C_2  and  O_7
REMARK    3  A    between atoms: C_3  and  C_9
REMARK    4  A    between atoms: C_10  and  C_11
REMARK    5  A    between atoms: C_11  and  O_12
REMARK    6  A    between atoms: O_12  and  C_14
REMARK    7  A    between atoms: O_16  and  C_18
REMARK    8  A    between atoms: C_18  and  C_19
REMARK    9  A    between atoms: C_19  and  C_21
REMARK                            x       y       z     vdW  Elec       q    Type
REMARK                         _______ _______ _______ _____ _____    ______ ____
ROOT
ATOM      1  C   UNL     1      20.548  10.546  18.378  0.00  0.00    +0.000 A 
ATOM      2  C   UNL     1      20.899   9.627  17.385  0.00  0.00    +0.000 A 
ATOM      3  C   UNL     1      20.000   7.860  18.782  0.00  0.00    +0.000 A 
ATOM      4  C   UNL     1      19.958  10.137  19.576  0.00  0.00    +0.000 A 
ATOM      5  C   UNL     1      20.612   8.276  17.600  0.00  0.00    +0.000 A 
ATOM      6  C   UNL     1      19.676   8.788  19.771  0.00  0.00    +0.000 A 
ENDROOT
BRANCH   2   7
ATOM      7  O   UNL     1      21.524  10.117  16.266  0.00  0.00    +0.000 OA
ATOM      8  C   UNL     1      22.920  10.004  16.252  0.00  0.00    +0.000 C 
ENDBRANCH   2   7
BRANCH   3   9
ATOM      9  C   UNL     1      19.710   6.478  18.983  0.00  0.00    +0.000 C 
ATOM     10  C   UNL     1      19.467   5.314  19.150  0.00  0.00    +0.000 C 
BRANCH  10  11
ATOM     11  C   UNL     1      19.157   3.828  19.359  0.00  0.00    +0.000 C 
BRANCH  11  12
ATOM     12  O   UNL     1      18.887   2.538  19.540  0.00  0.00    +0.000 OA
BRANCH  12  14
ATOM     13  O   UNL     1      16.990   1.172  19.602  0.00  0.00    +0.000 OA
ATOM     14  C   UNL     1      17.578   2.237  19.646  0.00  0.00    +0.000 C 
ATOM     15  C   UNL     1      16.689   3.417  19.855  0.00  0.00    +0.000 C 
ENDBRANCH  12  14
ENDBRANCH  11  12
ENDBRANCH  10  11
ENDBRANCH   3   9
BRANCH   1  16
ATOM     16  O   UNL     1      20.867  11.902  18.219  0.00  0.00    +0.000 OA
BRANCH  16  18
ATOM     17  O   UNL     1      19.454  13.505  19.136  0.00  0.00    +0.000 OA
ATOM     18  C   UNL     1      19.756  12.736  18.232  0.00  0.00    +0.000 C 
BRANCH  18  19
ATOM     19  C   UNL     1      18.956  12.562  16.994  0.00  0.00    +0.000 C 
ATOM     20  C   UNL     1      17.566  11.940  16.975  0.00  0.00    +0.000 C 
BRANCH  19  21
ATOM     21  C   UNL     1      19.498  12.998  15.756  0.00  0.00    +0.000 C 
ATOM     22  C   UNL     1      20.091  13.464  14.414  0.00  0.00    +0.000 C 
ENDBRANCH  19  21
ENDBRANCH  18  19
ENDBRANCH  16  18
ENDBRANCH   1  16
TORSDOF 9
ENDMDL
MODEL 9
REMARK VINA RESULT:      -5.3      2.290      8.881
REMARK  Name = 122180587_TripolinolateA.pdbqt.pdb
REMARK  9 active torsions:
REMARK  status: ('A' for Active; 'I' for Inactive)
REMARK    1  A    between atoms: C_1  and  O_16
REMARK    2  A    between atoms: C_2  and  O_7
REMARK    3  A    between atoms: C_3  and  C_9
REMARK    4  A    between atoms: C_10  and  C_11
REMARK    5  A    between atoms: C_11  and  O_12
REMARK    6  A    between atoms: O_12  and  C_14
REMARK    7  A    between atoms: O_16  and  C_18
REMARK    8  A    between atoms: C_18  and  C_19
REMARK    9  A    between atoms: C_19  and  C_21
REMARK                            x       y       z     vdW  Elec       q    Type
REMARK                         _______ _______ _______ _____ _____    ______ ____
ROOT
ATOM      1  C   UNL     1      20.745  10.160  18.375  0.00  0.00    +0.000 A 
ATOM      2  C   UNL     1      19.681   9.870  19.235  0.00  0.00    +0.000 A 
ATOM      3  C   UNL     1      19.924   7.528  18.652  0.00  0.00    +0.000 A 
ATOM      4  C   UNL     1      21.377   9.160  17.633  0.00  0.00    +0.000 A 
ATOM      5  C   UNL     1      19.282   8.537  19.369  0.00  0.00    +0.000 A 
ATOM      6  C   UNL     1      20.968   7.838  17.783  0.00  0.00    +0.000 A 
ENDROOT
BRANCH   2   7
ATOM      7  O   UNL     1      19.086  10.925  19.879  0.00  0.00    +0.000 OA
ATOM      8  C   UNL     1      17.811  11.277  19.418  0.00  0.00    +0.000 C 
ENDBRANCH   2   7
BRANCH   3   9
ATOM      9  C   UNL     1      19.506   6.173  18.805  0.00  0.00    +0.000 C 
ATOM     10  C   UNL     1      19.155   5.032  18.935  0.00  0.00    +0.000 C 
BRANCH  10  11
ATOM     11  C   UNL     1      18.712   3.575  19.101  0.00  0.00    +0.000 C 
BRANCH  11  12
ATOM     12  O   UNL     1      18.326   2.309  19.244  0.00  0.00    +0.000 OA
BRANCH  12  14
ATOM     13  O   UNL     1      16.127   1.924  19.938  0.00  0.00    +0.000 OA
ATOM     14  C   UNL     1      17.003   2.096  19.110  0.00  0.00    +0.000 C 
ATOM     15  C   UNL     1      16.523   2.065  17.698  0.00  0.00    +0.000 C 
ENDBRANCH  12  14
ENDBRANCH  11  12
ENDBRANCH  10  11
ENDBRANCH   3   9
BRANCH   1  16
ATOM     16  O   UNL     1      21.138  11.491  18.177  0.00  0.00    +0.000 OA
BRANCH  16  18
ATOM     17  O   UNL     1      22.905  11.401  16.667  0.00  0.00    +0.000 OA
ATOM     18  C   UNL     1      21.754  11.707  16.950  0.00  0.00    +0.000 C 
BRANCH  18  19
ATOM     19  C   UNL     1      20.826  12.385  16.011  0.00  0.00    +0.000 C 
ATOM     20  C   UNL     1      20.148  13.714  16.316  0.00  0.00    +0.000 C 
BRANCH  19  21
ATOM     21  C   UNL     1      20.549  11.779  14.757  0.00  0.00    +0.000 C 
ATOM     22  C   UNL     1      20.254  11.127  13.394  0.00  0.00    +0.000 C 
ENDBRANCH  19  21
ENDBRANCH  18  19
ENDBRANCH  16  18
ENDBRANCH   1  16
TORSDOF 9
ENDMDL
