MODEL 1
REMARK VINA RESULT:      -6.9      0.000      0.000
REMARK  Name = 135403648_CalciumFolinate.pdbqt.pdb
REMARK  10 active torsions:
REMARK  status: ('A' for Active; 'I' for Inactive)
REMARK    1  A    between atoms: N_1  and  C_3
REMARK    2  A    between atoms: N_1  and  C_24
REMARK    3  A    between atoms: C_6  and  C_11
REMARK    4  A    between atoms: CA_13  and  C_15
REMARK    5  A    between atoms: CA_13  and  CB_18
REMARK    6  A    between atoms: C_15  and  O_16
REMARK    7  A    between atoms: CG_19  and  CD_21
REMARK    8  A    between atoms: CD_21  and  OE1_22
REMARK    9  A    between atoms: C_24  and  C_32
REMARK   10  A    between atoms: N_27  and  C_37
REMARK                            x       y       z     vdW  Elec       q    Type
REMARK                         _______ _______ _______ _____ _____    ______ ____
ROOT
ATOM      1  N   UNL     1      40.371   1.916  12.661  0.00  0.00    +0.000 N 
ATOM      2  H   UNL     1      41.126   1.298  12.364  0.00  0.00    +0.000 HD
ENDROOT
BRANCH   1   3
ATOM      3  C   UNL     1      40.189   2.997  11.772  0.00  0.00    +0.000 A 
ATOM      4  C   UNL     1      39.021   3.059  11.006  0.00  0.00    +0.000 A 
ATOM      5  C   UNL     1      41.210   3.914  11.495  0.00  0.00    +0.000 A 
ATOM      6  C   UNL     1      39.852   4.985   9.809  0.00  0.00    +0.000 A 
ATOM      7  C   UNL     1      38.845   4.053  10.043  0.00  0.00    +0.000 A 
ATOM      8  C   UNL     1      41.040   4.910  10.536  0.00  0.00    +0.000 A 
BRANCH   6  11
ATOM      9  O   UNL     1      39.721   7.229   9.176  0.00  0.00    +0.000 OA
ATOM     10  N   UNL     1      39.566   5.652   7.486  0.00  0.00    +0.000 N 
ATOM     11  C   ACE A   0      39.708   6.063   8.798  0.00  0.00    +0.000 C 
ATOM     12  H   UNL     1      39.562   4.658   7.271  0.00  0.00    +0.000 HD
ATOM     13  CA  UNL     1      39.414   6.458   6.372  0.00  0.00    +0.000 C 
BRANCH  13  15
ATOM     14  OXT UNL     1      40.090   5.830   4.167  0.00  0.00    +0.000 OA
ATOM     15  C   UNL     1      39.277   5.749   5.076  0.00  0.00    +0.000 C 
BRANCH  15  16
ATOM     16  O   UNL     1      38.172   4.995   4.976  0.00  0.00    +0.000 OA
ATOM     17  H   UNL     1      37.555   5.525   4.431  0.00  0.00    +0.000 HD
ENDBRANCH  15  16
ENDBRANCH  13  15
BRANCH  13  18
ATOM     18  CB  UNL     1      39.392   7.875   6.458  0.00  0.00    +0.000 C 
ATOM     19  CG  UNL     1      39.363   9.405   6.563  0.00  0.00    +0.000 C 
BRANCH  19  21
ATOM     20  OE2 UNL     1      38.425  11.521   6.246  0.00  0.00    +0.000 OA
ATOM     21  CD  UNL     1      39.330  10.831   6.678  0.00  0.00    +0.000 C 
BRANCH  21  22
ATOM     22  OE1 UNL     1      40.405  11.356   7.293  0.00  0.00    +0.000 OA
ATOM     23  HE1 UNL     1      40.326  11.024   8.210  0.00  0.00    +0.000 HD
ENDBRANCH  21  22
ENDBRANCH  19  21
ENDBRANCH  13  18
ENDBRANCH   6  11
ENDBRANCH   1   3
BRANCH   1  24
ATOM     24  C   UNL     1      39.193   1.263  13.217  0.00  0.00    +0.000 C 
BRANCH  24  31
ATOM     25  O   UNL     1      34.596   2.693  15.338  0.00  0.00    +0.000 OA
ATOM     26  N   UNL     1      36.930   1.390  14.197  0.00  0.00    +0.000 N 
ATOM     27  N   UNL     1      36.795  -1.509  14.493  0.00  0.00    +0.000 N 
ATOM     28  N   UNL     1      34.758  -1.293  15.661  0.00  0.00    +0.000 NA
ATOM     29  N   UNL     1      33.678   0.737  15.913  0.00  0.00    +0.000 N 
ATOM     30  N   UNL     1      32.727  -1.194  16.730  0.00  0.00    +0.000 N 
ATOM     31  C   UNL     1      38.045   0.661  13.798  0.00  0.00    +0.000 C 
ATOM     32  C   UNL     1      37.885  -0.717  14.014  0.00  0.00    +0.000 C 
ATOM     33  C   UNL     1      35.848   0.701  14.811  0.00  0.00    +0.000 A 
ATOM     34  C   UNL     1      35.783  -0.664  14.987  0.00  0.00    +0.000 A 
ATOM     35  C   UNL     1      34.681   1.469  15.356  0.00  0.00    +0.000 A 
ATOM     36  C   UNL     1      33.758  -0.599  16.085  0.00  0.00    +0.000 A 
ATOM     37  H   UNL     1      36.924  -2.310  15.104  0.00  0.00    +0.000 HD
ATOM     38  H   UNL     1      32.920   1.262  16.319  0.00  0.00    +0.000 HD
ATOM     39  H   UNL     1      32.751  -2.206  16.639  0.00  0.00    +0.000 HD
ATOM     40  H   UNL     1      31.805  -0.812  16.567  0.00  0.00    +0.000 HD
BRANCH  26  42
ATOM     41  O   UNL     1      36.964   3.884  13.801  0.00  0.00    +0.000 OA
ATOM     42  C   UNL     1      36.935   2.729  14.021  0.00  0.00    +0.000 C 
ENDBRANCH  26  42
ENDBRANCH  24  31
ENDBRANCH   1  24
TORSDOF 10
ENDMDL
MODEL 2
REMARK VINA RESULT:      -6.6     31.212     37.277
REMARK  Name = 135403648_CalciumFolinate.pdbqt.pdb
REMARK  10 active torsions:
REMARK  status: ('A' for Active; 'I' for Inactive)
REMARK    1  A    between atoms: N_1  and  C_3
REMARK    2  A    between atoms: N_1  and  C_24
REMARK    3  A    between atoms: C_6  and  C_11
REMARK    4  A    between atoms: CA_13  and  C_15
REMARK    5  A    between atoms: CA_13  and  CB_18
REMARK    6  A    between atoms: C_15  and  O_16
REMARK    7  A    between atoms: CG_19  and  CD_21
REMARK    8  A    between atoms: CD_21  and  OE1_22
REMARK    9  A    between atoms: C_24  and  C_32
REMARK   10  A    between atoms: N_27  and  C_37
REMARK                            x       y       z     vdW  Elec       q    Type
REMARK                         _______ _______ _______ _____ _____    ______ ____
ROOT
ATOM      1  N   UNL     1      15.249   0.686  42.459  0.00  0.00    +0.000 N 
ATOM      2  H   UNL     1      14.277   0.463  42.248  0.00  0.00    +0.000 HD
ENDROOT
BRANCH   1   3
ATOM      3  C   UNL     1      15.876   1.380  41.403  0.00  0.00    +0.000 A 
ATOM      4  C   UNL     1      17.266   1.307  41.270  0.00  0.00    +0.000 A 
ATOM      5  C   UNL     1      15.183   2.284  40.589  0.00  0.00    +0.000 A 
ATOM      6  C   UNL     1      17.228   2.919  39.473  0.00  0.00    +0.000 A 
ATOM      7  C   UNL     1      17.937   2.056  40.304  0.00  0.00    +0.000 A 
ATOM      8  C   UNL     1      15.846   3.035  39.621  0.00  0.00    +0.000 A 
BRANCH   6  11
ATOM      9  O   UNL     1      17.916   3.312  37.276  0.00  0.00    +0.000 OA
ATOM     10  N   UNL     1      18.459   4.923  38.849  0.00  0.00    +0.000 N 
ATOM     11  C   ACE A   0      17.898   3.733  38.427  0.00  0.00    +0.000 C 
ATOM     12  H   UNL     1      18.397   5.185  39.830  0.00  0.00    +0.000 HD
ATOM     13  CA  UNL     1      19.135   5.849  38.073  0.00  0.00    +0.000 C 
BRANCH  13  15
ATOM     14  OXT UNL     1      19.780   7.103  40.002  0.00  0.00    +0.000 OA
ATOM     15  C   UNL     1      19.641   7.045  38.789  0.00  0.00    +0.000 C 
BRANCH  15  16
ATOM     16  O   UNL     1      19.942   8.079  37.989  0.00  0.00    +0.000 OA
ATOM     17  H   UNL     1      20.435   8.704  38.561  0.00  0.00    +0.000 HD
ENDBRANCH  15  16
ENDBRANCH  13  15
BRANCH  13  18
ATOM     18  CB  UNL     1      19.332   5.668  36.678  0.00  0.00    +0.000 C 
ATOM     19  CG  UNL     1      19.533   5.476  35.171  0.00  0.00    +0.000 C 
BRANCH  19  21
ATOM     20  OE2 UNL     1      18.794   5.012  33.003  0.00  0.00    +0.000 OA
ATOM     21  CD  UNL     1      19.703   5.302  33.761  0.00  0.00    +0.000 C 
BRANCH  21  22
ATOM     22  OE1 UNL     1      20.969   5.464  33.336  0.00  0.00    +0.000 OA
ATOM     23  HE1 UNL     1      20.875   6.064  32.569  0.00  0.00    +0.000 HD
ENDBRANCH  21  22
ENDBRANCH  19  21
ENDBRANCH  13  18
ENDBRANCH   6  11
ENDBRANCH   1   3
BRANCH   1  24
ATOM     24  C   UNL     1      15.525   1.101  43.829  0.00  0.00    +0.000 C 
BRANCH  24  31
ATOM     25  O   UNL     1      18.434   4.663  46.384  0.00  0.00    +0.000 OA
ATOM     26  N   UNL     1      16.624   2.579  45.474  0.00  0.00    +0.000 N 
ATOM     27  N   UNL     1      15.503   1.077  47.710  0.00  0.00    +0.000 N 
ATOM     28  N   UNL     1      16.792   2.358  49.213  0.00  0.00    +0.000 NA
ATOM     29  N   UNL     1      18.072   4.160  48.532  0.00  0.00    +0.000 N 
ATOM     30  N   UNL     1      17.936   3.608  50.763  0.00  0.00    +0.000 N 
ATOM     31  C   UNL     1      15.836   1.476  45.163  0.00  0.00    +0.000 C 
ATOM     32  C   UNL     1      15.377   0.810  46.311  0.00  0.00    +0.000 C 
ATOM     33  C   UNL     1      16.917   2.845  46.840  0.00  0.00    +0.000 A 
ATOM     34  C   UNL     1      16.421   2.126  47.905  0.00  0.00    +0.000 A 
ATOM     35  C   UNL     1      17.855   3.957  47.204  0.00  0.00    +0.000 A 
ATOM     36  C   UNL     1      17.575   3.344  49.485  0.00  0.00    +0.000 A 
ATOM     37  H   UNL     1      15.643   0.344  48.399  0.00  0.00    +0.000 HD
ATOM     38  H   UNL     1      18.740   4.877  48.767  0.00  0.00    +0.000 HD
ATOM     39  H   UNL     1      17.370   3.098  51.435  0.00  0.00    +0.000 HD
ATOM     40  H   UNL     1      18.052   4.581  51.013  0.00  0.00    +0.000 HD
BRANCH  26  42
ATOM     41  O   UNL     1      17.561   3.926  43.554  0.00  0.00    +0.000 OA
ATOM     42  C   UNL     1      17.112   3.332  44.464  0.00  0.00    +0.000 C 
ENDBRANCH  26  42
ENDBRANCH  24  31
ENDBRANCH   1  24
TORSDOF 10
ENDMDL
MODEL 3
REMARK VINA RESULT:      -6.4     28.723     32.282
REMARK  Name = 135403648_CalciumFolinate.pdbqt.pdb
REMARK  10 active torsions:
REMARK  status: ('A' for Active; 'I' for Inactive)
REMARK    1  A    between atoms: N_1  and  C_3
REMARK    2  A    between atoms: N_1  and  C_24
REMARK    3  A    between atoms: C_6  and  C_11
REMARK    4  A    between atoms: CA_13  and  C_15
REMARK    5  A    between atoms: CA_13  and  CB_18
REMARK    6  A    between atoms: C_15  and  O_16
REMARK    7  A    between atoms: CG_19  and  CD_21
REMARK    8  A    between atoms: CD_21  and  OE1_22
REMARK    9  A    between atoms: C_24  and  C_32
REMARK   10  A    between atoms: N_27  and  C_37
REMARK                            x       y       z     vdW  Elec       q    Type
REMARK                         _______ _______ _______ _____ _____    ______ ____
ROOT
ATOM      1  N   UNL     1      25.854  22.165  30.349  0.00  0.00    +0.000 N 
ATOM      2  H   UNL     1      25.514  21.282  29.969  0.00  0.00    +0.000 HD
ENDROOT
BRANCH   1   3
ATOM      3  C   UNL     1      26.197  22.059  31.714  0.00  0.00    +0.000 A 
ATOM      4  C   UNL     1      25.442  22.757  32.662  0.00  0.00    +0.000 A 
ATOM      5  C   UNL     1      27.372  21.429  32.140  0.00  0.00    +0.000 A 
ATOM      6  C   UNL     1      26.954  22.094  34.424  0.00  0.00    +0.000 A 
ATOM      7  C   UNL     1      25.806  22.762  34.008  0.00  0.00    +0.000 A 
ATOM      8  C   UNL     1      27.741  21.429  33.483  0.00  0.00    +0.000 A 
BRANCH   6  11
ATOM      9  O   UNL     1      28.542  22.345  36.117  0.00  0.00    +0.000 OA
ATOM     10  N   UNL     1      26.407  21.725  36.767  0.00  0.00    +0.000 N 
ATOM     11  C   ACE A   0      27.379  22.069  35.846  0.00  0.00    +0.000 C 
ATOM     12  H   UNL     1      25.468  21.507  36.443  0.00  0.00    +0.000 HD
ATOM     13  CA  UNL     1      26.554  21.629  38.139  0.00  0.00    +0.000 C 
BRANCH  13  15
ATOM     14  OXT UNL     1      24.372  20.685  38.384  0.00  0.00    +0.000 OA
ATOM     15  C   UNL     1      25.339  21.234  38.892  0.00  0.00    +0.000 C 
BRANCH  15  16
ATOM     16  O   UNL     1      25.381  21.529  40.200  0.00  0.00    +0.000 OA
ATOM     17  H   UNL     1      26.197  22.062  40.311  0.00  0.00    +0.000 HD
ENDBRANCH  15  16
ENDBRANCH  13  15
BRANCH  13  18
ATOM     18  CB  UNL     1      27.788  21.892  38.789  0.00  0.00    +0.000 C 
ATOM     19  CG  UNL     1      29.125  22.166  39.489  0.00  0.00    +0.000 C 
BRANCH  19  21
ATOM     20  OE2 UNL     1      30.488  22.972  41.207  0.00  0.00    +0.000 OA
ATOM     21  CD  UNL     1      30.380  22.405  40.135  0.00  0.00    +0.000 C 
BRANCH  21  22
ATOM     22  OE1 UNL     1      31.446  21.965  39.443  0.00  0.00    +0.000 OA
ATOM     23  HE1 UNL     1      32.018  21.574  40.134  0.00  0.00    +0.000 HD
ENDBRANCH  21  22
ENDBRANCH  19  21
ENDBRANCH  13  18
ENDBRANCH   6  11
ENDBRANCH   1   3
BRANCH   1  24
ATOM     24  C   UNL     1      26.714  22.948  29.471  0.00  0.00    +0.000 C 
BRANCH  24  31
ATOM     25  O   UNL     1      31.879  23.547  28.669  0.00  0.00    +0.000 OA
ATOM     26  N   UNL     1      28.972  23.515  28.649  0.00  0.00    +0.000 N 
ATOM     27  N   UNL     1      27.890  25.383  26.687  0.00  0.00    +0.000 N 
ATOM     28  N   UNL     1      30.078  26.071  26.139  0.00  0.00    +0.000 NA
ATOM     29  N   UNL     1      31.960  25.055  27.020  0.00  0.00    +0.000 N 
ATOM     30  N   UNL     1      32.170  26.745  25.472  0.00  0.00    +0.000 N 
ATOM     31  C   UNL     1      27.592  23.680  28.627  0.00  0.00    +0.000 C 
ATOM     32  C   UNL     1      27.184  24.623  27.670  0.00  0.00    +0.000 C 
ATOM     33  C   UNL     1      29.770  24.329  27.798  0.00  0.00    +0.000 A 
ATOM     34  C   UNL     1      29.275  25.238  26.889  0.00  0.00    +0.000 A 
ATOM     35  C   UNL     1      31.267  24.258  27.878  0.00  0.00    +0.000 A 
ATOM     36  C   UNL     1      31.359  25.956  26.214  0.00  0.00    +0.000 A 
ATOM     37  H   UNL     1      27.658  26.346  26.466  0.00  0.00    +0.000 HD
ATOM     38  H   UNL     1      32.963  25.037  27.112  0.00  0.00    +0.000 HD
ATOM     39  H   UNL     1      31.660  27.243  24.746  0.00  0.00    +0.000 HD
ATOM     40  H   UNL     1      33.025  26.329  25.128  0.00  0.00    +0.000 HD
BRANCH  26  42
ATOM     41  O   UNL     1      29.951  21.781  30.203  0.00  0.00    +0.000 OA
ATOM     42  C   UNL     1      29.504  22.615  29.506  0.00  0.00    +0.000 C 
ENDBRANCH  26  42
ENDBRANCH  24  31
ENDBRANCH   1  24
TORSDOF 10
ENDMDL
MODEL 4
REMARK VINA RESULT:      -6.3     22.959     26.364
REMARK  Name = 135403648_CalciumFolinate.pdbqt.pdb
REMARK  10 active torsions:
REMARK  status: ('A' for Active; 'I' for Inactive)
REMARK    1  A    between atoms: N_1  and  C_3
REMARK    2  A    between atoms: N_1  and  C_24
REMARK    3  A    between atoms: C_6  and  C_11
REMARK    4  A    between atoms: CA_13  and  C_15
REMARK    5  A    between atoms: CA_13  and  CB_18
REMARK    6  A    between atoms: C_15  and  O_16
REMARK    7  A    between atoms: CG_19  and  CD_21
REMARK    8  A    between atoms: CD_21  and  OE1_22
REMARK    9  A    between atoms: C_24  and  C_32
REMARK   10  A    between atoms: N_27  and  C_37
REMARK                            x       y       z     vdW  Elec       q    Type
REMARK                         _______ _______ _______ _____ _____    ______ ____
ROOT
ATOM      1  N   UNL     1      50.174   1.711  28.357  0.00  0.00    +0.000 N 
ATOM      2  H   UNL     1      50.694   1.698  27.480  0.00  0.00    +0.000 HD
ENDROOT
BRANCH   1   3
ATOM      3  C   UNL     1      50.152   0.446  28.981  0.00  0.00    +0.000 A 
ATOM      4  C   UNL     1      48.922  -0.118  29.334  0.00  0.00    +0.000 A 
ATOM      5  C   UNL     1      51.320  -0.187  29.423  0.00  0.00    +0.000 A 
ATOM      6  C   UNL     1      50.029  -1.959  30.438  0.00  0.00    +0.000 A 
ATOM      7  C   UNL     1      48.858  -1.317  30.043  0.00  0.00    +0.000 A 
ATOM      8  C   UNL     1      51.264  -1.386  30.130  0.00  0.00    +0.000 A 
BRANCH   6  11
ATOM      9  O   UNL     1      50.644  -4.190  30.745  0.00  0.00    +0.000 OA
ATOM     10  N   UNL     1      49.264  -3.252  32.352  0.00  0.00    +0.000 N 
ATOM     11  C   ACE A   0      50.011  -3.239  31.190  0.00  0.00    +0.000 C 
ATOM     12  H   UNL     1      48.768  -2.411  32.637  0.00  0.00    +0.000 HD
ATOM     13  CA  UNL     1      49.090  -4.316  33.219  0.00  0.00    +0.000 C 
BRANCH  13  15
ATOM     14  OXT UNL     1      47.677  -4.931  35.047  0.00  0.00    +0.000 OA
ATOM     15  C   UNL     1      48.227  -4.054  34.397  0.00  0.00    +0.000 C 
BRANCH  15  16
ATOM     16  O   UNL     1      48.094  -2.754  34.703  0.00  0.00    +0.000 OA
ATOM     17  H   UNL     1      48.043  -2.730  35.681  0.00  0.00    +0.000 HD
ENDBRANCH  15  16
ENDBRANCH  13  15
BRANCH  13  18
ATOM     18  CB  UNL     1      49.697  -5.581  33.000  0.00  0.00    +0.000 C 
ATOM     19  CG  UNL     1      50.345  -6.948  32.754  0.00  0.00    +0.000 C 
BRANCH  19  21
ATOM     20  OE2 UNL     1      52.053  -8.372  32.033  0.00  0.00    +0.000 OA
ATOM     21  CD  UNL     1      50.940  -8.226  32.508  0.00  0.00    +0.000 C 
BRANCH  21  22
ATOM     22  OE1 UNL     1      50.153  -9.268  32.829  0.00  0.00    +0.000 OA
ATOM     23  HE1 UNL     1      49.751  -8.995  33.679  0.00  0.00    +0.000 HD
ENDBRANCH  21  22
ENDBRANCH  19  21
ENDBRANCH  13  18
ENDBRANCH   6  11
ENDBRANCH   1   3
BRANCH   1  24
ATOM     24  C   UNL     1      50.353   2.897  29.186  0.00  0.00    +0.000 C 
BRANCH  24  31
ATOM     25  O   UNL     1      50.946   3.981  34.299  0.00  0.00    +0.000 OA
ATOM     26  N   UNL     1      50.755   3.913  31.400  0.00  0.00    +0.000 N 
ATOM     27  N   UNL     1      50.863   6.593  30.253  0.00  0.00    +0.000 N 
ATOM     28  N   UNL     1      50.975   7.514  32.420  0.00  0.00    +0.000 NA
ATOM     29  N   UNL     1      51.157   6.206  34.320  0.00  0.00    +0.000 N 
ATOM     30  N   UNL     1      51.180   8.503  34.484  0.00  0.00    +0.000 N 
ATOM     31  C   UNL     1      50.552   4.023  30.028  0.00  0.00    +0.000 C 
ATOM     32  C   UNL     1      50.592   5.356  29.590  0.00  0.00    +0.000 C 
ATOM     33  C   UNL     1      50.899   5.103  32.166  0.00  0.00    +0.000 A 
ATOM     34  C   UNL     1      50.919   6.377  31.642  0.00  0.00    +0.000 A 
ATOM     35  C   UNL     1      51.005   5.026  33.660  0.00  0.00    +0.000 A 
ATOM     36  C   UNL     1      51.098   7.403  33.698  0.00  0.00    +0.000 A 
ATOM     37  H   UNL     1      50.361   7.450  30.042  0.00  0.00    +0.000 HD
ATOM     38  H   UNL     1      51.179   6.151  35.326  0.00  0.00    +0.000 HD
ATOM     39  H   UNL     1      51.340   9.349  33.943  0.00  0.00    +0.000 HD
ATOM     40  H   UNL     1      51.779   8.442  35.296  0.00  0.00    +0.000 HD
BRANCH  26  42
ATOM     41  O   UNL     1      50.743   1.638  32.495  0.00  0.00    +0.000 OA
ATOM     42  C   UNL     1      50.769   2.682  31.956  0.00  0.00    +0.000 C 
ENDBRANCH  26  42
ENDBRANCH  24  31
ENDBRANCH   1  24
TORSDOF 10
ENDMDL
MODEL 5
REMARK VINA RESULT:      -6.3     31.911     37.962
REMARK  Name = 135403648_CalciumFolinate.pdbqt.pdb
REMARK  10 active torsions:
REMARK  status: ('A' for Active; 'I' for Inactive)
REMARK    1  A    between atoms: N_1  and  C_3
REMARK    2  A    between atoms: N_1  and  C_24
REMARK    3  A    between atoms: C_6  and  C_11
REMARK    4  A    between atoms: CA_13  and  C_15
REMARK    5  A    between atoms: CA_13  and  CB_18
REMARK    6  A    between atoms: C_15  and  O_16
REMARK    7  A    between atoms: CG_19  and  CD_21
REMARK    8  A    between atoms: CD_21  and  OE1_22
REMARK    9  A    between atoms: C_24  and  C_32
REMARK   10  A    between atoms: N_27  and  C_37
REMARK                            x       y       z     vdW  Elec       q    Type
REMARK                         _______ _______ _______ _____ _____    ______ ____
ROOT
ATOM      1  N   UNL     1      17.223   3.512  44.441  0.00  0.00    +0.000 N 
ATOM      2  H   UNL     1      18.001   3.899  44.973  0.00  0.00    +0.000 HD
ENDROOT
BRANCH   1   3
ATOM      3  C   UNL     1      17.474   3.516  43.052  0.00  0.00    +0.000 A 
ATOM      4  C   UNL     1      17.835   4.714  42.429  0.00  0.00    +0.000 A 
ATOM      5  C   UNL     1      17.202   2.407  42.243  0.00  0.00    +0.000 A 
ATOM      6  C   UNL     1      17.761   3.663  40.257  0.00  0.00    +0.000 A 
ATOM      7  C   UNL     1      17.993   4.786  41.046  0.00  0.00    +0.000 A 
ATOM      8  C   UNL     1      17.359   2.471  40.860  0.00  0.00    +0.000 A 
BRANCH   6  11
ATOM      9  O   UNL     1      18.711   4.488  38.290  0.00  0.00    +0.000 OA
ATOM     10  N   UNL     1      17.147   2.793  38.068  0.00  0.00    +0.000 N 
ATOM     11  C   ACE A   0      17.921   3.690  38.781  0.00  0.00    +0.000 C 
ATOM     12  H   UNL     1      16.516   2.172  38.567  0.00  0.00    +0.000 HD
ATOM     13  CA  UNL     1      17.115   2.628  36.695  0.00  0.00    +0.000 C 
BRANCH  13  15
ATOM     14  OXT UNL     1      16.356   0.388  36.346  0.00  0.00    +0.000 OA
ATOM     15  C   UNL     1      16.183   1.589  36.193  0.00  0.00    +0.000 C 
BRANCH  15  16
ATOM     16  O   UNL     1      15.113   2.075  35.545  0.00  0.00    +0.000 OA
ATOM     17  H   UNL     1      15.307   3.027  35.418  0.00  0.00    +0.000 HD
ENDBRANCH  15  16
ENDBRANCH  13  15
BRANCH  13  18
ATOM     18  CB  UNL     1      17.921   3.400  35.818  0.00  0.00    +0.000 C 
ATOM     19  CG  UNL     1      18.801   4.236  34.881  0.00  0.00    +0.000 C 
BRANCH  19  21
ATOM     20  OE2 UNL     1      20.614   5.631  34.403  0.00  0.00    +0.000 OA
ATOM     21  CD  UNL     1      19.635   5.016  34.019  0.00  0.00    +0.000 C 
BRANCH  21  22
ATOM     22  OE1 UNL     1      19.234   5.032  32.735  0.00  0.00    +0.000 OA
ATOM     23  HE1 UNL     1      20.058   4.855  32.238  0.00  0.00    +0.000 HD
ENDBRANCH  21  22
ENDBRANCH  19  21
ENDBRANCH  13  18
ENDBRANCH   6  11
ENDBRANCH   1   3
BRANCH   1  24
ATOM     24  C   UNL     1      16.563   2.352  45.029  0.00  0.00    +0.000 C 
BRANCH  24  31
ATOM     25  O   UNL     1      15.726   0.417  49.848  0.00  0.00    +0.000 OA
ATOM     26  N   UNL     1      15.828   1.098  47.024  0.00  0.00    +0.000 N 
ATOM     27  N   UNL     1      14.502  -0.917  45.384  0.00  0.00    +0.000 N 
ATOM     28  N   UNL     1      14.066  -2.199  47.314  0.00  0.00    +0.000 NA
ATOM     29  N   UNL     1      14.550  -1.442  49.446  0.00  0.00    +0.000 N 
ATOM     30  N   UNL     1      13.515  -3.476  49.142  0.00  0.00    +0.000 N 
ATOM     31  C   UNL     1      15.914   1.249  45.645  0.00  0.00    +0.000 C 
ATOM     32  C   UNL     1      15.271   0.209  44.955  0.00  0.00    +0.000 C 
ATOM     33  C   UNL     1      15.197  -0.065  47.545  0.00  0.00    +0.000 A 
ATOM     34  C   UNL     1      14.595  -1.042  46.782  0.00  0.00    +0.000 A 
ATOM     35  C   UNL     1      15.187  -0.316  49.024  0.00  0.00    +0.000 A 
ATOM     36  C   UNL     1      14.049  -2.360  48.592  0.00  0.00    +0.000 A 
ATOM     37  H   UNL     1      14.564  -1.827  44.937  0.00  0.00    +0.000 HD
ATOM     38  H   UNL     1      14.589  -1.628  50.435  0.00  0.00    +0.000 HD
ATOM     39  H   UNL     1      12.977  -4.015  48.469  0.00  0.00    +0.000 HD
ATOM     40  H   UNL     1      13.033  -3.366  50.025  0.00  0.00    +0.000 HD
BRANCH  26  42
ATOM     41  O   UNL     1      16.923   2.827  48.504  0.00  0.00    +0.000 OA
ATOM     42  C   UNL     1      16.381   2.043  47.816  0.00  0.00    +0.000 C 
ENDBRANCH  26  42
ENDBRANCH  24  31
ENDBRANCH   1  24
TORSDOF 10
ENDMDL
MODEL 6
REMARK VINA RESULT:      -6.2     22.560     26.487
REMARK  Name = 135403648_CalciumFolinate.pdbqt.pdb
REMARK  10 active torsions:
REMARK  status: ('A' for Active; 'I' for Inactive)
REMARK    1  A    between atoms: N_1  and  C_3
REMARK    2  A    between atoms: N_1  and  C_24
REMARK    3  A    between atoms: C_6  and  C_11
REMARK    4  A    between atoms: CA_13  and  C_15
REMARK    5  A    between atoms: CA_13  and  CB_18
REMARK    6  A    between atoms: C_15  and  O_16
REMARK    7  A    between atoms: CG_19  and  CD_21
REMARK    8  A    between atoms: CD_21  and  OE1_22
REMARK    9  A    between atoms: C_24  and  C_32
REMARK   10  A    between atoms: N_27  and  C_37
REMARK                            x       y       z     vdW  Elec       q    Type
REMARK                         _______ _______ _______ _____ _____    ______ ____
ROOT
ATOM      1  N   UNL     1      50.357   1.625  29.005  0.00  0.00    +0.000 N 
ATOM      2  H   UNL     1      50.904   1.696  28.147  0.00  0.00    +0.000 HD
ENDROOT
BRANCH   1   3
ATOM      3  C   UNL     1      50.335   0.309  29.514  0.00  0.00    +0.000 A 
ATOM      4  C   UNL     1      49.106  -0.277  29.832  0.00  0.00    +0.000 A 
ATOM      5  C   UNL     1      51.503  -0.367  29.882  0.00  0.00    +0.000 A 
ATOM      6  C   UNL     1      50.214  -2.215  30.753  0.00  0.00    +0.000 A 
ATOM      7  C   UNL     1      49.043  -1.534  30.432  0.00  0.00    +0.000 A 
ATOM      8  C   UNL     1      51.449  -1.624  30.481  0.00  0.00    +0.000 A 
BRANCH   6  11
ATOM      9  O   UNL     1      50.869  -4.452  30.887  0.00  0.00    +0.000 OA
ATOM     10  N   UNL     1      49.407  -3.688  32.514  0.00  0.00    +0.000 N 
ATOM     11  C   ACE A   0      50.197  -3.557  31.388  0.00  0.00    +0.000 C 
ATOM     12  H   UNL     1      48.881  -2.885  32.851  0.00  0.00    +0.000 HD
ATOM     13  CA  UNL     1      49.224  -4.828  33.276  0.00  0.00    +0.000 C 
BRANCH  13  15
ATOM     14  OXT UNL     1      47.972  -5.619  35.152  0.00  0.00    +0.000 OA
ATOM     15  C   UNL     1      48.311  -4.688  34.437  0.00  0.00    +0.000 C 
BRANCH  15  16
ATOM     16  O   UNL     1      47.877  -3.436  34.648  0.00  0.00    +0.000 OA
ATOM     17  H   UNL     1      47.834  -3.346  35.623  0.00  0.00    +0.000 HD
ENDBRANCH  15  16
ENDBRANCH  13  15
BRANCH  13  18
ATOM     18  CB  UNL     1      49.868  -6.056  32.971  0.00  0.00    +0.000 C 
ATOM     19  CG  UNL     1      50.574  -7.378  32.649  0.00  0.00    +0.000 C 
BRANCH  19  21
ATOM     20  OE2 UNL     1      52.164  -8.703  31.564  0.00  0.00    +0.000 OA
ATOM     21  CD  UNL     1      51.246  -8.608  32.359  0.00  0.00    +0.000 C 
BRANCH  21  22
ATOM     22  OE1 UNL     1      50.762  -9.668  33.030  0.00  0.00    +0.000 OA
ATOM     23  HE1 UNL     1      49.829  -9.713  32.740  0.00  0.00    +0.000 HD
ENDBRANCH  21  22
ENDBRANCH  19  21
ENDBRANCH  13  18
ENDBRANCH   6  11
ENDBRANCH   1   3
BRANCH   1  24
ATOM     24  C   UNL     1      50.494   2.735  29.940  0.00  0.00    +0.000 C 
BRANCH  24  31
ATOM     25  O   UNL     1      51.515   7.894  30.055  0.00  0.00    +0.000 OA
ATOM     26  N   UNL     1      50.822   5.111  30.525  0.00  0.00    +0.000 N 
ATOM     27  N   UNL     1      50.492   4.551  33.369  0.00  0.00    +0.000 N 
ATOM     28  N   UNL     1      51.077   6.779  33.873  0.00  0.00    +0.000 NA
ATOM     29  N   UNL     1      51.419   8.377  32.235  0.00  0.00    +0.000 N 
ATOM     30  N   UNL     1      51.547   8.949  34.462  0.00  0.00    +0.000 N 
ATOM     31  C   UNL     1      50.607   3.786  30.889  0.00  0.00    +0.000 C 
ATOM     32  C   UNL     1      50.496   3.627  32.279  0.00  0.00    +0.000 C 
ATOM     33  C   UNL     1      50.968   6.085  31.552  0.00  0.00    +0.000 A 
ATOM     34  C   UNL     1      50.847   5.830  32.900  0.00  0.00    +0.000 A 
ATOM     35  C   UNL     1      51.313   7.501  31.199  0.00  0.00    +0.000 A 
ATOM     36  C   UNL     1      51.340   7.992  33.527  0.00  0.00    +0.000 A 
ATOM     37  H   UNL     1      50.945   4.356  34.257  0.00  0.00    +0.000 HD
ATOM     38  H   UNL     1      51.698   9.315  31.995  0.00  0.00    +0.000 HD
ATOM     39  H   UNL     1      51.269   8.644  35.391  0.00  0.00    +0.000 HD
ATOM     40  H   UNL     1      51.218   9.880  34.244  0.00  0.00    +0.000 HD
BRANCH  26  42
ATOM     41  O   UNL     1      50.977   5.743  28.085  0.00  0.00    +0.000 OA
ATOM     42  C   UNL     1      50.922   5.415  29.213  0.00  0.00    +0.000 C 
ENDBRANCH  26  42
ENDBRANCH  24  31
ENDBRANCH   1  24
TORSDOF 10
ENDMDL
MODEL 7
REMARK VINA RESULT:      -6.2      6.692     10.008
REMARK  Name = 135403648_CalciumFolinate.pdbqt.pdb
REMARK  10 active torsions:
REMARK  status: ('A' for Active; 'I' for Inactive)
REMARK    1  A    between atoms: N_1  and  C_3
REMARK    2  A    between atoms: N_1  and  C_24
REMARK    3  A    between atoms: C_6  and  C_11
REMARK    4  A    between atoms: CA_13  and  C_15
REMARK    5  A    between atoms: CA_13  and  CB_18
REMARK    6  A    between atoms: C_15  and  O_16
REMARK    7  A    between atoms: CG_19  and  CD_21
REMARK    8  A    between atoms: CD_21  and  OE1_22
REMARK    9  A    between atoms: C_24  and  C_32
REMARK   10  A    between atoms: N_27  and  C_37
REMARK                            x       y       z     vdW  Elec       q    Type
REMARK                         _______ _______ _______ _____ _____    ______ ____
ROOT
ATOM      1  N   UNL     1      39.944   3.565  12.137  0.00  0.00    +0.000 N 
ATOM      2  H   UNL     1      38.942   3.572  11.948  0.00  0.00    +0.000 HD
ENDROOT
BRANCH   1   3
ATOM      3  C   UNL     1      40.279   4.357  13.256  0.00  0.00    +0.000 A 
ATOM      4  C   UNL     1      41.379   5.216  13.178  0.00  0.00    +0.000 A 
ATOM      5  C   UNL     1      39.664   4.184  14.502  0.00  0.00    +0.000 A 
ATOM      6  C   UNL     1      41.158   5.791  15.513  0.00  0.00    +0.000 A 
ATOM      7  C   UNL     1      41.807   5.940  14.290  0.00  0.00    +0.000 A 
ATOM      8  C   UNL     1      40.085   4.905  15.618  0.00  0.00    +0.000 A 
BRANCH   6  11
ATOM      9  O   UNL     1      42.735   6.929  16.805  0.00  0.00    +0.000 OA
ATOM     10  N   UNL     1      40.597   6.749  17.678  0.00  0.00    +0.000 N 
ATOM     11  C   ACE A   0      41.574   6.543  16.723  0.00  0.00    +0.000 C 
ATOM     12  H   UNL     1      39.660   6.385  17.521  0.00  0.00    +0.000 HD
ATOM     13  CA  UNL     1      40.736   7.414  18.884  0.00  0.00    +0.000 C 
BRANCH  13  15
ATOM     14  OXT UNL     1      38.440   7.908  19.331  0.00  0.00    +0.000 OA
ATOM     15  C   UNL     1      39.517   7.484  19.726  0.00  0.00    +0.000 C 
BRANCH  15  16
ATOM     16  O   UNL     1      39.686   7.037  20.979  0.00  0.00    +0.000 OA
ATOM     17  H   UNL     1      39.008   7.507  21.508  0.00  0.00    +0.000 HD
ENDBRANCH  15  16
ENDBRANCH  13  15
BRANCH  13  18
ATOM     18  CB  UNL     1      41.965   7.994  19.292  0.00  0.00    +0.000 C 
ATOM     19  CG  UNL     1      43.299   8.612  19.729  0.00  0.00    +0.000 C 
BRANCH  19  21
ATOM     20  OE2 UNL     1      45.469   8.516  20.591  0.00  0.00    +0.000 OA
ATOM     21  CD  UNL     1      44.553   9.173  20.129  0.00  0.00    +0.000 C 
BRANCH  21  22
ATOM     22  OE1 UNL     1      44.632  10.507  19.971  0.00  0.00    +0.000 OA
ATOM     23  HE1 UNL     1      43.956  10.694  19.289  0.00  0.00    +0.000 HD
ENDBRANCH  21  22
ENDBRANCH  19  21
ENDBRANCH  13  18
ENDBRANCH   6  11
ENDBRANCH   1   3
BRANCH   1  24
ATOM     24  C   UNL     1      40.617   2.284  11.960  0.00  0.00    +0.000 C 
BRANCH  24  31
ATOM     25  O   UNL     1      45.388   0.276  12.897  0.00  0.00    +0.000 OA
ATOM     26  N   UNL     1      42.614   0.863  12.258  0.00  0.00    +0.000 N 
ATOM     27  N   UNL     1      41.296  -1.413  10.996  0.00  0.00    +0.000 N 
ATOM     28  N   UNL     1      43.319  -2.622  11.071  0.00  0.00    +0.000 NA
ATOM     29  N   UNL     1      45.214  -1.815  12.124  0.00  0.00    +0.000 N 
ATOM     30  N   UNL     1      45.215  -3.914  11.180  0.00  0.00    +0.000 N 
ATOM     31  C   UNL     1      41.318   1.060  11.794  0.00  0.00    +0.000 C 
ATOM     32  C   UNL     1      40.793  -0.087  11.178  0.00  0.00    +0.000 C 
ATOM     33  C   UNL     1      43.248  -0.384  12.002  0.00  0.00    +0.000 A 
ATOM     34  C   UNL     1      42.650  -1.457  11.379  0.00  0.00    +0.000 A 
ATOM     35  C   UNL     1      44.684  -0.589  12.386  0.00  0.00    +0.000 A 
ATOM     36  C   UNL     1      44.542  -2.771  11.448  0.00  0.00    +0.000 A 
ATOM     37  H   UNL     1      41.146  -1.946  10.145  0.00  0.00    +0.000 HD
ATOM     38  H   UNL     1      46.191  -1.930  12.341  0.00  0.00    +0.000 HD
ATOM     39  H   UNL     1      44.598  -4.657  10.863  0.00  0.00    +0.000 HD
ATOM     40  H   UNL     1      45.876  -4.231  11.877  0.00  0.00    +0.000 HD
BRANCH  26  42
ATOM     41  O   UNL     1      43.805   2.713  13.499  0.00  0.00    +0.000 OA
ATOM     42  C   UNL     1      43.234   1.878  12.899  0.00  0.00    +0.000 C 
ENDBRANCH  26  42
ENDBRANCH  24  31
ENDBRANCH   1  24
TORSDOF 10
ENDMDL
MODEL 8
REMARK VINA RESULT:      -6.1     25.779     27.895
REMARK  Name = 135403648_CalciumFolinate.pdbqt.pdb
REMARK  10 active torsions:
REMARK  status: ('A' for Active; 'I' for Inactive)
REMARK    1  A    between atoms: N_1  and  C_3
REMARK    2  A    between atoms: N_1  and  C_24
REMARK    3  A    between atoms: C_6  and  C_11
REMARK    4  A    between atoms: CA_13  and  C_15
REMARK    5  A    between atoms: CA_13  and  CB_18
REMARK    6  A    between atoms: C_15  and  O_16
REMARK    7  A    between atoms: CG_19  and  CD_21
REMARK    8  A    between atoms: CD_21  and  OE1_22
REMARK    9  A    between atoms: C_24  and  C_32
REMARK   10  A    between atoms: N_27  and  C_37
REMARK                            x       y       z     vdW  Elec       q    Type
REMARK                         _______ _______ _______ _____ _____    ______ ____
ROOT
ATOM      1  N   UNL     1      40.912 -20.045  -4.177  0.00  0.00    +0.000 N 
ATOM      2  H   UNL     1      40.183 -20.570  -4.660  0.00  0.00    +0.000 HD
ENDROOT
BRANCH   1   3
ATOM      3  C   UNL     1      42.019 -19.780  -5.011  0.00  0.00    +0.000 A 
ATOM      4  C   UNL     1      42.000 -18.646  -5.828  0.00  0.00    +0.000 A 
ATOM      5  C   UNL     1      43.057 -20.703  -5.186  0.00  0.00    +0.000 A 
ATOM      6  C   UNL     1      44.075 -19.306  -6.873  0.00  0.00    +0.000 A 
ATOM      7  C   UNL     1      43.026 -18.400  -6.740  0.00  0.00    +0.000 A 
ATOM      8  C   UNL     1      44.085 -20.464  -6.094  0.00  0.00    +0.000 A 
BRANCH   6  11
ATOM      9  O   UNL     1      45.431 -19.950  -8.661  0.00  0.00    +0.000 OA
ATOM     10  N   UNL     1      45.883 -17.896  -7.690  0.00  0.00    +0.000 N 
ATOM     11  C   ACE A   0      45.191 -19.085  -7.826  0.00  0.00    +0.000 C 
ATOM     12  H   UNL     1      45.611 -17.241  -6.961  0.00  0.00    +0.000 HD
ATOM     13  CA  UNL     1      46.955 -17.463  -8.450  0.00  0.00    +0.000 C 
BRANCH  13  15
ATOM     14  OXT UNL     1      48.675 -15.813  -8.277  0.00  0.00    +0.000 OA
ATOM     15  C   UNL     1      47.514 -16.140  -8.081  0.00  0.00    +0.000 C 
BRANCH  15  16
ATOM     16  O   UNL     1      46.630 -15.310  -7.506  0.00  0.00    +0.000 OA
ATOM     17  H   UNL     1      46.460 -15.697  -6.622  0.00  0.00    +0.000 HD
ENDBRANCH  15  16
ENDBRANCH  13  15
BRANCH  13  18
ATOM     18  CB  UNL     1      47.489 -18.233  -9.516  0.00  0.00    +0.000 C 
ATOM     19  CG  UNL     1      48.059 -19.058 -10.676  0.00  0.00    +0.000 C 
BRANCH  19  21
ATOM     20  OE2 UNL     1      48.329 -19.578 -12.938  0.00  0.00    +0.000 OA
ATOM     21  CD  UNL     1      48.585 -19.815 -11.771  0.00  0.00    +0.000 C 
BRANCH  21  22
ATOM     22  OE1 UNL     1      49.378 -20.837 -11.401  0.00  0.00    +0.000 OA
ATOM     23  HE1 UNL     1      50.087 -20.398 -10.889  0.00  0.00    +0.000 HD
ENDBRANCH  21  22
ENDBRANCH  19  21
ENDBRANCH  13  18
ENDBRANCH   6  11
ENDBRANCH   1   3
BRANCH   1  24
ATOM     24  C   UNL     1      40.449 -18.996  -3.275  0.00  0.00    +0.000 C 
BRANCH  24  31
ATOM     25  O   UNL     1      42.402 -14.635  -1.075  0.00  0.00    +0.000 OA
ATOM     26  N   UNL     1      40.844 -16.878  -2.070  0.00  0.00    +0.000 N 
ATOM     27  N   UNL     1      38.194 -16.970  -0.853  0.00  0.00    +0.000 N 
ATOM     28  N   UNL     1      38.738 -15.094   0.468  0.00  0.00    +0.000 NA
ATOM     29  N   UNL     1      40.720 -13.927   0.217  0.00  0.00    +0.000 N 
ATOM     30  N   UNL     1      39.138 -13.219   1.733  0.00  0.00    +0.000 N 
ATOM     31  C   UNL     1      40.046 -17.976  -2.374  0.00  0.00    +0.000 C 
ATOM     32  C   UNL     1      38.809 -17.934  -1.711  0.00  0.00    +0.000 C 
ATOM     33  C   UNL     1      40.370 -15.932  -1.119  0.00  0.00    +0.000 A 
ATOM     34  C   UNL     1      39.134 -15.979  -0.512  0.00  0.00    +0.000 A 
ATOM     35  C   UNL     1      41.251 -14.800  -0.683  0.00  0.00    +0.000 A 
ATOM     36  C   UNL     1      39.512 -14.116   0.791  0.00  0.00    +0.000 A 
ATOM     37  H   UNL     1      37.636 -17.229  -0.045  0.00  0.00    +0.000 HD
ATOM     38  H   UNL     1      41.334 -13.197   0.541  0.00  0.00    +0.000 HD
ATOM     39  H   UNL     1      38.152 -13.296   1.965  0.00  0.00    +0.000 HD
ATOM     40  H   UNL     1      39.430 -12.260   1.593  0.00  0.00    +0.000 HD
BRANCH  26  42
ATOM     41  O   UNL     1      43.121 -16.751  -3.153  0.00  0.00    +0.000 OA
ATOM     42  C   UNL     1      42.055 -16.774  -2.660  0.00  0.00    +0.000 C 
ENDBRANCH  26  42
ENDBRANCH  24  31
ENDBRANCH   1  24
TORSDOF 10
ENDMDL
MODEL 9
REMARK VINA RESULT:      -5.9      8.426     10.560
REMARK  Name = 135403648_CalciumFolinate.pdbqt.pdb
REMARK  10 active torsions:
REMARK  status: ('A' for Active; 'I' for Inactive)
REMARK    1  A    between atoms: N_1  and  C_3
REMARK    2  A    between atoms: N_1  and  C_24
REMARK    3  A    between atoms: C_6  and  C_11
REMARK    4  A    between atoms: CA_13  and  C_15
REMARK    5  A    between atoms: CA_13  and  CB_18
REMARK    6  A    between atoms: C_15  and  O_16
REMARK    7  A    between atoms: CG_19  and  CD_21
REMARK    8  A    between atoms: CD_21  and  OE1_22
REMARK    9  A    between atoms: C_24  and  C_32
REMARK   10  A    between atoms: N_27  and  C_37
REMARK                            x       y       z     vdW  Elec       q    Type
REMARK                         _______ _______ _______ _____ _____    ______ ____
ROOT
ATOM      1  N   UNL     1      41.513   1.617   6.009  0.00  0.00    +0.000 N 
ATOM      2  H   UNL     1      41.855   2.438   5.511  0.00  0.00    +0.000 HD
ENDROOT
BRANCH   1   3
ATOM      3  C   UNL     1      42.494   0.608   6.110  0.00  0.00    +0.000 A 
ATOM      4  C   UNL     1      42.898  -0.067   4.954  0.00  0.00    +0.000 A 
ATOM      5  C   UNL     1      42.948   0.131   7.345  0.00  0.00    +0.000 A 
ATOM      6  C   UNL     1      44.267  -1.573   6.254  0.00  0.00    +0.000 A 
ATOM      7  C   UNL     1      43.789  -1.138   5.020  0.00  0.00    +0.000 A 
ATOM      8  C   UNL     1      43.839  -0.938   7.420  0.00  0.00    +0.000 A 
BRANCH   6  11
ATOM      9  O   UNL     1      45.269  -3.322   7.433  0.00  0.00    +0.000 OA
ATOM     10  N   UNL     1      45.988  -2.976   5.258  0.00  0.00    +0.000 N 
ATOM     11  C   ACE A   0      45.219  -2.706   6.374  0.00  0.00    +0.000 C 
ATOM     12  H   UNL     1      45.878  -2.404   4.425  0.00  0.00    +0.000 HD
ATOM     13  CA  UNL     1      46.942  -3.970   5.123  0.00  0.00    +0.000 C 
BRANCH  13  15
ATOM     14  OXT UNL     1      48.436  -4.895   3.503  0.00  0.00    +0.000 OA
ATOM     15  C   UNL     1      47.626  -4.033   3.808  0.00  0.00    +0.000 C 
BRANCH  15  16
ATOM     16  O   UNL     1      47.280  -3.052   2.961  0.00  0.00    +0.000 OA
ATOM     17  H   UNL     1      47.165  -2.260   3.526  0.00  0.00    +0.000 HD
ENDBRANCH  15  16
ENDBRANCH  13  15
BRANCH  13  18
ATOM     18  CB  UNL     1      47.248  -4.875   6.173  0.00  0.00    +0.000 C 
ATOM     19  CG  UNL     1      47.586  -5.844   7.311  0.00  0.00    +0.000 C 
BRANCH  19  21
ATOM     20  OE2 UNL     1      48.965  -7.349   8.451  0.00  0.00    +0.000 OA
ATOM     21  CD  UNL     1      47.914  -6.737   8.381  0.00  0.00    +0.000 C 
BRANCH  21  22
ATOM     22  OE1 UNL     1      46.945  -6.863   9.306  0.00  0.00    +0.000 OA
ATOM     23  HE1 UNL     1      47.173  -6.178   9.967  0.00  0.00    +0.000 HD
ENDBRANCH  21  22
ENDBRANCH  19  21
ENDBRANCH  13  18
ENDBRANCH   6  11
ENDBRANCH   1   3
BRANCH   1  24
ATOM     24  C   UNL     1      40.661   1.881   7.162  0.00  0.00    +0.000 C 
BRANCH  24  31
ATOM     25  O   UNL     1      37.679  -0.792  10.574  0.00  0.00    +0.000 OA
ATOM     26  N   UNL     1      39.209   1.121   9.009  0.00  0.00    +0.000 N 
ATOM     27  N   UNL     1      38.657   3.865   9.829  0.00  0.00    +0.000 N 
ATOM     28  N   UNL     1      37.081   3.078  11.395  0.00  0.00    +0.000 NA
ATOM     29  N   UNL     1      36.756   0.826  11.810  0.00  0.00    +0.000 N 
ATOM     30  N   UNL     1      35.593   2.408  13.012  0.00  0.00    +0.000 N 
ATOM     31  C   UNL     1      39.789   2.135   8.255  0.00  0.00    +0.000 C 
ATOM     32  C   UNL     1      39.432   3.412   8.716  0.00  0.00    +0.000 C 
ATOM     33  C   UNL     1      38.313   1.476  10.055  0.00  0.00    +0.000 A 
ATOM     34  C   UNL     1      38.018   2.767  10.433  0.00  0.00    +0.000 A 
ATOM     35  C   UNL     1      37.583   0.407  10.813  0.00  0.00    +0.000 A 
ATOM     36  C   UNL     1      36.499   2.130  12.046  0.00  0.00    +0.000 A 
ATOM     37  H   UNL     1      38.029   4.661   9.773  0.00  0.00    +0.000 HD
ATOM     38  H   UNL     1      36.233   0.106  12.283  0.00  0.00    +0.000 HD
ATOM     39  H   UNL     1      35.605   3.389  13.278  0.00  0.00    +0.000 HD
ATOM     40  H   UNL     1      35.573   1.789  13.812  0.00  0.00    +0.000 HD
BRANCH  26  42
ATOM     41  O   UNL     1      39.707  -1.267   8.353  0.00  0.00    +0.000 OA
ATOM     42  C   UNL     1      39.489  -0.163   8.694  0.00  0.00    +0.000 C 
ENDBRANCH  26  42
ENDBRANCH  24  31
ENDBRANCH   1  24
TORSDOF 10
ENDMDL
