MODEL 1
REMARK VINA RESULT:      -7.9      0.000      0.000
REMARK  Name = 135423438_Nintedanib.pdbqt.pdb
REMARK  9 active torsions:
REMARK  status: ('A' for Active; 'I' for Inactive)
REMARK    1  A    between atoms: N_1  and  C_22
REMARK    2  A    between atoms: C_2  and  C_4
REMARK    3  A    between atoms: C_2  and  C_37
REMARK    4  A    between atoms: C_7  and  O_13
REMARK    5  A    between atoms: C_10  and  C_16
REMARK    6  A    between atoms: C_16  and  O_17
REMARK    7  A    between atoms: C_19  and  N_26
REMARK    8  A    between atoms: C_27  and  C_29
REMARK    9  A    between atoms: C_29  and  N_30
REMARK                            x       y       z     vdW  Elec       q    Type
REMARK                         _______ _______ _______ _____ _____    ______ ____
ROOT
ATOM      1  N   UNL     1      20.973  11.595  18.950  0.00  0.00    +0.000 NA
ATOM      2  C   UNL     1      20.528  10.964  17.902  0.00  0.00    +0.000 C 
ENDROOT
BRANCH   2   4
ATOM      3  N   UNL     1      21.359   7.423  17.462  0.00  0.00    +0.000 N 
ATOM      4  C   UNL     1      20.663   9.502  17.908  0.00  0.00    +0.000 A 
ATOM      5  C   UNL     1      19.872   8.564  18.661  0.00  0.00    +0.000 A 
ATOM      6  C   UNL     1      20.332   7.283  18.362  0.00  0.00    +0.000 A 
ATOM      7  C   UNL     1      21.570   8.748  17.174  0.00  0.00    +0.000 A 
ATOM      8  C   UNL     1      18.808   8.691  19.577  0.00  0.00    +0.000 A 
ATOM      9  C   UNL     1      19.785   6.125  18.924  0.00  0.00    +0.000 A 
ATOM     10  C   UNL     1      18.726   6.285  19.828  0.00  0.00    +0.000 A 
ATOM     11  C   UNL     1      18.246   7.549  20.151  0.00  0.00    +0.000 A 
ATOM     12  H   UNL     1      21.876   6.650  17.070  0.00  0.00    +0.000 HD
BRANCH   7  13
ATOM     13  O   UNL     1      22.506   9.127  16.311  0.00  0.00    +0.000 OA
ATOM     14  H   UNL     1      23.047   8.367  16.034  0.00  0.00    +0.000 HD
ENDBRANCH   7  13
BRANCH  10  16
ATOM     15  O   UNL     1      17.344   5.223  21.438  0.00  0.00    +0.000 OA
ATOM     16  C   UNL     1      18.085   5.118  20.472  0.00  0.00    +0.000 C 
BRANCH  16  17
ATOM     17  O   UNL     1      18.468   3.989  19.810  0.00  0.00    +0.000 OA
ATOM     18  C   UNL     1      17.755   2.804  20.053  0.00  0.00    +0.000 C 
ENDBRANCH  16  17
ENDBRANCH  10  16
ENDBRANCH   2   4
BRANCH   1  22
ATOM     19  C   UNL     1      20.849  15.812  19.281  0.00  0.00    +0.000 A 
ATOM     20  C   UNL     1      19.840  15.006  19.815  0.00  0.00    +0.000 A 
ATOM     21  C   UNL     1      21.906  15.164  18.629  0.00  0.00    +0.000 A 
ATOM     22  C   UNL     1      20.919  12.993  19.022  0.00  0.00    +0.000 A 
ATOM     23  C   UNL     1      19.873  13.617  19.700  0.00  0.00    +0.000 A 
ATOM     24  C   UNL     1      21.951  13.776  18.508  0.00  0.00    +0.000 A 
BRANCH  19  26
ATOM     25  O   UNL     1      19.517  17.600  17.435  0.00  0.00    +0.000 OA
ATOM     26  N   UNL     1      20.814  17.253  19.392  0.00  0.00    +0.000 N 
ATOM     27  C   UNL     1      20.125  18.016  18.416  0.00  0.00    +0.000 C 
ATOM     28  C   UNL     1      21.531  17.808  20.544  0.00  0.00    +0.000 C 
BRANCH  27  29
ATOM     29  C   UNL     1      20.141  19.462  18.590  0.00  0.00    +0.000 C 
BRANCH  29  30
ATOM     30  N   UNL     1      20.135  20.910  18.785  0.00  0.00    +0.000 N 
ATOM     31  N   UNL     1      21.515  22.043  21.853  0.00  0.00    +0.000 N 
ATOM     32  C   UNL     1      19.526  21.162  20.120  0.00  0.00    +0.000 C 
ATOM     33  C   UNL     1      21.521  21.291  19.174  0.00  0.00    +0.000 C 
ATOM     34  C   UNL     1      20.131  21.655  21.466  0.00  0.00    +0.000 C 
ATOM     35  C   UNL     1      22.126  21.784  20.521  0.00  0.00    +0.000 C 
ATOM     36  C   UNL     1      22.008  21.009  22.752  0.00  0.00    +0.000 C 
ENDBRANCH  29  30
ENDBRANCH  27  29
ENDBRANCH  19  26
ENDBRANCH   1  22
BRANCH   2  37
ATOM     37  C   UNL     1      19.912  11.607  16.728  0.00  0.00    +0.000 A 
ATOM     38  C   UNL     1      20.714  11.985  15.653  0.00  0.00    +0.000 A 
ATOM     39  C   UNL     1      18.531  11.795  16.703  0.00  0.00    +0.000 A 
ATOM     40  C   UNL     1      20.121  12.567  14.537  0.00  0.00    +0.000 A 
ATOM     41  C   UNL     1      17.948  12.379  15.583  0.00  0.00    +0.000 A 
ATOM     42  C   UNL     1      18.741  12.764  14.502  0.00  0.00    +0.000 A 
ENDBRANCH   2  37
TORSDOF 9
ENDMDL
MODEL 2
REMARK VINA RESULT:      -7.6     18.147     21.561
REMARK  Name = 135423438_Nintedanib.pdbqt.pdb
REMARK  9 active torsions:
REMARK  status: ('A' for Active; 'I' for Inactive)
REMARK    1  A    between atoms: N_1  and  C_22
REMARK    2  A    between atoms: C_2  and  C_4
REMARK    3  A    between atoms: C_2  and  C_37
REMARK    4  A    between atoms: C_7  and  O_13
REMARK    5  A    between atoms: C_10  and  C_16
REMARK    6  A    between atoms: C_16  and  O_17
REMARK    7  A    between atoms: C_19  and  N_26
REMARK    8  A    between atoms: C_27  and  C_29
REMARK    9  A    between atoms: C_29  and  N_30
REMARK                            x       y       z     vdW  Elec       q    Type
REMARK                         _______ _______ _______ _____ _____    ______ ____
ROOT
ATOM      1  N   UNL     1      25.449  -0.294   6.209  0.00  0.00    +0.000 NA
ATOM      2  C   UNL     1      25.699   0.106   4.996  0.00  0.00    +0.000 C 
ENDROOT
BRANCH   2   4
ATOM      3  N   UNL     1      28.652   2.202   4.440  0.00  0.00    +0.000 N 
ATOM      4  C   UNL     1      27.017   0.709   4.760  0.00  0.00    +0.000 A 
ATOM      5  C   UNL     1      28.260   0.015   4.551  0.00  0.00    +0.000 A 
ATOM      6  C   UNL     1      29.255   0.972   4.358  0.00  0.00    +0.000 A 
ATOM      7  C   UNL     1      27.307   2.065   4.676  0.00  0.00    +0.000 A 
ATOM      8  C   UNL     1      28.631  -1.345   4.516  0.00  0.00    +0.000 A 
ATOM      9  C   UNL     1      30.595   0.644   4.128  0.00  0.00    +0.000 A 
ATOM     10  C   UNL     1      30.930  -0.716   4.095  0.00  0.00    +0.000 A 
ATOM     11  C   UNL     1      29.962  -1.696   4.288  0.00  0.00    +0.000 A 
ATOM     12  H   UNL     1      29.140   3.078   4.333  0.00  0.00    +0.000 HD
BRANCH   7  13
ATOM     13  O   UNL     1      26.512   3.125   4.778  0.00  0.00    +0.000 OA
ATOM     14  H   UNL     1      25.978   3.234   3.971  0.00  0.00    +0.000 HD
ENDBRANCH   7  13
BRANCH  10  16
ATOM     15  O   UNL     1      33.260  -0.771   4.539  0.00  0.00    +0.000 OA
ATOM     16  C   UNL     1      32.322  -1.158   3.858  0.00  0.00    +0.000 C 
BRANCH  16  17
ATOM     17  O   UNL     1      32.332  -2.020   2.802  0.00  0.00    +0.000 OA
ATOM     18  C   UNL     1      32.540  -1.491   1.517  0.00  0.00    +0.000 C 
ENDBRANCH  16  17
ENDBRANCH  10  16
ENDBRANCH   2   4
BRANCH   1  22
ATOM     19  C   UNL     1      21.744  -2.016   7.311  0.00  0.00    +0.000 A 
ATOM     20  C   UNL     1      22.789  -2.791   6.802  0.00  0.00    +0.000 A 
ATOM     21  C   UNL     1      21.975  -0.639   7.441  0.00  0.00    +0.000 A 
ATOM     22  C   UNL     1      24.208  -0.850   6.540  0.00  0.00    +0.000 A 
ATOM     23  C   UNL     1      24.008  -2.226   6.430  0.00  0.00    +0.000 A 
ATOM     24  C   UNL     1      23.189  -0.063   7.072  0.00  0.00    +0.000 A 
BRANCH  19  26
ATOM     25  O   UNL     1      21.085  -3.013   9.947  0.00  0.00    +0.000 OA
ATOM     26  N   UNL     1      20.476  -2.597   7.691  0.00  0.00    +0.000 N 
ATOM     27  C   UNL     1      20.282  -3.049   9.020  0.00  0.00    +0.000 C 
ATOM     28  C   UNL     1      19.478  -2.672   6.621  0.00  0.00    +0.000 C 
BRANCH  27  29
ATOM     29  C   UNL     1      18.981  -3.630   9.325  0.00  0.00    +0.000 C 
BRANCH  29  30
ATOM     30  N   UNL     1      17.688  -4.240   9.626  0.00  0.00    +0.000 N 
ATOM     31  N   UNL     1      16.563  -3.859  12.971  0.00  0.00    +0.000 N 
ATOM     32  C   UNL     1      17.879  -5.074  10.845  0.00  0.00    +0.000 C 
ATOM     33  C   UNL     1      16.868  -3.188  10.289  0.00  0.00    +0.000 C 
ATOM     34  C   UNL     1      17.389  -4.906  12.312  0.00  0.00    +0.000 C 
ATOM     35  C   UNL     1      16.378  -3.020  11.757  0.00  0.00    +0.000 C 
ATOM     36  C   UNL     1      17.448  -3.123  13.863  0.00  0.00    +0.000 C 
ENDBRANCH  29  30
ENDBRANCH  27  29
ENDBRANCH  19  26
ENDBRANCH   1  22
BRANCH   2  37
ATOM     37  C   UNL     1      24.762  -0.000   3.863  0.00  0.00    +0.000 A 
ATOM     38  C   UNL     1      24.727  -1.172   3.110  0.00  0.00    +0.000 A 
ATOM     39  C   UNL     1      23.905   1.064   3.588  0.00  0.00    +0.000 A 
ATOM     40  C   UNL     1      23.821  -1.274   2.058  0.00  0.00    +0.000 A 
ATOM     41  C   UNL     1      23.004   0.952   2.534  0.00  0.00    +0.000 A 
ATOM     42  C   UNL     1      22.962  -0.214   1.771  0.00  0.00    +0.000 A 
ENDBRANCH   2  37
TORSDOF 9
ENDMDL
MODEL 3
REMARK VINA RESULT:      -7.3     18.022     21.093
REMARK  Name = 135423438_Nintedanib.pdbqt.pdb
REMARK  9 active torsions:
REMARK  status: ('A' for Active; 'I' for Inactive)
REMARK    1  A    between atoms: N_1  and  C_22
REMARK    2  A    between atoms: C_2  and  C_4
REMARK    3  A    between atoms: C_2  and  C_37
REMARK    4  A    between atoms: C_7  and  O_13
REMARK    5  A    between atoms: C_10  and  C_16
REMARK    6  A    between atoms: C_16  and  O_17
REMARK    7  A    between atoms: C_19  and  N_26
REMARK    8  A    between atoms: C_27  and  C_29
REMARK    9  A    between atoms: C_29  and  N_30
REMARK                            x       y       z     vdW  Elec       q    Type
REMARK                         _______ _______ _______ _____ _____    ______ ____
ROOT
ATOM      1  N   UNL     1      22.948  -2.280   6.260  0.00  0.00    +0.000 NA
ATOM      2  C   UNL     1      21.839  -1.599   6.236  0.00  0.00    +0.000 C 
ENDROOT
BRANCH   2   4
ATOM      3  N   UNL     1      18.623  -3.266   6.783  0.00  0.00    +0.000 N 
ATOM      4  C   UNL     1      20.633  -2.288   6.714  0.00  0.00    +0.000 A 
ATOM      5  C   UNL     1      20.353  -2.704   8.063  0.00  0.00    +0.000 A 
ATOM      6  C   UNL     1      19.098  -3.309   8.070  0.00  0.00    +0.000 A 
ATOM      7  C   UNL     1      19.529  -2.652   5.955  0.00  0.00    +0.000 A 
ATOM      8  C   UNL     1      21.060  -2.625   9.281  0.00  0.00    +0.000 A 
ATOM      9  C   UNL     1      18.511  -3.835   9.226  0.00  0.00    +0.000 A 
ATOM     10  C   UNL     1      19.237  -3.737  10.420  0.00  0.00    +0.000 A 
ATOM     11  C   UNL     1      20.493  -3.143  10.447  0.00  0.00    +0.000 A 
ATOM     12  H   UNL     1      17.727  -3.633   6.500  0.00  0.00    +0.000 HD
BRANCH   7  13
ATOM     13  O   UNL     1      19.277  -2.481   4.662  0.00  0.00    +0.000 OA
ATOM     14  H   UNL     1      20.089  -2.247   4.180  0.00  0.00    +0.000 HD
ENDBRANCH   7  13
BRANCH  10  16
ATOM     15  O   UNL     1      17.730  -3.769  12.253  0.00  0.00    +0.000 OA
ATOM     16  C   UNL     1      18.696  -4.265  11.692  0.00  0.00    +0.000 C 
BRANCH  16  17
ATOM     17  O   UNL     1      19.445  -5.339  12.072  0.00  0.00    +0.000 OA
ATOM     18  C   UNL     1      19.157  -5.944  13.306  0.00  0.00    +0.000 C 
ENDBRANCH  16  17
ENDBRANCH  10  16
ENDBRANCH   2   4
BRANCH   1  22
ATOM     19  C   UNL     1      26.619  -0.684   4.888  0.00  0.00    +0.000 A 
ATOM     20  C   UNL     1      26.259  -0.636   6.236  0.00  0.00    +0.000 A 
ATOM     21  C   UNL     1      25.711  -1.284   4.005  0.00  0.00    +0.000 A 
ATOM     22  C   UNL     1      24.143  -1.720   5.793  0.00  0.00    +0.000 A 
ATOM     23  C   UNL     1      25.046  -1.152   6.691  0.00  0.00    +0.000 A 
ATOM     24  C   UNL     1      24.496  -1.805   4.447  0.00  0.00    +0.000 A 
BRANCH  19  26
ATOM     25  O   UNL     1      29.124  -2.130   4.758  0.00  0.00    +0.000 OA
ATOM     26  N   UNL     1      27.872  -0.143   4.411  0.00  0.00    +0.000 N 
ATOM     27  C   UNL     1      29.031  -0.960   4.400  0.00  0.00    +0.000 C 
ATOM     28  C   UNL     1      27.823   1.255   3.975  0.00  0.00    +0.000 C 
BRANCH  27  29
ATOM     29  C   UNL     1      30.257  -0.342   3.914  0.00  0.00    +0.000 C 
BRANCH  29  30
ATOM     30  N   UNL     1      31.473   0.284   3.400  0.00  0.00    +0.000 N 
ATOM     31  N   UNL     1      33.784  -1.921   1.850  0.00  0.00    +0.000 N 
ATOM     32  C   UNL     1      32.620  -0.500   3.937  0.00  0.00    +0.000 C 
ATOM     33  C   UNL     1      31.622  -0.176   1.990  0.00  0.00    +0.000 C 
ATOM     34  C   UNL     1      33.631  -1.468   3.259  0.00  0.00    +0.000 C 
ATOM     35  C   UNL     1      32.634  -1.145   1.312  0.00  0.00    +0.000 C 
ATOM     36  C   UNL     1      33.401  -3.326   1.813  0.00  0.00    +0.000 C 
ENDBRANCH  29  30
ENDBRANCH  27  29
ENDBRANCH  19  26
ENDBRANCH   1  22
BRANCH   2  37
ATOM     37  C   UNL     1      21.712  -0.208   5.765  0.00  0.00    +0.000 A 
ATOM     38  C   UNL     1      21.361   0.038   4.439  0.00  0.00    +0.000 A 
ATOM     39  C   UNL     1      21.914   0.836   6.667  0.00  0.00    +0.000 A 
ATOM     40  C   UNL     1      21.218   1.354   4.009  0.00  0.00    +0.000 A 
ATOM     41  C   UNL     1      21.769   2.147   6.227  0.00  0.00    +0.000 A 
ATOM     42  C   UNL     1      21.421   2.406   4.901  0.00  0.00    +0.000 A 
ENDBRANCH   2  37
TORSDOF 9
ENDMDL
MODEL 4
REMARK VINA RESULT:      -6.8      3.185      4.611
REMARK  Name = 135423438_Nintedanib.pdbqt.pdb
REMARK  9 active torsions:
REMARK  status: ('A' for Active; 'I' for Inactive)
REMARK    1  A    between atoms: N_1  and  C_22
REMARK    2  A    between atoms: C_2  and  C_4
REMARK    3  A    between atoms: C_2  and  C_37
REMARK    4  A    between atoms: C_7  and  O_13
REMARK    5  A    between atoms: C_10  and  C_16
REMARK    6  A    between atoms: C_16  and  O_17
REMARK    7  A    between atoms: C_19  and  N_26
REMARK    8  A    between atoms: C_27  and  C_29
REMARK    9  A    between atoms: C_29  and  N_30
REMARK                            x       y       z     vdW  Elec       q    Type
REMARK                         _______ _______ _______ _____ _____    ______ ____
ROOT
ATOM      1  N   UNL     1      19.812  11.419  16.067  0.00  0.00    +0.000 NA
ATOM      2  C   UNL     1      20.407  11.197  17.203  0.00  0.00    +0.000 C 
ENDROOT
BRANCH   2   4
ATOM      3  N   UNL     1      21.631   7.773  17.645  0.00  0.00    +0.000 N 
ATOM      4  C   UNL     1      20.679   9.794  17.540  0.00  0.00    +0.000 A 
ATOM      5  C   UNL     1      19.875   8.932  18.367  0.00  0.00    +0.000 A 
ATOM      6  C   UNL     1      20.497   7.686  18.412  0.00  0.00    +0.000 A 
ATOM      7  C   UNL     1      21.756   9.030  17.109  0.00  0.00    +0.000 A 
ATOM      8  C   UNL     1      18.675   9.103  19.087  0.00  0.00    +0.000 A 
ATOM      9  C   UNL     1      19.983   6.603  19.133  0.00  0.00    +0.000 A 
ATOM     10  C   UNL     1      18.787   6.804  19.835  0.00  0.00    +0.000 A 
ATOM     11  C   UNL     1      18.144   8.037  19.814  0.00  0.00    +0.000 A 
ATOM     12  H   UNL     1      22.274   7.008  17.499  0.00  0.00    +0.000 HD
BRANCH   7  13
ATOM     13  O   UNL     1      22.773   9.345  16.315  0.00  0.00    +0.000 OA
ATOM     14  H   UNL     1      22.724   8.849  15.478  0.00  0.00    +0.000 HD
ENDBRANCH   7  13
BRANCH  10  16
ATOM     15  O   UNL     1      17.439   5.931  21.582  0.00  0.00    +0.000 OA
ATOM     16  C   UNL     1      18.170   5.717  20.626  0.00  0.00    +0.000 C 
BRANCH  16  17
ATOM     17  O   UNL     1      18.559   4.521  20.101  0.00  0.00    +0.000 OA
ATOM     18  C   UNL     1      17.603   3.496  20.005  0.00  0.00    +0.000 C 
ENDBRANCH  16  17
ENDBRANCH  10  16
ENDBRANCH   2   4
BRANCH   1  22
ATOM     19  C   UNL     1      18.763  15.310  14.777  0.00  0.00    +0.000 A 
ATOM     20  C   UNL     1      19.896  14.657  14.284  0.00  0.00    +0.000 A 
ATOM     21  C   UNL     1      17.988  14.622  15.719  0.00  0.00    +0.000 A 
ATOM     22  C   UNL     1      19.480  12.721  15.674  0.00  0.00    +0.000 A 
ATOM     23  C   UNL     1      20.249  13.378  14.714  0.00  0.00    +0.000 A 
ATOM     24  C   UNL     1      18.330  13.343  16.156  0.00  0.00    +0.000 A 
BRANCH  19  26
ATOM     25  O   UNL     1      17.077  15.918  12.503  0.00  0.00    +0.000 OA
ATOM     26  N   UNL     1      18.397  16.639  14.339  0.00  0.00    +0.000 N 
ATOM     27  C   UNL     1      17.562  16.800  13.205  0.00  0.00    +0.000 C 
ATOM     28  C   UNL     1      18.954  17.734  15.138  0.00  0.00    +0.000 C 
BRANCH  27  29
ATOM     29  C   UNL     1      17.244  18.168  12.821  0.00  0.00    +0.000 C 
BRANCH  29  30
ATOM     30  N   UNL     1      16.900  19.540  12.454  0.00  0.00    +0.000 N 
ATOM     31  N   UNL     1      18.265  22.066  14.541  0.00  0.00    +0.000 N 
ATOM     32  C   UNL     1      16.389  20.200  13.687  0.00  0.00    +0.000 C 
ATOM     33  C   UNL     1      18.182  20.296  12.396  0.00  0.00    +0.000 C 
ATOM     34  C   UNL     1      16.988  21.305  14.604  0.00  0.00    +0.000 C 
ATOM     35  C   UNL     1      18.781  21.402  13.314  0.00  0.00    +0.000 C 
ATOM     36  C   UNL     1      19.088  21.603  15.650  0.00  0.00    +0.000 C 
ENDBRANCH  29  30
ENDBRANCH  27  29
ENDBRANCH  19  26
ENDBRANCH   1  22
BRANCH   2  37
ATOM     37  C   UNL     1      20.815  12.241  18.161  0.00  0.00    +0.000 A 
ATOM     38  C   UNL     1      21.925  13.035  17.878  0.00  0.00    +0.000 A 
ATOM     39  C   UNL     1      20.060  12.436  19.316  0.00  0.00    +0.000 A 
ATOM     40  C   UNL     1      22.287  14.036  18.774  0.00  0.00    +0.000 A 
ATOM     41  C   UNL     1      20.431  13.438  20.206  0.00  0.00    +0.000 A 
ATOM     42  C   UNL     1      21.542  14.237  19.936  0.00  0.00    +0.000 A 
ENDBRANCH   2  37
TORSDOF 9
ENDMDL
MODEL 5
REMARK VINA RESULT:      -6.6     34.002     35.405
REMARK  Name = 135423438_Nintedanib.pdbqt.pdb
REMARK  9 active torsions:
REMARK  status: ('A' for Active; 'I' for Inactive)
REMARK    1  A    between atoms: N_1  and  C_22
REMARK    2  A    between atoms: C_2  and  C_4
REMARK    3  A    between atoms: C_2  and  C_37
REMARK    4  A    between atoms: C_7  and  O_13
REMARK    5  A    between atoms: C_10  and  C_16
REMARK    6  A    between atoms: C_16  and  O_17
REMARK    7  A    between atoms: C_19  and  N_26
REMARK    8  A    between atoms: C_27  and  C_29
REMARK    9  A    between atoms: C_29  and  N_30
REMARK                            x       y       z     vdW  Elec       q    Type
REMARK                         _______ _______ _______ _____ _____    ______ ____
ROOT
ATOM      1  N   UNL     1      52.087   3.293  31.730  0.00  0.00    +0.000 NA
ATOM      2  C   UNL     1      51.021   3.330  30.984  0.00  0.00    +0.000 C 
ENDROOT
BRANCH   2   4
ATOM      3  N   UNL     1      50.629   0.943  28.233  0.00  0.00    +0.000 N 
ATOM      4  C   UNL     1      50.812   2.192  30.079  0.00  0.00    +0.000 A 
ATOM      5  C   UNL     1      50.453   0.848  30.448  0.00  0.00    +0.000 A 
ATOM      6  C   UNL     1      50.350   0.098  29.278  0.00  0.00    +0.000 A 
ATOM      7  C   UNL     1      50.904   2.205  28.693  0.00  0.00    +0.000 A 
ATOM      8  C   UNL     1      50.213   0.199  31.677  0.00  0.00    +0.000 A 
ATOM      9  C   UNL     1      50.016  -1.260  29.269  0.00  0.00    +0.000 A 
ATOM     10  C   UNL     1      49.780  -1.874  30.506  0.00  0.00    +0.000 A 
ATOM     11  C   UNL     1      49.879  -1.156  31.692  0.00  0.00    +0.000 A 
ATOM     12  H   UNL     1      50.623   0.662  27.263  0.00  0.00    +0.000 HD
BRANCH   7  13
ATOM     13  O   UNL     1      51.187   3.199  27.857  0.00  0.00    +0.000 OA
ATOM     14  H   UNL     1      51.027   4.061  28.279  0.00  0.00    +0.000 HD
ENDBRANCH   7  13
BRANCH  10  16
ATOM     15  O   UNL     1      49.981  -4.080  31.359  0.00  0.00    +0.000 OA
ATOM     16  C   UNL     1      49.422  -3.307  30.595  0.00  0.00    +0.000 C 
BRANCH  16  17
ATOM     17  O   UNL     1      48.415  -3.560  29.712  0.00  0.00    +0.000 OA
ATOM     18  C   UNL     1      47.109  -3.190  30.073  0.00  0.00    +0.000 C 
ENDBRANCH  16  17
ENDBRANCH  10  16
ENDBRANCH   2   4
BRANCH   1  22
ATOM     19  C   UNL     1      53.075   6.406  34.421  0.00  0.00    +0.000 A 
ATOM     20  C   UNL     1      52.154   5.411  34.759  0.00  0.00    +0.000 A 
ATOM     21  C   UNL     1      53.659   6.330  33.149  0.00  0.00    +0.000 A 
ATOM     22  C   UNL     1      52.390   4.347  32.600  0.00  0.00    +0.000 A 
ATOM     23  C   UNL     1      51.820   4.389  33.871  0.00  0.00    +0.000 A 
ATOM     24  C   UNL     1      53.334   5.313  32.253  0.00  0.00    +0.000 A 
BRANCH  19  26
ATOM     25  O   UNL     1      51.733   8.965  34.588  0.00  0.00    +0.000 OA
ATOM     26  N   UNL     1      53.419   7.471  35.335  0.00  0.00    +0.000 N 
ATOM     27  C   UNL     1      52.680   8.680  35.314  0.00  0.00    +0.000 C 
ATOM     28  C   UNL     1      54.549   7.190  36.225  0.00  0.00    +0.000 C 
BRANCH  27  29
ATOM     29  C   UNL     1      53.091   9.710  36.259  0.00  0.00    +0.000 C 
BRANCH  29  30
ATOM     30  N   UNL     1      53.487  10.729  37.228  0.00  0.00    +0.000 N 
ATOM     31  N   UNL     1      55.563  13.314  35.960  0.00  0.00    +0.000 N 
ATOM     32  C   UNL     1      54.967  10.863  37.130  0.00  0.00    +0.000 C 
ATOM     33  C   UNL     1      53.174  12.047  36.609  0.00  0.00    +0.000 C 
ATOM     34  C   UNL     1      55.878  11.995  36.572  0.00  0.00    +0.000 C 
ATOM     35  C   UNL     1      54.085  13.179  36.049  0.00  0.00    +0.000 C 
ATOM     36  C   UNL     1      55.912  13.220  34.549  0.00  0.00    +0.000 C 
ENDBRANCH  29  30
ENDBRANCH  27  29
ENDBRANCH  19  26
ENDBRANCH   1  22
BRANCH   2  37
ATOM     37  C   UNL     1      50.029   4.419  30.983  0.00  0.00    +0.000 A 
ATOM     38  C   UNL     1      50.279   5.575  30.245  0.00  0.00    +0.000 A 
ATOM     39  C   UNL     1      48.842   4.257  31.695  0.00  0.00    +0.000 A 
ATOM     40  C   UNL     1      49.325   6.587  30.228  0.00  0.00    +0.000 A 
ATOM     41  C   UNL     1      47.895   5.276  31.672  0.00  0.00    +0.000 A 
ATOM     42  C   UNL     1      48.136   6.439  30.940  0.00  0.00    +0.000 A 
ENDBRANCH   2  37
TORSDOF 9
ENDMDL
MODEL 6
REMARK VINA RESULT:      -6.3     34.257     37.731
REMARK  Name = 135423438_Nintedanib.pdbqt.pdb
REMARK  9 active torsions:
REMARK  status: ('A' for Active; 'I' for Inactive)
REMARK    1  A    between atoms: N_1  and  C_22
REMARK    2  A    between atoms: C_2  and  C_4
REMARK    3  A    between atoms: C_2  and  C_37
REMARK    4  A    between atoms: C_7  and  O_13
REMARK    5  A    between atoms: C_10  and  C_16
REMARK    6  A    between atoms: C_16  and  O_17
REMARK    7  A    between atoms: C_19  and  N_26
REMARK    8  A    between atoms: C_27  and  C_29
REMARK    9  A    between atoms: C_29  and  N_30
REMARK                            x       y       z     vdW  Elec       q    Type
REMARK                         _______ _______ _______ _____ _____    ______ ____
ROOT
ATOM      1  N   UNL     1      51.945   0.261  30.706  0.00  0.00    +0.000 NA
ATOM      2  C   UNL     1      50.671   0.459  30.889  0.00  0.00    +0.000 C 
ENDROOT
BRANCH   2   4
ATOM      3  N   UNL     1      49.571   2.846  33.440  0.00  0.00    +0.000 N 
ATOM      4  C   UNL     1      50.298   1.605  31.727  0.00  0.00    +0.000 A 
ATOM      5  C   UNL     1      50.360   2.997  31.366  0.00  0.00    +0.000 A 
ATOM      6  C   UNL     1      49.905   3.740  32.453  0.00  0.00    +0.000 A 
ATOM      7  C   UNL     1      49.796   1.559  33.021  0.00  0.00    +0.000 A 
ATOM      8  C   UNL     1      50.772   3.693  30.211  0.00  0.00    +0.000 A 
ATOM      9  C   UNL     1      49.833   5.137  32.447  0.00  0.00    +0.000 A 
ATOM     10  C   UNL     1      50.246   5.799  31.283  0.00  0.00    +0.000 A 
ATOM     11  C   UNL     1      50.710   5.088  30.182  0.00  0.00    +0.000 A 
ATOM     12  H   UNL     1      49.207   3.113  34.343  0.00  0.00    +0.000 HD
BRANCH   7  13
ATOM     13  O   UNL     1      49.529   0.521  33.806  0.00  0.00    +0.000 OA
ATOM     14  H   UNL     1      49.662   0.753  34.742  0.00  0.00    +0.000 HD
ENDBRANCH   7  13
BRANCH  10  16
ATOM     15  O   UNL     1      49.719   7.858  30.228  0.00  0.00    +0.000 OA
ATOM     16  C   UNL     1      50.206   7.274  31.185  0.00  0.00    +0.000 C 
BRANCH  16  17
ATOM     17  O   UNL     1      50.783   7.801  32.302  0.00  0.00    +0.000 OA
ATOM     18  C   UNL     1      52.113   8.244  32.215  0.00  0.00    +0.000 C 
ENDBRANCH  16  17
ENDBRANCH  10  16
ENDBRANCH   2   4
BRANCH   1  22
ATOM     19  C   UNL     1      53.427  -2.970  28.411  0.00  0.00    +0.000 A 
ATOM     20  C   UNL     1      53.023  -1.774  27.814  0.00  0.00    +0.000 A 
ATOM     21  C   UNL     1      53.320  -3.057  29.805  0.00  0.00    +0.000 A 
ATOM     22  C   UNL     1      52.400  -0.826  29.950  0.00  0.00    +0.000 A 
ATOM     23  C   UNL     1      52.526  -0.710  28.566  0.00  0.00    +0.000 A 
ATOM     24  C   UNL     1      52.825  -2.001  30.568  0.00  0.00    +0.000 A 
BRANCH  19  26
ATOM     25  O   UNL     1      51.873  -4.579  26.573  0.00  0.00    +0.000 OA
ATOM     26  N   UNL     1      53.936  -4.078  27.634  0.00  0.00    +0.000 N 
ATOM     27  C   UNL     1      53.066  -4.787  26.768  0.00  0.00    +0.000 C 
ATOM     28  C   UNL     1      55.358  -4.378  27.830  0.00  0.00    +0.000 C 
BRANCH  27  29
ATOM     29  C   UNL     1      53.650  -5.896  26.025  0.00  0.00    +0.000 C 
BRANCH  29  30
ATOM     30  N   UNL     1      54.234  -7.025  25.304  0.00  0.00    +0.000 N 
ATOM     31  N   UNL     1      53.961 -10.172  26.922  0.00  0.00    +0.000 N 
ATOM     32  C   UNL     1      55.124  -7.734  26.264  0.00  0.00    +0.000 C 
ATOM     33  C   UNL     1      53.187  -8.083  25.257  0.00  0.00    +0.000 C 
ATOM     34  C   UNL     1      55.004  -9.112  26.976  0.00  0.00    +0.000 C 
ATOM     35  C   UNL     1      53.066  -9.462  25.970  0.00  0.00    +0.000 C 
ATOM     36  C   UNL     1      53.289 -10.170  28.215  0.00  0.00    +0.000 C 
ENDBRANCH  29  30
ENDBRANCH  27  29
ENDBRANCH  19  26
ENDBRANCH   1  22
BRANCH   2  37
ATOM     37  C   UNL     1      49.597  -0.378  30.324  0.00  0.00    +0.000 A 
ATOM     38  C   UNL     1      49.398  -1.665  30.820  0.00  0.00    +0.000 A 
ATOM     39  C   UNL     1      48.779   0.149  29.326  0.00  0.00    +0.000 A 
ATOM     40  C   UNL     1      48.365  -2.438  30.300  0.00  0.00    +0.000 A 
ATOM     41  C   UNL     1      47.749  -0.633  28.813  0.00  0.00    +0.000 A 
ATOM     42  C   UNL     1      47.542  -1.924  29.299  0.00  0.00    +0.000 A 
ENDBRANCH   2  37
TORSDOF 9
ENDMDL
MODEL 7
REMARK VINA RESULT:      -6.3     22.449     26.073
REMARK  Name = 135423438_Nintedanib.pdbqt.pdb
REMARK  9 active torsions:
REMARK  status: ('A' for Active; 'I' for Inactive)
REMARK    1  A    between atoms: N_1  and  C_22
REMARK    2  A    between atoms: C_2  and  C_4
REMARK    3  A    between atoms: C_2  and  C_37
REMARK    4  A    between atoms: C_7  and  O_13
REMARK    5  A    between atoms: C_10  and  C_16
REMARK    6  A    between atoms: C_16  and  O_17
REMARK    7  A    between atoms: C_19  and  N_26
REMARK    8  A    between atoms: C_27  and  C_29
REMARK    9  A    between atoms: C_29  and  N_30
REMARK                            x       y       z     vdW  Elec       q    Type
REMARK                         _______ _______ _______ _____ _____    ______ ____
ROOT
ATOM      1  N   UNL     1      17.868   4.757  43.498  0.00  0.00    +0.000 NA
ATOM      2  C   UNL     1      17.065   3.843  43.961  0.00  0.00    +0.000 C 
ENDROOT
BRANCH   2   4
ATOM      3  N   UNL     1      17.207   4.094  47.613  0.00  0.00    +0.000 N 
ATOM      4  C   UNL     1      17.007   3.696  45.421  0.00  0.00    +0.000 A 
ATOM      5  C   UNL     1      16.521   2.558  46.156  0.00  0.00    +0.000 A 
ATOM      6  C   UNL     1      16.657   2.840  47.514  0.00  0.00    +0.000 A 
ATOM      7  C   UNL     1      17.428   4.622  46.367  0.00  0.00    +0.000 A 
ATOM      8  C   UNL     1      15.970   1.314  45.788  0.00  0.00    +0.000 A 
ATOM      9  C   UNL     1      16.278   1.945  48.521  0.00  0.00    +0.000 A 
ATOM     10  C   UNL     1      15.738   0.716  48.121  0.00  0.00    +0.000 A 
ATOM     11  C   UNL     1      15.584   0.405  46.775  0.00  0.00    +0.000 A 
ATOM     12  H   UNL     1      17.418   4.550  48.488  0.00  0.00    +0.000 HD
BRANCH   7  13
ATOM     13  O   UNL     1      17.971   5.825  46.213  0.00  0.00    +0.000 OA
ATOM     14  H   UNL     1      18.169   6.227  47.077  0.00  0.00    +0.000 HD
ENDBRANCH   7  13
BRANCH  10  16
ATOM     15  O   UNL     1      16.094  -0.863  49.857  0.00  0.00    +0.000 OA
ATOM     16  C   UNL     1      15.308  -0.292  49.115  0.00  0.00    +0.000 C 
BRANCH  16  17
ATOM     17  O   UNL     1      13.955  -0.436  49.034  0.00  0.00    +0.000 OA
ATOM     18  C   UNL     1      13.147   0.597  49.538  0.00  0.00    +0.000 C 
ENDBRANCH  16  17
ENDBRANCH  10  16
ENDBRANCH   2   4
BRANCH   1  22
ATOM     19  C   UNL     1      18.365   5.446  39.353  0.00  0.00    +0.000 A 
ATOM     20  C   UNL     1      17.311   6.019  40.068  0.00  0.00    +0.000 A 
ATOM     21  C   UNL     1      19.254   4.631  40.067  0.00  0.00    +0.000 A 
ATOM     22  C   UNL     1      18.017   4.950  42.119  0.00  0.00    +0.000 A 
ATOM     23  C   UNL     1      17.138   5.786  41.432  0.00  0.00    +0.000 A 
ATOM     24  C   UNL     1      19.093   4.392  41.431  0.00  0.00    +0.000 A 
BRANCH  19  26
ATOM     25  O   UNL     1      19.700   7.736  38.188  0.00  0.00    +0.000 OA
ATOM     26  N   UNL     1      18.543   5.678  37.937  0.00  0.00    +0.000 N 
ATOM     27  C   UNL     1      19.217   6.845  37.496  0.00  0.00    +0.000 C 
ATOM     28  C   UNL     1      17.980   4.648  37.060  0.00  0.00    +0.000 C 
BRANCH  27  29
ATOM     29  C   UNL     1      19.350   7.013  36.055  0.00  0.00    +0.000 C 
BRANCH  29  30
ATOM     30  N   UNL     1      19.476   7.153  34.606  0.00  0.00    +0.000 N 
ATOM     31  N   UNL     1      17.475   4.941  32.681  0.00  0.00    +0.000 N 
ATOM     32  C   UNL     1      19.734   5.790  34.064  0.00  0.00    +0.000 C 
ATOM     33  C   UNL     1      18.091   7.271  34.071  0.00  0.00    +0.000 C 
ATOM     34  C   UNL     1      18.856   4.819  33.223  0.00  0.00    +0.000 C 
ATOM     35  C   UNL     1      17.213   6.299  33.230  0.00  0.00    +0.000 C 
ATOM     36  C   UNL     1      16.643   4.013  33.435  0.00  0.00    +0.000 C 
ENDBRANCH  29  30
ENDBRANCH  27  29
ENDBRANCH  19  26
ENDBRANCH   1  22
BRANCH   2  37
ATOM     37  C   UNL     1      16.227   2.958  43.132  0.00  0.00    +0.000 A 
ATOM     38  C   UNL     1      16.801   1.844  42.522  0.00  0.00    +0.000 A 
ATOM     39  C   UNL     1      14.867   3.235  43.003  0.00  0.00    +0.000 A 
ATOM     40  C   UNL     1      15.997   0.998  41.764  0.00  0.00    +0.000 A 
ATOM     41  C   UNL     1      14.073   2.384  42.242  0.00  0.00    +0.000 A 
ATOM     42  C   UNL     1      14.636   1.268  41.624  0.00  0.00    +0.000 A 
ENDBRANCH   2  37
TORSDOF 9
ENDMDL
MODEL 8
REMARK VINA RESULT:      -6.3     34.631     37.725
REMARK  Name = 135423438_Nintedanib.pdbqt.pdb
REMARK  9 active torsions:
REMARK  status: ('A' for Active; 'I' for Inactive)
REMARK    1  A    between atoms: N_1  and  C_22
REMARK    2  A    between atoms: C_2  and  C_4
REMARK    3  A    between atoms: C_2  and  C_37
REMARK    4  A    between atoms: C_7  and  O_13
REMARK    5  A    between atoms: C_10  and  C_16
REMARK    6  A    between atoms: C_16  and  O_17
REMARK    7  A    between atoms: C_19  and  N_26
REMARK    8  A    between atoms: C_27  and  C_29
REMARK    9  A    between atoms: C_29  and  N_30
REMARK                            x       y       z     vdW  Elec       q    Type
REMARK                         _______ _______ _______ _____ _____    ______ ____
ROOT
ATOM      1  N   UNL     1      51.693   0.143  30.610  0.00  0.00    +0.000 NA
ATOM      2  C   UNL     1      50.490  -0.066  31.062  0.00  0.00    +0.000 C 
ENDROOT
BRANCH   2   4
ATOM      3  N   UNL     1      49.015   2.729  32.916  0.00  0.00    +0.000 N 
ATOM      4  C   UNL     1      49.971   0.913  32.027  0.00  0.00    +0.000 A 
ATOM      5  C   UNL     1      50.038   0.830  33.462  0.00  0.00    +0.000 A 
ATOM      6  C   UNL     1      49.433   1.972  33.983  0.00  0.00    +0.000 A 
ATOM      7  C   UNL     1      49.333   2.111  31.733  0.00  0.00    +0.000 A 
ATOM      8  C   UNL     1      50.554  -0.120  34.367  0.00  0.00    +0.000 A 
ATOM      9  C   UNL     1      49.321   2.219  35.355  0.00  0.00    +0.000 A 
ATOM     10  C   UNL     1      49.847   1.257  36.228  0.00  0.00    +0.000 A 
ATOM     11  C   UNL     1      50.453   0.105  35.742  0.00  0.00    +0.000 A 
ATOM     12  H   UNL     1      48.545   3.617  33.004  0.00  0.00    +0.000 HD
BRANCH   7  13
ATOM     13  O   UNL     1      49.040   2.667  30.563  0.00  0.00    +0.000 OA
ATOM     14  H   UNL     1      48.088   2.592  30.374  0.00  0.00    +0.000 HD
ENDBRANCH   7  13
BRANCH  10  16
ATOM     15  O   UNL     1      48.838   1.015  38.362  0.00  0.00    +0.000 OA
ATOM     16  C   UNL     1      49.773   1.432  37.695  0.00  0.00    +0.000 C 
BRANCH  16  17
ATOM     17  O   UNL     1      50.884   2.104  38.111  0.00  0.00    +0.000 OA
ATOM     18  C   UNL     1      51.074   2.281  39.491  0.00  0.00    +0.000 C 
ENDBRANCH  16  17
ENDBRANCH  10  16
ENDBRANCH   2   4
BRANCH   1  22
ATOM     19  C   UNL     1      53.581  -2.488  27.887  0.00  0.00    +0.000 A 
ATOM     20  C   UNL     1      52.892  -1.354  27.450  0.00  0.00    +0.000 A 
ATOM     21  C   UNL     1      53.620  -2.719  29.268  0.00  0.00    +0.000 A 
ATOM     22  C   UNL     1      52.287  -0.752  29.713  0.00  0.00    +0.000 A 
ATOM     23  C   UNL     1      52.262  -0.490  28.344  0.00  0.00    +0.000 A 
ATOM     24  C   UNL     1      52.994  -1.863  30.172  0.00  0.00    +0.000 A 
BRANCH  19  26
ATOM     25  O   UNL     1      52.238  -4.479  26.271  0.00  0.00    +0.000 OA
ATOM     26  N   UNL     1      54.230  -3.391  26.963  0.00  0.00    +0.000 N 
ATOM     27  C   UNL     1      53.454  -4.323  26.230  0.00  0.00    +0.000 C 
ATOM     28  C   UNL     1      55.687  -3.254  26.876  0.00  0.00    +0.000 C 
BRANCH  27  29
ATOM     29  C   UNL     1      54.180  -5.204  25.325  0.00  0.00    +0.000 C 
BRANCH  29  30
ATOM     30  N   UNL     1      54.929  -6.093  24.439  0.00  0.00    +0.000 N 
ATOM     31  N   UNL     1      54.679  -5.357  20.975  0.00  0.00    +0.000 N 
ATOM     32  C   UNL     1      53.979  -6.551  23.387  0.00  0.00    +0.000 C 
ATOM     33  C   UNL     1      55.736  -5.216  23.544  0.00  0.00    +0.000 C 
ATOM     34  C   UNL     1      53.867  -6.226  21.869  0.00  0.00    +0.000 C 
ATOM     35  C   UNL     1      55.623  -4.891  22.026  0.00  0.00    +0.000 C 
ATOM     36  C   UNL     1      53.843  -4.217  20.623  0.00  0.00    +0.000 C 
ENDBRANCH  29  30
ENDBRANCH  27  29
ENDBRANCH  19  26
ENDBRANCH   1  22
BRANCH   2  37
ATOM     37  C   UNL     1      49.630  -1.200  30.680  0.00  0.00    +0.000 A 
ATOM     38  C   UNL     1      49.720  -2.398  31.387  0.00  0.00    +0.000 A 
ATOM     39  C   UNL     1      48.717  -1.040  29.639  0.00  0.00    +0.000 A 
ATOM     40  C   UNL     1      48.886  -3.455  31.038  0.00  0.00    +0.000 A 
ATOM     41  C   UNL     1      47.889  -2.103  29.297  0.00  0.00    +0.000 A 
ATOM     42  C   UNL     1      47.972  -3.308  29.995  0.00  0.00    +0.000 A 
ENDBRANCH   2  37
TORSDOF 9
ENDMDL
MODEL 9
REMARK VINA RESULT:      -6.3     24.150     28.057
REMARK  Name = 135423438_Nintedanib.pdbqt.pdb
REMARK  9 active torsions:
REMARK  status: ('A' for Active; 'I' for Inactive)
REMARK    1  A    between atoms: N_1  and  C_22
REMARK    2  A    between atoms: C_2  and  C_4
REMARK    3  A    between atoms: C_2  and  C_37
REMARK    4  A    between atoms: C_7  and  O_13
REMARK    5  A    between atoms: C_10  and  C_16
REMARK    6  A    between atoms: C_16  and  O_17
REMARK    7  A    between atoms: C_19  and  N_26
REMARK    8  A    between atoms: C_27  and  C_29
REMARK    9  A    between atoms: C_29  and  N_30
REMARK                            x       y       z     vdW  Elec       q    Type
REMARK                         _______ _______ _______ _____ _____    ______ ____
ROOT
ATOM      1  N   UNL     1      15.434   0.732  43.556  0.00  0.00    +0.000 NA
ATOM      2  C   UNL     1      15.317   1.042  44.815  0.00  0.00    +0.000 C 
ENDROOT
BRANCH   2   4
ATOM      3  N   UNL     1      13.553  -1.725  46.442  0.00  0.00    +0.000 N 
ATOM      4  C   UNL     1      14.735   0.020  45.693  0.00  0.00    +0.000 A 
ATOM      5  C   UNL     1      14.939  -0.119  47.111  0.00  0.00    +0.000 A 
ATOM      6  C   UNL     1      14.193  -1.214  47.544  0.00  0.00    +0.000 A 
ATOM      7  C   UNL     1      13.862  -0.995  45.323  0.00  0.00    +0.000 A 
ATOM      8  C   UNL     1      15.700   0.585  48.067  0.00  0.00    +0.000 A 
ATOM      9  C   UNL     1      14.162  -1.638  48.876  0.00  0.00    +0.000 A 
ATOM     10  C   UNL     1      14.925  -0.915  49.802  0.00  0.00    +0.000 A 
ATOM     11  C   UNL     1      15.684   0.180  49.403  0.00  0.00    +0.000 A 
ATOM     12  H   UNL     1      12.938  -2.525  46.467  0.00  0.00    +0.000 HD
BRANCH   7  13
ATOM     13  O   UNL     1      13.343  -1.296  44.137  0.00  0.00    +0.000 OA
ATOM     14  H   UNL     1      13.208  -0.491  43.606  0.00  0.00    +0.000 HD
ENDBRANCH   7  13
BRANCH  10  16
ATOM     15  O   UNL     1      14.154  -2.072  51.724  0.00  0.00    +0.000 OA
ATOM     16  C   UNL     1      14.954  -1.290  51.232  0.00  0.00    +0.000 C 
BRANCH  16  17
ATOM     17  O   UNL     1      15.983  -0.631  51.835  0.00  0.00    +0.000 OA
ATOM     18  C   UNL     1      15.770  -0.105  53.120  0.00  0.00    +0.000 C 
ENDBRANCH  16  17
ENDBRANCH  10  16
ENDBRANCH   2   4
BRANCH   1  22
ATOM     19  C   UNL     1      16.974   3.433  40.686  0.00  0.00    +0.000 A 
ATOM     20  C   UNL     1      17.774   2.444  41.264  0.00  0.00    +0.000 A 
ATOM     21  C   UNL     1      15.636   3.493  41.098  0.00  0.00    +0.000 A 
ATOM     22  C   UNL     1      15.946   1.653  42.635  0.00  0.00    +0.000 A 
ATOM     23  C   UNL     1      17.272   1.558  42.216  0.00  0.00    +0.000 A 
ATOM     24  C   UNL     1      15.122   2.613  42.049  0.00  0.00    +0.000 A 
BRANCH  19  26
ATOM     25  O   UNL     1      17.468   2.813  37.902  0.00  0.00    +0.000 OA
ATOM     26  N   UNL     1      17.492   4.358  39.703  0.00  0.00    +0.000 N 
ATOM     27  C   UNL     1      17.690   3.926  38.368  0.00  0.00    +0.000 C 
ATOM     28  C   UNL     1      17.782   5.704  40.205  0.00  0.00    +0.000 C 
BRANCH  27  29
ATOM     29  C   UNL     1      18.222   4.913  37.438  0.00  0.00    +0.000 C 
BRANCH  29  30
ATOM     30  N   UNL     1      18.744   5.887  36.482  0.00  0.00    +0.000 N 
ATOM     31  N   UNL     1      17.860   5.319  33.091  0.00  0.00    +0.000 N 
ATOM     32  C   UNL     1      19.403   5.111  35.395  0.00  0.00    +0.000 C 
ATOM     33  C   UNL     1      17.584   6.340  35.664  0.00  0.00    +0.000 C 
ATOM     34  C   UNL     1      19.015   4.859  33.909  0.00  0.00    +0.000 C 
ATOM     35  C   UNL     1      17.196   6.088  34.178  0.00  0.00    +0.000 C 
ATOM     36  C   UNL     1      17.032   4.149  32.833  0.00  0.00    +0.000 C 
ENDBRANCH  29  30
ENDBRANCH  27  29
ENDBRANCH  19  26
ENDBRANCH   1  22
BRANCH   2  37
ATOM     37  C   UNL     1      15.718   2.331  45.407  0.00  0.00    +0.000 A 
ATOM     38  C   UNL     1      14.748   3.296  45.672  0.00  0.00    +0.000 A 
ATOM     39  C   UNL     1      17.059   2.545  45.722  0.00  0.00    +0.000 A 
ATOM     40  C   UNL     1      15.132   4.499  46.255  0.00  0.00    +0.000 A 
ATOM     41  C   UNL     1      17.432   3.752  46.304  0.00  0.00    +0.000 A 
ATOM     42  C   UNL     1      16.471   4.727  46.571  0.00  0.00    +0.000 A 
ENDBRANCH   2  37
TORSDOF 9
ENDMDL
