MODEL 1
REMARK VINA RESULT:      -8.2      0.000      0.000
REMARK  Name = 14132199_RiccardinD.pdbqt.pdb
REMARK  3 active torsions:
REMARK  status: ('A' for Active; 'I' for Inactive)
REMARK    1  A    between atoms: C_11  and  O_30
REMARK    2  A    between atoms: C_16  and  O_32
REMARK    3  A    between atoms: C_28  and  O_34
REMARK                            x       y       z     vdW  Elec       q    Type
REMARK                         _______ _______ _______ _____ _____    ______ ____
ROOT
ATOM      1  O   UNL     1      14.581   5.676  19.780  0.00  0.00    +0.000 OA
ATOM      2  C   UNL     1      17.694  11.890  19.560  0.00  0.00    +0.000 C 
ATOM      3  C   UNL     1      18.768  12.813  19.327  0.00  0.00    +0.000 A 
ATOM      4  C   UNL     1      20.052  12.371  18.914  0.00  0.00    +0.000 A 
ATOM      5  C   UNL     1      16.648  10.778  19.740  0.00  0.00    +0.000 C 
ATOM      6  C   UNL     1      20.139   6.751  18.642  0.00  0.00    +0.000 C 
ATOM      7  C   UNL     1      20.366  10.927  18.832  0.00  0.00    +0.000 A 
ATOM      8  C   UNL     1      20.534   8.118  18.726  0.00  0.00    +0.000 A 
ATOM      9  C   UNL     1      19.255   5.502  18.691  0.00  0.00    +0.000 C 
ATOM     10  C   UNL     1      15.836   9.609  19.835  0.00  0.00    +0.000 A 
ATOM     11  C   UNL     1      20.646  10.260  17.630  0.00  0.00    +0.000 A 
ATOM     12  C   UNL     1      18.059   4.757  18.880  0.00  0.00    +0.000 A 
ATOM     13  C   UNL     1      20.294  10.151  19.998  0.00  0.00    +0.000 A 
ATOM     14  C   UNL     1      20.708   8.866  17.566  0.00  0.00    +0.000 A 
ATOM     15  C   UNL     1      20.367   8.762  19.949  0.00  0.00    +0.000 A 
ATOM     16  C   UNL     1      21.000  13.365  18.610  0.00  0.00    +0.000 A 
ATOM     17  C   UNL     1      18.488  14.173  19.472  0.00  0.00    +0.000 A 
ATOM     18  C   UNL     1      20.721  14.721  18.774  0.00  0.00    +0.000 A 
ATOM     19  C   UNL     1      19.467  15.125  19.215  0.00  0.00    +0.000 A 
ATOM     20  C   UNL     1      16.939   5.510  19.214  0.00  0.00    +0.000 A 
ATOM     21  C   UNL     1      15.820   8.876  21.023  0.00  0.00    +0.000 A 
ATOM     22  C   UNL     1      15.242   9.092  18.683  0.00  0.00    +0.000 A 
ATOM     23  C   UNL     1      15.698   4.928  19.444  0.00  0.00    +0.000 A 
ATOM     24  C   UNL     1      17.955   3.379  18.766  0.00  0.00    +0.000 A 
ATOM     25  C   UNL     1      14.797   7.039  19.854  0.00  0.00    +0.000 A 
ATOM     26  C   UNL     1      15.288   7.589  21.040  0.00  0.00    +0.000 A 
ATOM     27  C   UNL     1      14.708   7.805  18.691  0.00  0.00    +0.000 A 
ATOM     28  C   UNL     1      15.594   3.546  19.330  0.00  0.00    +0.000 A 
ATOM     29  C   UNL     1      16.712   2.774  18.993  0.00  0.00    +0.000 A 
ENDROOT
BRANCH  11  30
ATOM     30  O   UNL     1      20.845  10.989  16.487  0.00  0.00    +0.000 OA
ATOM     31  H   UNL     1      20.099  11.612  16.391  0.00  0.00    +0.000 HD
ENDBRANCH  11  30
BRANCH  16  32
ATOM     32  O   UNL     1      22.242  13.064  18.116  0.00  0.00    +0.000 OA
ATOM     33  H   UNL     1      22.891  13.482  18.713  0.00  0.00    +0.000 HD
ENDBRANCH  16  32
BRANCH  28  34
ATOM     34  O   UNL     1      14.407   2.903  19.541  0.00  0.00    +0.000 OA
ATOM     35  H   UNL     1      14.541   2.282  20.280  0.00  0.00    +0.000 HD
ENDBRANCH  28  34
TORSDOF 3
ENDMDL
MODEL 2
REMARK VINA RESULT:      -8.1     20.439     23.173
REMARK  Name = 14132199_RiccardinD.pdbqt.pdb
REMARK  3 active torsions:
REMARK  status: ('A' for Active; 'I' for Inactive)
REMARK    1  A    between atoms: C_11  and  O_30
REMARK    2  A    between atoms: C_16  and  O_32
REMARK    3  A    between atoms: C_28  and  O_34
REMARK                            x       y       z     vdW  Elec       q    Type
REMARK                         _______ _______ _______ _____ _____    ______ ____
ROOT
ATOM      1  O   UNL     1      19.488   6.584  37.692  0.00  0.00    +0.000 OA
ATOM      2  C   UNL     1      17.213   3.363  43.420  0.00  0.00    +0.000 C 
ATOM      3  C   UNL     1      16.610   2.306  44.180  0.00  0.00    +0.000 A 
ATOM      4  C   UNL     1      16.070   1.154  43.552  0.00  0.00    +0.000 A 
ATOM      5  C   UNL     1      17.848   4.388  42.466  0.00  0.00    +0.000 C 
ATOM      6  C   UNL     1      16.512   1.643  37.963  0.00  0.00    +0.000 C 
ATOM      7  C   UNL     1      15.996   1.059  42.076  0.00  0.00    +0.000 A 
ATOM      8  C   UNL     1      16.111   1.234  39.268  0.00  0.00    +0.000 A 
ATOM      9  C   UNL     1      17.141   2.480  36.847  0.00  0.00    +0.000 C 
ATOM     10  C   UNL     1      18.388   5.195  41.422  0.00  0.00    +0.000 A 
ATOM     11  C   UNL     1      16.726   0.131  41.319  0.00  0.00    +0.000 A 
ATOM     12  C   UNL     1      17.849   3.573  36.277  0.00  0.00    +0.000 A 
ATOM     13  C   UNL     1      15.229   2.000  41.376  0.00  0.00    +0.000 A 
ATOM     14  C   UNL     1      16.806   0.226  39.928  0.00  0.00    +0.000 A 
ATOM     15  C   UNL     1      15.290   2.097  39.989  0.00  0.00    +0.000 A 
ATOM     16  C   UNL     1      15.601   0.130  44.394  0.00  0.00    +0.000 A 
ATOM     17  C   UNL     1      16.620   2.429  45.571  0.00  0.00    +0.000 A 
ATOM     18  C   UNL     1      15.595   0.266  45.783  0.00  0.00    +0.000 A 
ATOM     19  C   UNL     1      16.097   1.420  46.371  0.00  0.00    +0.000 A 
ATOM     20  C   UNL     1      18.320   4.512  37.187  0.00  0.00    +0.000 A 
ATOM     21  C   UNL     1      17.566   6.106  40.758  0.00  0.00    +0.000 A 
ATOM     22  C   UNL     1      19.665   4.916  40.932  0.00  0.00    +0.000 A 
ATOM     23  C   UNL     1      19.021   5.645  36.787  0.00  0.00    +0.000 A 
ATOM     24  C   UNL     1      18.078   3.752  34.921  0.00  0.00    +0.000 A 
ATOM     25  C   UNL     1      19.214   6.298  39.017  0.00  0.00    +0.000 A 
ATOM     26  C   UNL     1      17.982   6.672  39.555  0.00  0.00    +0.000 A 
ATOM     27  C   UNL     1      20.089   5.477  39.729  0.00  0.00    +0.000 A 
ATOM     28  C   UNL     1      19.249   5.824  35.427  0.00  0.00    +0.000 A 
ATOM     29  C   UNL     1      18.783   4.886  34.498  0.00  0.00    +0.000 A 
ENDROOT
BRANCH  11  30
ATOM     30  O   UNL     1      17.393  -0.881  41.958  0.00  0.00    +0.000 OA
ATOM     31  H   UNL     1      17.685  -0.550  42.829  0.00  0.00    +0.000 HD
ENDBRANCH  11  30
BRANCH  16  32
ATOM     32  O   UNL     1      15.141  -1.065  43.907  0.00  0.00    +0.000 OA
ATOM     33  H   UNL     1      15.541  -1.182  43.025  0.00  0.00    +0.000 HD
ENDBRANCH  16  32
BRANCH  28  34
ATOM     34  O   UNL     1      19.930   6.911  34.958  0.00  0.00    +0.000 OA
ATOM     35  H   UNL     1      20.696   7.049  35.544  0.00  0.00    +0.000 HD
ENDBRANCH  28  34
TORSDOF 3
ENDMDL
MODEL 3
REMARK VINA RESULT:      -7.7     33.919     36.040
REMARK  Name = 14132199_RiccardinD.pdbqt.pdb
REMARK  3 active torsions:
REMARK  status: ('A' for Active; 'I' for Inactive)
REMARK    1  A    between atoms: C_11  and  O_30
REMARK    2  A    between atoms: C_16  and  O_32
REMARK    3  A    between atoms: C_28  and  O_34
REMARK                            x       y       z     vdW  Elec       q    Type
REMARK                         _______ _______ _______ _____ _____    ______ ____
ROOT
ATOM      1  O   UNL     1      50.119  -3.048  36.816  0.00  0.00    +0.000 OA
ATOM      2  C   UNL     1      49.991   3.103  33.574  0.00  0.00    +0.000 C 
ATOM      3  C   UNL     1      49.916   3.994  32.452  0.00  0.00    +0.000 A 
ATOM      4  C   UNL     1      49.850   3.509  31.121  0.00  0.00    +0.000 A 
ATOM      5  C   UNL     1      50.039   2.017  34.662  0.00  0.00    +0.000 C 
ATOM      6  C   UNL     1      50.168  -2.110  31.118  0.00  0.00    +0.000 C 
ATOM      7  C   UNL     1      49.985   2.064  30.833  0.00  0.00    +0.000 A 
ATOM      8  C   UNL     1      50.201  -0.742  30.718  0.00  0.00    +0.000 A 
ATOM      9  C   UNL     1      50.139  -3.344  32.023  0.00  0.00    +0.000 C 
ATOM     10  C   UNL     1      50.064   0.867  35.504  0.00  0.00    +0.000 A 
ATOM     11  C   UNL     1      48.951   1.275  30.307  0.00  0.00    +0.000 A 
ATOM     12  C   UNL     1      50.126  -4.063  33.249  0.00  0.00    +0.000 A 
ATOM     13  C   UNL     1      51.176   1.412  31.185  0.00  0.00    +0.000 A 
ATOM     14  C   UNL     1      49.042  -0.118  30.268  0.00  0.00    +0.000 A 
ATOM     15  C   UNL     1      51.284   0.026  31.139  0.00  0.00    +0.000 A 
ATOM     16  C   UNL     1      49.670   4.464  30.103  0.00  0.00    +0.000 A 
ATOM     17  C   UNL     1      49.857   5.363  32.723  0.00  0.00    +0.000 A 
ATOM     18  C   UNL     1      49.631   5.831  30.377  0.00  0.00    +0.000 A 
ATOM     19  C   UNL     1      49.734   6.281  31.687  0.00  0.00    +0.000 A 
ATOM     20  C   UNL     1      50.121  -3.277  34.396  0.00  0.00    +0.000 A 
ATOM     21  C   UNL     1      51.285   0.260  35.807  0.00  0.00    +0.000 A 
ATOM     22  C   UNL     1      48.865   0.235  35.838  0.00  0.00    +0.000 A 
ATOM     23  C   UNL     1      50.121  -3.829  35.672  0.00  0.00    +0.000 A 
ATOM     24  C   UNL     1      50.130  -5.445  33.361  0.00  0.00    +0.000 A 
ATOM     25  C   UNL     1      50.104  -1.685  36.587  0.00  0.00    +0.000 A 
ATOM     26  C   UNL     1      51.309  -1.017  36.362  0.00  0.00    +0.000 A 
ATOM     27  C   UNL     1      48.880  -1.043  36.393  0.00  0.00    +0.000 A 
ATOM     28  C   UNL     1      50.125  -5.215  35.783  0.00  0.00    +0.000 A 
ATOM     29  C   UNL     1      50.128  -6.020  34.638  0.00  0.00    +0.000 A 
ENDROOT
BRANCH  11  30
ATOM     30  O   UNL     1      47.816   1.882  29.838  0.00  0.00    +0.000 OA
ATOM     31  H   UNL     1      47.345   1.245  29.267  0.00  0.00    +0.000 HD
ENDBRANCH  11  30
BRANCH  16  32
ATOM     32  O   UNL     1      49.503   4.110  28.790  0.00  0.00    +0.000 OA
ATOM     33  H   UNL     1      50.394   4.067  28.395  0.00  0.00    +0.000 HD
ENDBRANCH  16  32
BRANCH  28  34
ATOM     34  O   UNL     1      50.125  -5.830  37.002  0.00  0.00    +0.000 OA
ATOM     35  H   UNL     1      51.050  -5.876  37.304  0.00  0.00    +0.000 HD
ENDBRANCH  28  34
TORSDOF 3
ENDMDL
MODEL 4
REMARK VINA RESULT:      -7.6     29.402     32.488
REMARK  Name = 14132199_RiccardinD.pdbqt.pdb
REMARK  3 active torsions:
REMARK  status: ('A' for Active; 'I' for Inactive)
REMARK    1  A    between atoms: C_11  and  O_30
REMARK    2  A    between atoms: C_16  and  O_32
REMARK    3  A    between atoms: C_28  and  O_34
REMARK                            x       y       z     vdW  Elec       q    Type
REMARK                         _______ _______ _______ _____ _____    ______ ____
ROOT
ATOM      1  O   UNL     1      19.766 -11.911  49.101  0.00  0.00    +0.000 OA
ATOM      2  C   UNL     1      18.548 -10.793  42.346  0.00  0.00    +0.000 C 
ATOM      3  C   UNL     1      18.830 -10.314  41.023  0.00  0.00    +0.000 A 
ATOM      4  C   UNL     1      20.009  -9.580  40.734  0.00  0.00    +0.000 A 
ATOM      5  C   UNL     1      18.411 -11.257  43.806  0.00  0.00    +0.000 C 
ATOM      6  C   UNL     1      22.970  -8.785  45.452  0.00  0.00    +0.000 C 
ATOM      7  C   UNL     1      20.933  -9.171  41.815  0.00  0.00    +0.000 A 
ATOM      8  C   UNL     1      22.457  -8.664  44.128  0.00  0.00    +0.000 A 
ATOM      9  C   UNL     1      23.075  -9.196  46.923  0.00  0.00    +0.000 C 
ATOM     10  C   UNL     1      18.483 -11.596  45.189  0.00  0.00    +0.000 A 
ATOM     11  C   UNL     1      22.242  -9.657  41.945  0.00  0.00    +0.000 A 
ATOM     12  C   UNL     1      22.674  -9.821  48.135  0.00  0.00    +0.000 A 
ATOM     13  C   UNL     1      20.458  -8.323  42.826  0.00  0.00    +0.000 A 
ATOM     14  C   UNL     1      22.995  -9.428  43.098  0.00  0.00    +0.000 A 
ATOM     15  C   UNL     1      21.203  -8.077  43.975  0.00  0.00    +0.000 A 
ATOM     16  C   UNL     1      20.240  -9.252  39.385  0.00  0.00    +0.000 A 
ATOM     17  C   UNL     1      17.921 -10.643  40.015  0.00  0.00    +0.000 A 
ATOM     18  C   UNL     1      19.320  -9.566  38.385  0.00  0.00    +0.000 A 
ATOM     19  C   UNL     1      18.155 -10.254  38.702  0.00  0.00    +0.000 A 
ATOM     20  C   UNL     1      21.486 -10.539  48.065  0.00  0.00    +0.000 A 
ATOM     21  C   UNL     1      18.000 -10.700  46.145  0.00  0.00    +0.000 A 
ATOM     22  C   UNL     1      19.223 -12.711  45.583  0.00  0.00    +0.000 A 
ATOM     23  C   UNL     1      20.952 -11.198  49.168  0.00  0.00    +0.000 A 
ATOM     24  C   UNL     1      23.367  -9.750  49.334  0.00  0.00    +0.000 A 
ATOM     25  C   UNL     1      19.168 -11.925  47.855  0.00  0.00    +0.000 A 
ATOM     26  C   UNL     1      18.333 -10.868  47.487  0.00  0.00    +0.000 A 
ATOM     27  C   UNL     1      19.561 -12.887  46.924  0.00  0.00    +0.000 A 
ATOM     28  C   UNL     1      21.648 -11.125  50.369  0.00  0.00    +0.000 A 
ATOM     29  C   UNL     1      22.846 -10.408  50.456  0.00  0.00    +0.000 A 
ENDROOT
BRANCH  11  30
ATOM     30  O   UNL     1      22.790 -10.390  40.925  0.00  0.00    +0.000 OA
ATOM     31  H   UNL     1      22.164 -11.101  40.691  0.00  0.00    +0.000 HD
ENDBRANCH  11  30
BRANCH  16  32
ATOM     32  O   UNL     1      21.385  -8.625  38.971  0.00  0.00    +0.000 OA
ATOM     33  H   UNL     1      21.946  -8.512  39.761  0.00  0.00    +0.000 HD
ENDBRANCH  16  32
BRANCH  28  34
ATOM     34  O   UNL     1      21.187 -11.746  51.495  0.00  0.00    +0.000 OA
ATOM     35  H   UNL     1      21.860 -11.626  52.189  0.00  0.00    +0.000 HD
ENDBRANCH  28  34
TORSDOF 3
ENDMDL
MODEL 5
REMARK VINA RESULT:      -7.5     41.874     43.496
REMARK  Name = 14132199_RiccardinD.pdbqt.pdb
REMARK  3 active torsions:
REMARK  status: ('A' for Active; 'I' for Inactive)
REMARK    1  A    between atoms: C_11  and  O_30
REMARK    2  A    between atoms: C_16  and  O_32
REMARK    3  A    between atoms: C_28  and  O_34
REMARK                            x       y       z     vdW  Elec       q    Type
REMARK                         _______ _______ _______ _____ _____    ______ ____
ROOT
ATOM      1  O   UNL     1      47.334 -23.567  20.459  0.00  0.00    +0.000 OA
ATOM      2  C   UNL     1      46.363 -23.748  13.575  0.00  0.00    +0.000 C 
ATOM      3  C   UNL     1      46.542 -23.335  12.213  0.00  0.00    +0.000 A 
ATOM      4  C   UNL     1      47.349 -22.217  11.875  0.00  0.00    +0.000 A 
ATOM      5  C   UNL     1      46.297 -24.074  15.076  0.00  0.00    +0.000 C 
ATOM      6  C   UNL     1      49.320 -19.799  16.558  0.00  0.00    +0.000 C 
ATOM      7  C   UNL     1      47.933 -21.357  12.928  0.00  0.00    +0.000 A 
ATOM      8  C   UNL     1      48.918 -20.036  15.211  0.00  0.00    +0.000 A 
ATOM      9  C   UNL     1      49.452 -19.977  18.073  0.00  0.00    +0.000 C 
ATOM     10  C   UNL     1      46.378 -24.209  16.494  0.00  0.00    +0.000 A 
ATOM     11  C   UNL     1      49.311 -21.250  13.169  0.00  0.00    +0.000 A 
ATOM     12  C   UNL     1      49.232 -20.584  19.340  0.00  0.00    +0.000 A 
ATOM     13  C   UNL     1      47.072 -20.678  13.802  0.00  0.00    +0.000 A 
ATOM     14  C   UNL     1      49.805 -20.615  14.310  0.00  0.00    +0.000 A 
ATOM     15  C   UNL     1      47.553 -20.032  14.936  0.00  0.00    +0.000 A 
ATOM     16  C   UNL     1      47.545 -21.964  10.504  0.00  0.00    +0.000 A 
ATOM     17  C   UNL     1      45.933 -24.109  11.222  0.00  0.00    +0.000 A 
ATOM     18  C   UNL     1      46.919 -22.728   9.520  0.00  0.00    +0.000 A 
ATOM     19  C   UNL     1      46.105 -23.795   9.879  0.00  0.00    +0.000 A 
ATOM     20  C   UNL     1      48.442 -21.728  19.319  0.00  0.00    +0.000 A 
ATOM     21  C   UNL     1      45.495 -23.496  17.306  0.00  0.00    +0.000 A 
ATOM     22  C   UNL     1      47.466 -24.877  17.056  0.00  0.00    +0.000 A 
ATOM     23  C   UNL     1      48.124 -22.429  20.476  0.00  0.00    +0.000 A 
ATOM     24  C   UNL     1      49.731 -20.112  20.545  0.00  0.00    +0.000 A 
ATOM     25  C   UNL     1      46.902 -23.953  19.203  0.00  0.00    +0.000 A 
ATOM     26  C   UNL     1      45.749 -23.374  18.670  0.00  0.00    +0.000 A 
ATOM     27  C   UNL     1      47.727 -24.761  18.420  0.00  0.00    +0.000 A 
ATOM     28  C   UNL     1      48.624 -21.955  21.684  0.00  0.00    +0.000 A 
ATOM     29  C   UNL     1      49.422 -20.806  21.722  0.00  0.00    +0.000 A 
ENDROOT
BRANCH  11  30
ATOM     30  O   UNL     1      50.193 -21.795  12.273  0.00  0.00    +0.000 OA
ATOM     31  H   UNL     1      51.094 -21.695  12.637  0.00  0.00    +0.000 HD
ENDBRANCH  11  30
BRANCH  16  32
ATOM     32  O   UNL     1      48.374 -20.970  10.056  0.00  0.00    +0.000 OA
ATOM     33  H   UNL     1      48.183 -20.180  10.595  0.00  0.00    +0.000 HD
ENDBRANCH  16  32
BRANCH  28  34
ATOM     34  O   UNL     1      48.355 -22.591  22.863  0.00  0.00    +0.000 OA
ATOM     35  H   UNL     1      47.997 -23.470  22.643  0.00  0.00    +0.000 HD
ENDBRANCH  28  34
TORSDOF 3
ENDMDL
MODEL 6
REMARK VINA RESULT:      -7.5     22.100     25.098
REMARK  Name = 14132199_RiccardinD.pdbqt.pdb
REMARK  3 active torsions:
REMARK  status: ('A' for Active; 'I' for Inactive)
REMARK    1  A    between atoms: C_11  and  O_30
REMARK    2  A    between atoms: C_16  and  O_32
REMARK    3  A    between atoms: C_28  and  O_34
REMARK                            x       y       z     vdW  Elec       q    Type
REMARK                         _______ _______ _______ _____ _____    ______ ____
ROOT
ATOM      1  O   UNL     1      17.228   4.901  43.402  0.00  0.00    +0.000 OA
ATOM      2  C   UNL     1      16.008   0.212  38.412  0.00  0.00    +0.000 C 
ATOM      3  C   UNL     1      15.679  -1.076  37.874  0.00  0.00    +0.000 A 
ATOM      4  C   UNL     1      15.465  -2.200  38.713  0.00  0.00    +0.000 A 
ATOM      5  C   UNL     1      16.325   1.525  39.148  0.00  0.00    +0.000 C 
ATOM      6  C   UNL     1      16.335  -0.764  44.085  0.00  0.00    +0.000 C 
ATOM      7  C   UNL     1      15.699  -2.112  40.172  0.00  0.00    +0.000 A 
ATOM      8  C   UNL     1      16.173  -1.513  42.883  0.00  0.00    +0.000 A 
ATOM      9  C   UNL     1      16.564   0.427  45.018  0.00  0.00    +0.000 C 
ATOM     10  C   UNL     1      16.590   2.625  40.016  0.00  0.00    +0.000 A 
ATOM     11  C   UNL     1      14.681  -2.225  41.131  0.00  0.00    +0.000 A 
ATOM     12  C   UNL     1      16.805   1.784  45.367  0.00  0.00    +0.000 A 
ATOM     13  C   UNL     1      16.987  -1.808  40.633  0.00  0.00    +0.000 A 
ATOM     14  C   UNL     1      14.903  -1.908  42.473  0.00  0.00    +0.000 A 
ATOM     15  C   UNL     1      17.224  -1.502  41.970  0.00  0.00    +0.000 A 
ATOM     16  C   UNL     1      15.042  -3.389  38.091  0.00  0.00    +0.000 A 
ATOM     17  C   UNL     1      15.525  -1.173  36.489  0.00  0.00    +0.000 A 
ATOM     18  C   UNL     1      14.908  -3.485  36.706  0.00  0.00    +0.000 A 
ATOM     19  C   UNL     1      15.159  -2.379  35.904  0.00  0.00    +0.000 A 
ATOM     20  C   UNL     1      16.892   2.664  44.295  0.00  0.00    +0.000 A 
ATOM     21  C   UNL     1      17.896   2.865  40.446  0.00  0.00    +0.000 A 
ATOM     22  C   UNL     1      15.522   3.313  40.594  0.00  0.00    +0.000 A 
ATOM     23  C   UNL     1      17.137   4.022  44.469  0.00  0.00    +0.000 A 
ATOM     24  C   UNL     1      16.962   2.256  46.662  0.00  0.00    +0.000 A 
ATOM     25  C   UNL     1      17.043   4.323  42.159  0.00  0.00    +0.000 A 
ATOM     26  C   UNL     1      18.129   3.727  41.516  0.00  0.00    +0.000 A 
ATOM     27  C   UNL     1      15.747   4.177  41.664  0.00  0.00    +0.000 A 
ATOM     28  C   UNL     1      17.295   4.494  45.767  0.00  0.00    +0.000 A 
ATOM     29  C   UNL     1      17.208   3.621  46.858  0.00  0.00    +0.000 A 
ENDROOT
BRANCH  11  30
ATOM     30  O   UNL     1      13.434  -2.639  40.741  0.00  0.00    +0.000 OA
ATOM     31  H   UNL     1      13.389  -3.609  40.846  0.00  0.00    +0.000 HD
ENDBRANCH  11  30
BRANCH  16  32
ATOM     32  O   UNL     1      14.717  -4.512  38.804  0.00  0.00    +0.000 OA
ATOM     33  H   UNL     1      15.214  -5.252  38.405  0.00  0.00    +0.000 HD
ENDBRANCH  16  32
BRANCH  28  34
ATOM     34  O   UNL     1      17.537   5.815  46.018  0.00  0.00    +0.000 OA
ATOM     35  H   UNL     1      16.838   6.129  46.620  0.00  0.00    +0.000 HD
ENDBRANCH  28  34
TORSDOF 3
ENDMDL
MODEL 7
REMARK VINA RESULT:      -7.3     31.431     34.368
REMARK  Name = 14132199_RiccardinD.pdbqt.pdb
REMARK  3 active torsions:
REMARK  status: ('A' for Active; 'I' for Inactive)
REMARK    1  A    between atoms: C_11  and  O_30
REMARK    2  A    between atoms: C_16  and  O_32
REMARK    3  A    between atoms: C_28  and  O_34
REMARK                            x       y       z     vdW  Elec       q    Type
REMARK                         _______ _______ _______ _____ _____    ______ ____
ROOT
ATOM      1  O   UNL     1      21.631 -14.040  50.125  0.00  0.00    +0.000 OA
ATOM      2  C   UNL     1      20.084 -11.522  43.831  0.00  0.00    +0.000 C 
ATOM      3  C   UNL     1      20.160 -10.607  42.727  0.00  0.00    +0.000 A 
ATOM      4  C   UNL     1      20.965  -9.440  42.783  0.00  0.00    +0.000 A 
ATOM      5  C   UNL     1      20.134 -12.409  45.085  0.00  0.00    +0.000 C 
ATOM      6  C   UNL     1      23.383  -9.031  47.848  0.00  0.00    +0.000 C 
ATOM      7  C   UNL     1      21.657  -9.056  44.034  0.00  0.00    +0.000 A 
ATOM      8  C   UNL     1      22.864  -8.725  46.556  0.00  0.00    +0.000 A 
ATOM      9  C   UNL     1      23.637  -9.786  49.156  0.00  0.00    +0.000 C 
ATOM     10  C   UNL     1      20.330 -13.088  46.324  0.00  0.00    +0.000 A 
ATOM     11  C   UNL     1      23.053  -9.039  44.176  0.00  0.00    +0.000 A 
ATOM     12  C   UNL     1      23.507 -10.841  50.099  0.00  0.00    +0.000 A 
ATOM     13  C   UNL     1      20.890  -8.780  45.175  0.00  0.00    +0.000 A 
ATOM     14  C   UNL     1      23.657  -8.898  45.427  0.00  0.00    +0.000 A 
ATOM     15  C   UNL     1      21.482  -8.625  46.425  0.00  0.00    +0.000 A 
ATOM     16  C   UNL     1      21.052  -8.670  41.609  0.00  0.00    +0.000 A 
ATOM     17  C   UNL     1      19.450 -10.937  41.570  0.00  0.00    +0.000 A 
ATOM     18  C   UNL     1      20.326  -8.993  40.463  0.00  0.00    +0.000 A 
ATOM     19  C   UNL     1      19.517 -10.122  40.447  0.00  0.00    +0.000 A 
ATOM     20  C   UNL     1      22.688 -11.892  49.702  0.00  0.00    +0.000 A 
ATOM     21  C   UNL     1      19.538 -12.756  47.424  0.00  0.00    +0.000 A 
ATOM     22  C   UNL     1      21.444 -13.914  46.484  0.00  0.00    +0.000 A 
ATOM     23  C   UNL     1      22.449 -12.993  50.517  0.00  0.00    +0.000 A 
ATOM     24  C   UNL     1      24.117 -10.874  51.344  0.00  0.00    +0.000 A 
ATOM     25  C   UNL     1      21.086 -13.907  48.861  0.00  0.00    +0.000 A 
ATOM     26  C   UNL     1      19.908 -13.176  48.700  0.00  0.00    +0.000 A 
ATOM     27  C   UNL     1      21.821 -14.338  47.756  0.00  0.00    +0.000 A 
ATOM     28  C   UNL     1      23.061 -13.025  51.765  0.00  0.00    +0.000 A 
ATOM     29  C   UNL     1      23.890 -11.976  52.179  0.00  0.00    +0.000 A 
ENDROOT
BRANCH  11  30
ATOM     30  O   UNL     1      23.843  -9.184  43.066  0.00  0.00    +0.000 OA
ATOM     31  H   UNL     1      24.751  -9.385  43.364  0.00  0.00    +0.000 HD
ENDBRANCH  11  30
BRANCH  16  32
ATOM     32  O   UNL     1      21.867  -7.572  41.514  0.00  0.00    +0.000 OA
ATOM     33  H   UNL     1      21.325  -6.851  41.143  0.00  0.00    +0.000 HD
ENDBRANCH  16  32
BRANCH  28  34
ATOM     34  O   UNL     1      22.875 -14.073  52.621  0.00  0.00    +0.000 OA
ATOM     35  H   UNL     1      23.756 -14.402  52.873  0.00  0.00    +0.000 HD
ENDBRANCH  28  34
TORSDOF 3
ENDMDL
MODEL 8
REMARK VINA RESULT:      -7.2     37.154     39.003
REMARK  Name = 14132199_RiccardinD.pdbqt.pdb
REMARK  3 active torsions:
REMARK  status: ('A' for Active; 'I' for Inactive)
REMARK    1  A    between atoms: C_11  and  O_30
REMARK    2  A    between atoms: C_16  and  O_32
REMARK    3  A    between atoms: C_28  and  O_34
REMARK                            x       y       z     vdW  Elec       q    Type
REMARK                         _______ _______ _______ _____ _____    ______ ____
ROOT
ATOM      1  O   UNL     1      41.484  -6.770  44.992  0.00  0.00    +0.000 OA
ATOM      2  C   UNL     1      46.905  -2.433  45.406  0.00  0.00    +0.000 C 
ATOM      3  C   UNL     1      47.577  -1.194  45.672  0.00  0.00    +0.000 A 
ATOM      4  C   UNL     1      46.867  -0.036  46.083  0.00  0.00    +0.000 A 
ATOM      5  C   UNL     1      46.040  -3.685  45.188  0.00  0.00    +0.000 C 
ATOM      6  C   UNL     1      41.347  -1.125  46.201  0.00  0.00    +0.000 C 
ATOM      7  C   UNL     1      45.387  -0.030  46.128  0.00  0.00    +0.000 A 
ATOM      8  C   UNL     1      42.603  -0.453  46.158  0.00  0.00    +0.000 A 
ATOM      9  C   UNL     1      40.312  -2.249  46.112  0.00  0.00    +0.000 C 
ATOM     10  C   UNL     1      45.069  -4.722  45.054  0.00  0.00    +0.000 A 
ATOM     11  C   UNL     1      44.646   0.088  47.313  0.00  0.00    +0.000 A 
ATOM     12  C   UNL     1      39.838  -3.571  45.893  0.00  0.00    +0.000 A 
ATOM     13  C   UNL     1      44.673  -0.247  44.941  0.00  0.00    +0.000 A 
ATOM     14  C   UNL     1      43.269  -0.142  47.339  0.00  0.00    +0.000 A 
ATOM     15  C   UNL     1      43.299  -0.466  44.952  0.00  0.00    +0.000 A 
ATOM     16  C   UNL     1      47.633   1.095  46.422  0.00  0.00    +0.000 A 
ATOM     17  C   UNL     1      48.969  -1.182  45.563  0.00  0.00    +0.000 A 
ATOM     18  C   UNL     1      49.021   1.107  46.292  0.00  0.00    +0.000 A 
ATOM     19  C   UNL     1      49.689  -0.030  45.853  0.00  0.00    +0.000 A 
ATOM     20  C   UNL     1      40.816  -4.506  45.572  0.00  0.00    +0.000 A 
ATOM     21  C   UNL     1      44.386  -4.875  43.847  0.00  0.00    +0.000 A 
ATOM     22  C   UNL     1      44.659  -5.426  46.187  0.00  0.00    +0.000 A 
ATOM     23  C   UNL     1      40.512  -5.838  45.316  0.00  0.00    +0.000 A 
ATOM     24  C   UNL     1      38.509  -3.962  45.969  0.00  0.00    +0.000 A 
ATOM     25  C   UNL     1      42.774  -6.273  44.957  0.00  0.00    +0.000 A 
ATOM     26  C   UNL     1      43.239  -5.663  43.791  0.00  0.00    +0.000 A 
ATOM     27  C   UNL     1      43.512  -6.216  46.140  0.00  0.00    +0.000 A 
ATOM     28  C   UNL     1      39.180  -6.229  45.392  0.00  0.00    +0.000 A 
ATOM     29  C   UNL     1      38.183  -5.301  45.716  0.00  0.00    +0.000 A 
ENDROOT
BRANCH  11  30
ATOM     30  O   UNL     1      45.289   0.420  48.477  0.00  0.00    +0.000 OA
ATOM     31  H   UNL     1      46.192   0.049  48.441  0.00  0.00    +0.000 HD
ENDBRANCH  11  30
BRANCH  16  32
ATOM     32  O   UNL     1      47.067   2.240  46.917  0.00  0.00    +0.000 OA
ATOM     33  H   UNL     1      46.706   2.018  47.796  0.00  0.00    +0.000 HD
ENDBRANCH  16  32
BRANCH  28  34
ATOM     34  O   UNL     1      38.804  -7.520  45.154  0.00  0.00    +0.000 OA
ATOM     35  H   UNL     1      39.052  -7.730  44.236  0.00  0.00    +0.000 HD
ENDBRANCH  28  34
TORSDOF 3
ENDMDL
MODEL 9
REMARK VINA RESULT:      -6.9     37.616     39.830
REMARK  Name = 14132199_RiccardinD.pdbqt.pdb
REMARK  3 active torsions:
REMARK  status: ('A' for Active; 'I' for Inactive)
REMARK    1  A    between atoms: C_11  and  O_30
REMARK    2  A    between atoms: C_16  and  O_32
REMARK    3  A    between atoms: C_28  and  O_34
REMARK                            x       y       z     vdW  Elec       q    Type
REMARK                         _______ _______ _______ _____ _____    ______ ____
ROOT
ATOM      1  O   UNL     1      46.190  -0.586  48.185  0.00  0.00    +0.000 OA
ATOM      2  C   UNL     1      39.840  -1.980  45.717  0.00  0.00    +0.000 C 
ATOM      3  C   UNL     1      38.556  -2.620  45.683  0.00  0.00    +0.000 A 
ATOM      4  C   UNL     1      38.196  -3.615  46.628  0.00  0.00    +0.000 A 
ATOM      5  C   UNL     1      41.240  -1.376  45.908  0.00  0.00    +0.000 C 
ATOM      6  C   UNL     1      42.529  -4.634  50.071  0.00  0.00    +0.000 C 
ATOM      7  C   UNL     1      39.182  -4.123  47.607  0.00  0.00    +0.000 A 
ATOM      8  C   UNL     1      41.310  -4.753  49.342  0.00  0.00    +0.000 A 
ATOM      9  C   UNL     1      43.914  -4.133  50.488  0.00  0.00    +0.000 C 
ATOM     10  C   UNL     1      42.552  -0.944  46.264  0.00  0.00    +0.000 A 
ATOM     11  C   UNL     1      39.075  -3.925  48.992  0.00  0.00    +0.000 A 
ATOM     12  C   UNL     1      45.087  -3.334  50.419  0.00  0.00    +0.000 A 
ATOM     13  C   UNL     1      40.340  -4.757  47.135  0.00  0.00    +0.000 A 
ATOM     14  C   UNL     1      40.134  -4.214  49.855  0.00  0.00    +0.000 A 
ATOM     15  C   UNL     1      41.398  -5.062  47.987  0.00  0.00    +0.000 A 
ATOM     16  C   UNL     1      36.876  -4.099  46.572  0.00  0.00    +0.000 A 
ATOM     17  C   UNL     1      37.649  -2.187  44.713  0.00  0.00    +0.000 A 
ATOM     18  C   UNL     1      35.980  -3.678  45.589  0.00  0.00    +0.000 A 
ATOM     19  C   UNL     1      36.370  -2.728  44.653  0.00  0.00    +0.000 A 
ATOM     20  C   UNL     1      45.097  -2.383  49.405  0.00  0.00    +0.000 A 
ATOM     21  C   UNL     1      43.662  -1.628  45.767  0.00  0.00    +0.000 A 
ATOM     22  C   UNL     1      42.709   0.012  47.269  0.00  0.00    +0.000 A 
ATOM     23  C   UNL     1      46.177  -1.533  49.197  0.00  0.00    +0.000 A 
ATOM     24  C   UNL     1      46.182  -3.453  51.262  0.00  0.00    +0.000 A 
ATOM     25  C   UNL     1      45.043  -0.548  47.413  0.00  0.00    +0.000 A 
ATOM     26  C   UNL     1      44.918  -1.423  46.334  0.00  0.00    +0.000 A 
ATOM     27  C   UNL     1      43.962   0.223  47.842  0.00  0.00    +0.000 A 
ATOM     28  C   UNL     1      47.273  -1.653  50.043  0.00  0.00    +0.000 A 
ATOM     29  C   UNL     1      47.279  -2.604  51.070  0.00  0.00    +0.000 A 
ENDROOT
BRANCH  11  30
ATOM     30  O   UNL     1      37.912  -3.420  49.510  0.00  0.00    +0.000 OA
ATOM     31  H   UNL     1      38.025  -2.457  49.629  0.00  0.00    +0.000 HD
ENDBRANCH  11  30
BRANCH  16  32
ATOM     32  O   UNL     1      36.386  -4.994  47.486  0.00  0.00    +0.000 OA
ATOM     33  H   UNL     1      36.844  -5.841  47.325  0.00  0.00    +0.000 HD
ENDBRANCH  16  32
BRANCH  28  34
ATOM     34  O   UNL     1      48.371  -0.853  49.901  0.00  0.00    +0.000 OA
ATOM     35  H   UNL     1      48.489  -0.370  50.740  0.00  0.00    +0.000 HD
ENDBRANCH  28  34
TORSDOF 3
ENDMDL
