MODEL 1
REMARK VINA RESULT:      -5.8      0.000      0.000
REMARK  Name = 146026348_FluorouracilMononitrate.pdbqt.pdb
REMARK  2 active torsions:
REMARK  status: ('A' for Active; 'I' for Inactive)
REMARK    1  A    between atoms: N_4  and  O_10
REMARK    2  A    between atoms: O_10  and  N_13
REMARK                            x       y       z     vdW  Elec       q    Type
REMARK                         _______ _______ _______ _____ _____    ______ ____
ROOT
ATOM      1  F   UNL     1      35.218  -2.638  17.157  0.00  0.00    +0.000 F 
ATOM      2  O   UNL     1      34.075  -0.090  17.253  0.00  0.00    +0.000 OA
ATOM      3  O   UNL     1      37.005   1.122  13.814  0.00  0.00    +0.000 OA
ATOM      4  N   UNL     1      35.629   0.606  15.647  0.00  0.00    +0.000 N 
ATOM      5  N   UNL     1      35.698  -1.600  16.457  0.00  0.00    +0.000 N 
ATOM      6  C   UNL     1      35.041  -0.337  16.536  0.00  0.00    +0.000 A 
ATOM      7  C   UNL     1      36.609   0.362  14.683  0.00  0.00    +0.000 A 
ATOM      8  C   UNL     1      37.102  -0.991  14.796  0.00  0.00    +0.000 A 
ATOM      9  C   UNL     1      36.688  -1.802  15.567  0.00  0.00    +0.000 A 
ENDROOT
BRANCH   4  10
ATOM     10  O   UNL     1      34.993   1.858  15.582  0.00  0.00    +0.000 OA
BRANCH  10  13
ATOM     11  O   UNL     1      36.628   3.206  16.337  0.00  0.00    +0.000 OA
ATOM     12  O   UNL     1      34.654   3.103  17.384  0.00  0.00    +0.000 OA
ATOM     13  N   UNL     1      35.475   2.806  16.518  0.00  0.00    +0.000 N 
ENDBRANCH  10  13
ENDBRANCH   4  10
TORSDOF 2
ENDMDL
MODEL 2
REMARK VINA RESULT:      -5.2      2.513      3.524
REMARK  Name = 146026348_FluorouracilMononitrate.pdbqt.pdb
REMARK  2 active torsions:
REMARK  status: ('A' for Active; 'I' for Inactive)
REMARK    1  A    between atoms: N_4  and  O_10
REMARK    2  A    between atoms: O_10  and  N_13
REMARK                            x       y       z     vdW  Elec       q    Type
REMARK                         _______ _______ _______ _____ _____    ______ ____
ROOT
ATOM      1  F   UNL     1      35.670   1.597  18.575  0.00  0.00    +0.000 F 
ATOM      2  O   UNL     1      35.752   2.947  16.130  0.00  0.00    +0.000 OA
ATOM      3  O   UNL     1      33.016  -0.435  14.411  0.00  0.00    +0.000 OA
ATOM      4  N   UNL     1      34.519   1.196  15.186  0.00  0.00    +0.000 N 
ATOM      5  N   UNL     1      35.153   1.088  17.446  0.00  0.00    +0.000 N 
ATOM      6  C   UNL     1      35.208   1.852  16.244  0.00  0.00    +0.000 A 
ATOM      7  C   UNL     1      33.735   0.044  15.272  0.00  0.00    +0.000 A 
ATOM      8  C   UNL     1      33.831  -0.533  16.593  0.00  0.00    +0.000 A 
ATOM      9  C   UNL     1      34.447  -0.058  17.498  0.00  0.00    +0.000 A 
ENDROOT
BRANCH   4  10
ATOM     10  O   UNL     1      34.436   1.913  13.978  0.00  0.00    +0.000 OA
BRANCH  10  13
ATOM     11  O   UNL     1      36.147   0.644  13.257  0.00  0.00    +0.000 OA
ATOM     12  O   UNL     1      35.682   2.602  12.280  0.00  0.00    +0.000 OA
ATOM     13  N   UNL     1      35.523   1.697  13.096  0.00  0.00    +0.000 N 
ENDBRANCH  10  13
ENDBRANCH   4  10
TORSDOF 2
ENDMDL
MODEL 3
REMARK VINA RESULT:      -5.1      1.871      2.371
REMARK  Name = 146026348_FluorouracilMononitrate.pdbqt.pdb
REMARK  2 active torsions:
REMARK  status: ('A' for Active; 'I' for Inactive)
REMARK    1  A    between atoms: N_4  and  O_10
REMARK    2  A    between atoms: O_10  and  N_13
REMARK                            x       y       z     vdW  Elec       q    Type
REMARK                         _______ _______ _______ _____ _____    ______ ____
ROOT
ATOM      1  F   UNL     1      34.162  -1.009  14.800  0.00  0.00    +0.000 F 
ATOM      2  O   UNL     1      33.641   0.422  17.143  0.00  0.00    +0.000 OA
ATOM      3  O   UNL     1      36.925   3.455  15.769  0.00  0.00    +0.000 OA
ATOM      4  N   UNL     1      35.386   1.875  16.576  0.00  0.00    +0.000 N 
ATOM      5  N   UNL     1      34.902   0.039  15.191  0.00  0.00    +0.000 N 
ATOM      6  C   UNL     1      34.555   0.736  16.385  0.00  0.00    +0.000 A 
ATOM      7  C   UNL     1      36.324   2.397  15.684  0.00  0.00    +0.000 A 
ATOM      8  C   UNL     1      36.483   1.518  14.548  0.00  0.00    +0.000 A 
ATOM      9  C   UNL     1      35.857   0.518  14.371  0.00  0.00    +0.000 A 
ENDROOT
BRANCH   4  10
ATOM     10  O   UNL     1      35.063   2.685  17.680  0.00  0.00    +0.000 OA
BRANCH  10  13
ATOM     11  O   UNL     1      36.892   2.279  18.923  0.00  0.00    +0.000 OA
ATOM     12  O   UNL     1      34.844   1.977  19.769  0.00  0.00    +0.000 OA
ATOM     13  N   UNL     1      35.659   2.274  18.898  0.00  0.00    +0.000 N 
ENDBRANCH  10  13
ENDBRANCH   4  10
TORSDOF 2
ENDMDL
MODEL 4
REMARK VINA RESULT:      -5.0      9.025      9.989
REMARK  Name = 146026348_FluorouracilMononitrate.pdbqt.pdb
REMARK  2 active torsions:
REMARK  status: ('A' for Active; 'I' for Inactive)
REMARK    1  A    between atoms: N_4  and  O_10
REMARK    2  A    between atoms: O_10  and  N_13
REMARK                            x       y       z     vdW  Elec       q    Type
REMARK                         _______ _______ _______ _____ _____    ______ ____
ROOT
ATOM      1  F   UNL     1      37.981   7.477  21.761  0.00  0.00    +0.000 F 
ATOM      2  O   UNL     1      38.452   7.416  19.007  0.00  0.00    +0.000 OA
ATOM      3  O   UNL     1      43.022   7.514  19.999  0.00  0.00    +0.000 OA
ATOM      4  N   UNL     1      40.741   7.626  19.450  0.00  0.00    +0.000 N 
ATOM      5  N   UNL     1      39.204   7.625  21.229  0.00  0.00    +0.000 N 
ATOM      6  C   UNL     1      39.367   7.553  19.814  0.00  0.00    +0.000 A 
ATOM      7  C   UNL     1      41.844   7.610  20.304  0.00  0.00    +0.000 A 
ATOM      8  C   UNL     1      41.416   7.671  21.683  0.00  0.00    +0.000 A 
ATOM      9  C   UNL     1      40.277   7.676  22.040  0.00  0.00    +0.000 A 
ENDROOT
BRANCH   4  10
ATOM     10  O   UNL     1      41.015   7.470  18.079  0.00  0.00    +0.000 OA
BRANCH  10  13
ATOM     11  O   UNL     1      41.983   9.449  17.627  0.00  0.00    +0.000 OA
ATOM     12  O   UNL     1      40.147   8.795  16.529  0.00  0.00    +0.000 OA
ATOM     13  N   UNL     1      41.055   8.685  17.351  0.00  0.00    +0.000 N 
ENDBRANCH  10  13
ENDBRANCH   4  10
TORSDOF 2
ENDMDL
MODEL 5
REMARK VINA RESULT:      -4.7      9.068     10.395
REMARK  Name = 146026348_FluorouracilMononitrate.pdbqt.pdb
REMARK  2 active torsions:
REMARK  status: ('A' for Active; 'I' for Inactive)
REMARK    1  A    between atoms: N_4  and  O_10
REMARK    2  A    between atoms: O_10  and  N_13
REMARK                            x       y       z     vdW  Elec       q    Type
REMARK                         _______ _______ _______ _____ _____    ______ ____
ROOT
ATOM      1  F   UNL     1      37.814   7.377  18.384  0.00  0.00    +0.000 F 
ATOM      2  O   UNL     1      40.382   7.831  17.380  0.00  0.00    +0.000 OA
ATOM      3  O   UNL     1      41.927   7.540  21.785  0.00  0.00    +0.000 OA
ATOM      4  N   UNL     1      41.177   7.854  19.581  0.00  0.00    +0.000 N 
ATOM      5  N   UNL     1      38.879   7.574  19.176  0.00  0.00    +0.000 N 
ATOM      6  C   UNL     1      40.163   7.770  18.587  0.00  0.00    +0.000 A 
ATOM      7  C   UNL     1      41.040   7.625  20.951  0.00  0.00    +0.000 A 
ATOM      8  C   UNL     1      39.650   7.437  21.294  0.00  0.00    +0.000 A 
ATOM      9  C   UNL     1      38.753   7.420  20.507  0.00  0.00    +0.000 A 
ENDROOT
BRANCH   4  10
ATOM     10  O   UNL     1      42.495   7.955  19.098  0.00  0.00    +0.000 OA
BRANCH  10  13
ATOM     11  O   UNL     1      43.170   9.937  19.918  0.00  0.00    +0.000 OA
ATOM     12  O   UNL     1      43.046   9.594  17.712  0.00  0.00    +0.000 OA
ATOM     13  N   UNL     1      42.941   9.285  18.896  0.00  0.00    +0.000 N 
ENDBRANCH  10  13
ENDBRANCH   4  10
TORSDOF 2
ENDMDL
MODEL 6
REMARK VINA RESULT:      -4.6     13.167     14.001
REMARK  Name = 146026348_FluorouracilMononitrate.pdbqt.pdb
REMARK  2 active torsions:
REMARK  status: ('A' for Active; 'I' for Inactive)
REMARK    1  A    between atoms: N_4  and  O_10
REMARK    2  A    between atoms: O_10  and  N_13
REMARK                            x       y       z     vdW  Elec       q    Type
REMARK                         _______ _______ _______ _____ _____    ______ ____
ROOT
ATOM      1  F   UNL     1      50.238   5.944  21.966  0.00  0.00    +0.000 F 
ATOM      2  O   UNL     1      49.232   3.574  20.881  0.00  0.00    +0.000 OA
ATOM      3  O   UNL     1      45.039   5.644  20.784  0.00  0.00    +0.000 OA
ATOM      4  N   UNL     1      47.089   4.511  20.963  0.00  0.00    +0.000 N 
ATOM      5  N   UNL     1      48.927   5.732  21.772  0.00  0.00    +0.000 N 
ATOM      6  C   UNL     1      48.495   4.507  21.186  0.00  0.00    +0.000 A 
ATOM      7  C   UNL     1      46.211   5.584  21.120  0.00  0.00    +0.000 A 
ATOM      8  C   UNL     1      46.892   6.711  21.715  0.00  0.00    +0.000 A 
ATOM      9  C   UNL     1      48.056   6.738  21.980  0.00  0.00    +0.000 A 
ENDROOT
BRANCH   4  10
ATOM     10  O   UNL     1      46.576   3.381  20.301  0.00  0.00    +0.000 OA
BRANCH  10  13
ATOM     11  O   UNL     1      46.806   1.192  20.763  0.00  0.00    +0.000 OA
ATOM     12  O   UNL     1      45.700   2.546  22.158  0.00  0.00    +0.000 OA
ATOM     13  N   UNL     1      46.339   2.268  21.146  0.00  0.00    +0.000 N 
ENDBRANCH  10  13
ENDBRANCH   4  10
TORSDOF 2
ENDMDL
MODEL 7
REMARK VINA RESULT:      -4.5      2.137      2.870
REMARK  Name = 146026348_FluorouracilMononitrate.pdbqt.pdb
REMARK  2 active torsions:
REMARK  status: ('A' for Active; 'I' for Inactive)
REMARK    1  A    between atoms: N_4  and  O_10
REMARK    2  A    between atoms: O_10  and  N_13
REMARK                            x       y       z     vdW  Elec       q    Type
REMARK                         _______ _______ _______ _____ _____    ______ ____
ROOT
ATOM      1  F   UNL     1      34.825   1.411  18.638  0.00  0.00    +0.000 F 
ATOM      2  O   UNL     1      34.806   3.280  16.560  0.00  0.00    +0.000 OA
ATOM      3  O   UNL     1      36.704  -0.027  13.851  0.00  0.00    +0.000 OA
ATOM      4  N   UNL     1      35.902   1.711  15.213  0.00  0.00    +0.000 N 
ATOM      5  N   UNL     1      35.404   1.182  17.449  0.00  0.00    +0.000 N 
ATOM      6  C   UNL     1      35.326   2.175  16.429  0.00  0.00    +0.000 A 
ATOM      7  C   UNL     1      36.356   0.421  14.931  0.00  0.00    +0.000 A 
ATOM      8  C   UNL     1      36.320  -0.398  16.121  0.00  0.00    +0.000 A 
ATOM      9  C   UNL     1      35.906  -0.038  17.180  0.00  0.00    +0.000 A 
ENDROOT
BRANCH   4  10
ATOM     10  O   UNL     1      35.792   2.584  14.116  0.00  0.00    +0.000 OA
BRANCH  10  13
ATOM     11  O   UNL     1      37.650   3.761  14.583  0.00  0.00    +0.000 OA
ATOM     12  O   UNL     1      37.279   2.977  12.522  0.00  0.00    +0.000 OA
ATOM     13  N   UNL     1      37.018   3.164  13.707  0.00  0.00    +0.000 N 
ENDBRANCH  10  13
ENDBRANCH   4  10
TORSDOF 2
ENDMDL
MODEL 8
REMARK VINA RESULT:      -4.2     27.026     27.765
REMARK  Name = 146026348_FluorouracilMononitrate.pdbqt.pdb
REMARK  2 active torsions:
REMARK  status: ('A' for Active; 'I' for Inactive)
REMARK    1  A    between atoms: N_4  and  O_10
REMARK    2  A    between atoms: O_10  and  N_13
REMARK                            x       y       z     vdW  Elec       q    Type
REMARK                         _______ _______ _______ _____ _____    ______ ____
ROOT
ATOM      1  F   UNL     1      26.223  24.464  30.123  0.00  0.00    +0.000 F 
ATOM      2  O   UNL     1      28.455  23.904  28.536  0.00  0.00    +0.000 OA
ATOM      3  O   UNL     1      29.892  21.036  31.940  0.00  0.00    +0.000 OA
ATOM      4  N   UNL     1      29.292  22.584  30.278  0.00  0.00    +0.000 N 
ATOM      5  N   UNL     1      27.258  23.729  30.557  0.00  0.00    +0.000 N 
ATOM      6  C   UNL     1      28.348  23.463  29.677  0.00  0.00    +0.000 A 
ATOM      7  C   UNL     1      29.164  21.907  31.492  0.00  0.00    +0.000 A 
ATOM      8  C   UNL     1      27.973  22.338  32.187  0.00  0.00    +0.000 A 
ATOM      9  C   UNL     1      27.181  23.119  31.755  0.00  0.00    +0.000 A 
ENDROOT
BRANCH   4  10
ATOM     10  O   UNL     1      30.361  22.185  29.455  0.00  0.00    +0.000 OA
BRANCH  10  13
ATOM     11  O   UNL     1      32.270  22.743  30.503  0.00  0.00    +0.000 OA
ATOM     12  O   UNL     1      31.600  23.851  28.680  0.00  0.00    +0.000 OA
ATOM     13  N   UNL     1      31.515  23.000  29.562  0.00  0.00    +0.000 N 
ENDBRANCH  10  13
ENDBRANCH   4  10
TORSDOF 2
ENDMDL
MODEL 9
REMARK VINA RESULT:      -4.0     13.163     14.008
REMARK  Name = 146026348_FluorouracilMononitrate.pdbqt.pdb
REMARK  2 active torsions:
REMARK  status: ('A' for Active; 'I' for Inactive)
REMARK    1  A    between atoms: N_4  and  O_10
REMARK    2  A    between atoms: O_10  and  N_13
REMARK                            x       y       z     vdW  Elec       q    Type
REMARK                         _______ _______ _______ _____ _____    ______ ____
ROOT
ATOM      1  F   UNL     1      50.899   4.620  20.468  0.00  0.00    +0.000 F 
ATOM      2  O   UNL     1      49.255   6.479  21.753  0.00  0.00    +0.000 OA
ATOM      3  O   UNL     1      45.755   3.419  21.245  0.00  0.00    +0.000 OA
ATOM      4  N   UNL     1      47.440   5.049  21.378  0.00  0.00    +0.000 N 
ATOM      5  N   UNL     1      49.571   4.462  20.578  0.00  0.00    +0.000 N 
ATOM      6  C   UNL     1      48.804   5.441  21.274  0.00  0.00    +0.000 A 
ATOM      7  C   UNL     1      46.884   3.821  21.017  0.00  0.00    +0.000 A 
ATOM      8  C   UNL     1      47.865   3.001  20.345  0.00  0.00    +0.000 A 
ATOM      9  C   UNL     1      49.006   3.308  20.176  0.00  0.00    +0.000 A 
ENDROOT
BRANCH   4  10
ATOM     10  O   UNL     1      46.617   5.906  22.130  0.00  0.00    +0.000 OA
BRANCH  10  13
ATOM     11  O   UNL     1      44.581   6.432  21.332  0.00  0.00    +0.000 OA
ATOM     12  O   UNL     1      46.371   7.667  20.808  0.00  0.00    +0.000 OA
ATOM     13  N   UNL     1      45.776   6.739  21.352  0.00  0.00    +0.000 N 
ENDBRANCH  10  13
ENDBRANCH   4  10
TORSDOF 2
ENDMDL
