MODEL 1
REMARK VINA RESULT:      -8.4      0.000      0.000
REMARK  Name = 179268_Nortopsentin.pdbqt.pdb
REMARK  2 active torsions:
REMARK  status: ('A' for Active; 'I' for Inactive)
REMARK    1  A    between atoms: C_3  and  C_9
REMARK    2  A    between atoms: C_4  and  C_20
REMARK                            x       y       z     vdW  Elec       q    Type
REMARK                         _______ _______ _______ _____ _____    ______ ____
ROOT
ATOM      1  N   UNL     1      19.746   9.436  18.385  0.00  0.00    +0.000 N 
ATOM      2  N   UNL     1      21.396   8.849  17.033  0.00  0.00    +0.000 NA
ATOM      3  C   UNL     1      20.008   8.124  18.666  0.00  0.00    +0.000 A 
ATOM      4  C   UNL     1      20.605   9.838  17.393  0.00  0.00    +0.000 A 
ATOM      5  C   UNL     1      21.034   7.779  17.816  0.00  0.00    +0.000 A 
ATOM      6  H   UNL     1      19.048  10.019  18.821  0.00  0.00    +0.000 HD
ENDROOT
BRANCH   3   9
ATOM      7 BR   UNL     1      17.009   1.694  20.187  0.00  0.00    +0.000 Br
ATOM      8  N   UNL     1      18.416   6.658  21.592  0.00  0.00    +0.000 N 
ATOM      9  C   UNL     1      19.330   7.274  19.666  0.00  0.00    +0.000 A 
ATOM     10  C   UNL     1      18.866   5.934  19.527  0.00  0.00    +0.000 A 
ATOM     11  C   UNL     1      18.297   5.575  20.752  0.00  0.00    +0.000 A 
ATOM     12  C   UNL     1      19.039   7.688  20.944  0.00  0.00    +0.000 A 
ATOM     13  C   UNL     1      18.869   4.986  18.485  0.00  0.00    +0.000 A 
ATOM     14  C   UNL     1      17.731   4.317  20.990  0.00  0.00    +0.000 A 
ATOM     15  C   UNL     1      18.311   3.726  18.701  0.00  0.00    +0.000 A 
ATOM     16  C   UNL     1      17.755   3.407  19.933  0.00  0.00    +0.000 A 
ATOM     17  H   UNL     1      18.091   6.690  22.549  0.00  0.00    +0.000 HD
ENDBRANCH   3   9
BRANCH   4  20
ATOM     18 BR   UNL     1      21.963  16.866  18.518  0.00  0.00    +0.000 Br
ATOM     19  N   UNL     1      20.447  12.848  15.333  0.00  0.00    +0.000 N 
ATOM     20  C   UNL     1      20.635  11.203  16.810  0.00  0.00    +0.000 A 
ATOM     21  C   UNL     1      21.000  12.418  17.454  0.00  0.00    +0.000 A 
ATOM     22  C   UNL     1      20.873  13.434  16.503  0.00  0.00    +0.000 A 
ATOM     23  C   UNL     1      20.300  11.498  15.508  0.00  0.00    +0.000 A 
ATOM     24  C   UNL     1      21.429  12.759  18.752  0.00  0.00    +0.000 A 
ATOM     25  C   UNL     1      21.151  14.775  16.781  0.00  0.00    +0.000 A 
ATOM     26  C   UNL     1      21.711  14.093  19.051  0.00  0.00    +0.000 A 
ATOM     27  C   UNL     1      21.572  15.074  18.078  0.00  0.00    +0.000 A 
ATOM     28  H   UNL     1      20.269  13.345  14.470  0.00  0.00    +0.000 HD
ENDBRANCH   4  20
TORSDOF 2
ENDMDL
MODEL 2
REMARK VINA RESULT:      -8.2     21.809     23.676
REMARK  Name = 179268_Nortopsentin.pdbqt.pdb
REMARK  2 active torsions:
REMARK  status: ('A' for Active; 'I' for Inactive)
REMARK    1  A    between atoms: C_3  and  C_9
REMARK    2  A    between atoms: C_4  and  C_20
REMARK                            x       y       z     vdW  Elec       q    Type
REMARK                         _______ _______ _______ _____ _____    ______ ____
ROOT
ATOM      1  N   UNL     1      39.235  -0.303  11.718  0.00  0.00    +0.000 N 
ATOM      2  N   UNL     1      40.943   1.094  11.564  0.00  0.00    +0.000 NA
ATOM      3  C   UNL     1      38.788   0.888  12.221  0.00  0.00    +0.000 A 
ATOM      4  C   UNL     1      40.541  -0.138  11.332  0.00  0.00    +0.000 A 
ATOM      5  C   UNL     1      39.864   1.740  12.117  0.00  0.00    +0.000 A 
ATOM      6  H   UNL     1      38.709  -1.159  11.638  0.00  0.00    +0.000 HD
ENDROOT
BRANCH   3   9
ATOM      7 BR   UNL     1      33.461  -1.051  16.750  0.00  0.00    +0.000 Br
ATOM      8  N   UNL     1      35.506   2.223  13.049  0.00  0.00    +0.000 N 
ATOM      9  C   UNL     1      37.444   1.181  12.757  0.00  0.00    +0.000 A 
ATOM     10  C   UNL     1      36.700   0.463  13.736  0.00  0.00    +0.000 A 
ATOM     11  C   UNL     1      35.487   1.141  13.899  0.00  0.00    +0.000 A 
ATOM     12  C   UNL     1      36.683   2.254  12.356  0.00  0.00    +0.000 A 
ATOM     13  C   UNL     1      36.929  -0.695  14.505  0.00  0.00    +0.000 A 
ATOM     14  C   UNL     1      34.492   0.720  14.789  0.00  0.00    +0.000 A 
ATOM     15  C   UNL     1      35.951  -1.132  15.399  0.00  0.00    +0.000 A 
ATOM     16  C   UNL     1      34.759  -0.430  15.531  0.00  0.00    +0.000 A 
ATOM     17  H   UNL     1      34.759   2.897  12.950  0.00  0.00    +0.000 HD
ENDBRANCH   3   9
BRANCH   4  20
ATOM     18 BR   UNL     1      46.996  -3.431  11.263  0.00  0.00    +0.000 Br
ATOM     19  N   UNL     1      41.994  -2.906   9.447  0.00  0.00    +0.000 N 
ATOM     20  C   UNL     1      41.381  -1.205  10.733  0.00  0.00    +0.000 A 
ATOM     21  C   UNL     1      42.729  -1.534  11.049  0.00  0.00    +0.000 A 
ATOM     22  C   UNL     1      43.088  -2.605  10.226  0.00  0.00    +0.000 A 
ATOM     23  C   UNL     1      40.957  -2.065   9.745  0.00  0.00    +0.000 A 
ATOM     24  C   UNL     1      43.684  -1.030  11.954  0.00  0.00    +0.000 A 
ATOM     25  C   UNL     1      44.352  -3.200  10.260  0.00  0.00    +0.000 A 
ATOM     26  C   UNL     1      44.953  -1.609  12.003  0.00  0.00    +0.000 A 
ATOM     27  C   UNL     1      45.271  -2.672  11.168  0.00  0.00    +0.000 A 
ATOM     28  H   UNL     1      41.964  -3.643   8.755  0.00  0.00    +0.000 HD
ENDBRANCH   4  20
TORSDOF 2
ENDMDL
MODEL 3
REMARK VINA RESULT:      -7.8     21.522     23.586
REMARK  Name = 179268_Nortopsentin.pdbqt.pdb
REMARK  2 active torsions:
REMARK  status: ('A' for Active; 'I' for Inactive)
REMARK    1  A    between atoms: C_3  and  C_9
REMARK    2  A    between atoms: C_4  and  C_20
REMARK                            x       y       z     vdW  Elec       q    Type
REMARK                         _______ _______ _______ _____ _____    ______ ____
ROOT
ATOM      1  N   UNL     1      39.481   0.502  12.254  0.00  0.00    +0.000 N 
ATOM      2  N   UNL     1      39.612   2.664  11.806  0.00  0.00    +0.000 NA
ATOM      3  C   UNL     1      40.319   0.609  11.179  0.00  0.00    +0.000 A 
ATOM      4  C   UNL     1      39.074   1.764  12.603  0.00  0.00    +0.000 A 
ATOM      5  C   UNL     1      40.386   1.958  10.917  0.00  0.00    +0.000 A 
ATOM      6  H   UNL     1      39.202  -0.349  12.718  0.00  0.00    +0.000 HD
ENDROOT
BRANCH   3   9
ATOM      7 BR   UNL     1      45.856  -4.078  11.025  0.00  0.00    +0.000 Br
ATOM      8  N   UNL     1      41.407  -2.011   8.898  0.00  0.00    +0.000 N 
ATOM      9  C   UNL     1      40.998  -0.491  10.464  0.00  0.00    +0.000 A 
ATOM     10  C   UNL     1      42.182  -1.193  10.828  0.00  0.00    +0.000 A 
ATOM     11  C   UNL     1      42.414  -2.141   9.827  0.00  0.00    +0.000 A 
ATOM     12  C   UNL     1      40.548  -1.017   9.275  0.00  0.00    +0.000 A 
ATOM     13  C   UNL     1      43.084  -1.124  11.907  0.00  0.00    +0.000 A 
ATOM     14  C   UNL     1      43.502  -3.022   9.848  0.00  0.00    +0.000 A 
ATOM     15  C   UNL     1      44.175  -1.992  11.950  0.00  0.00    +0.000 A 
ATOM     16  C   UNL     1      44.371  -2.920  10.934  0.00  0.00    +0.000 A 
ATOM     17  H   UNL     1      41.314  -2.567   8.060  0.00  0.00    +0.000 HD
ENDBRANCH   3   9
BRANCH   4  20
ATOM     18 BR   UNL     1      34.075  -0.782  17.189  0.00  0.00    +0.000 Br
ATOM     19  N   UNL     1      37.098   3.209  15.312  0.00  0.00    +0.000 N 
ATOM     20  C   UNL     1      38.155   2.069  13.728  0.00  0.00    +0.000 A 
ATOM     21  C   UNL     1      37.262   1.182  14.390  0.00  0.00    +0.000 A 
ATOM     22  C   UNL     1      36.611   1.924  15.378  0.00  0.00    +0.000 A 
ATOM     23  C   UNL     1      38.032   3.308  14.316  0.00  0.00    +0.000 A 
ATOM     24  C   UNL     1      36.939  -0.182  14.248  0.00  0.00    +0.000 A 
ATOM     25  C   UNL     1      35.653   1.375  16.236  0.00  0.00    +0.000 A 
ATOM     26  C   UNL     1      35.984  -0.751  15.093  0.00  0.00    +0.000 A 
ATOM     27  C   UNL     1      35.360   0.021  16.064  0.00  0.00    +0.000 A 
ATOM     28  H   UNL     1      36.806   3.969  15.912  0.00  0.00    +0.000 HD
ENDBRANCH   4  20
TORSDOF 2
ENDMDL
MODEL 4
REMARK VINA RESULT:      -7.7     21.940     23.986
REMARK  Name = 179268_Nortopsentin.pdbqt.pdb
REMARK  2 active torsions:
REMARK  status: ('A' for Active; 'I' for Inactive)
REMARK    1  A    between atoms: C_3  and  C_9
REMARK    2  A    between atoms: C_4  and  C_20
REMARK                            x       y       z     vdW  Elec       q    Type
REMARK                         _______ _______ _______ _____ _____    ______ ____
ROOT
ATOM      1  N   UNL     1      39.979   0.584  12.399  0.00  0.00    +0.000 N 
ATOM      2  N   UNL     1      39.009   0.868  10.432  0.00  0.00    +0.000 NA
ATOM      3  C   UNL     1      40.953   0.351  11.468  0.00  0.00    +0.000 A 
ATOM      4  C   UNL     1      38.819   0.893  11.735  0.00  0.00    +0.000 A 
ATOM      5  C   UNL     1      40.329   0.533  10.254  0.00  0.00    +0.000 A 
ATOM      6  H   UNL     1      40.081   0.539  13.402  0.00  0.00    +0.000 HD
ENDROOT
BRANCH   3   9
ATOM      7 BR   UNL     1      46.287  -4.465  10.468  0.00  0.00    +0.000 Br
ATOM      8  N   UNL     1      44.440   0.130  12.485  0.00  0.00    +0.000 N 
ATOM      9  C   UNL     1      42.361  -0.015  11.721  0.00  0.00    +0.000 A 
ATOM     10  C   UNL     1      43.071  -1.173  11.292  0.00  0.00    +0.000 A 
ATOM     11  C   UNL     1      44.373  -1.054  11.787  0.00  0.00    +0.000 A 
ATOM     12  C   UNL     1      43.230   0.764  12.449  0.00  0.00    +0.000 A 
ATOM     13  C   UNL     1      42.743  -2.313  10.534  0.00  0.00    +0.000 A 
ATOM     14  C   UNL     1      45.364  -2.017  11.564  0.00  0.00    +0.000 A 
ATOM     15  C   UNL     1      43.716  -3.285  10.298  0.00  0.00    +0.000 A 
ATOM     16  C   UNL     1      44.999  -3.131  10.808  0.00  0.00    +0.000 A 
ATOM     17  H   UNL     1      45.263   0.482  12.956  0.00  0.00    +0.000 HD
ENDBRANCH   3   9
BRANCH   4  20
ATOM     18 BR   UNL     1      34.022  -0.965  16.837  0.00  0.00    +0.000 Br
ATOM     19  N   UNL     1      35.633   2.255  12.884  0.00  0.00    +0.000 N 
ATOM     20  C   UNL     1      37.531   1.212  12.399  0.00  0.00    +0.000 A 
ATOM     21  C   UNL     1      36.901   0.510  13.464  0.00  0.00    +0.000 A 
ATOM     22  C   UNL     1      35.712   1.186  13.748  0.00  0.00    +0.000 A 
ATOM     23  C   UNL     1      36.728   2.279  12.064  0.00  0.00    +0.000 A 
ATOM     24  C   UNL     1      37.222  -0.636  14.218  0.00  0.00    +0.000 A 
ATOM     25  C   UNL     1      34.825   0.778  14.748  0.00  0.00    +0.000 A 
ATOM     26  C   UNL     1      36.349  -1.062  15.222  0.00  0.00    +0.000 A 
ATOM     27  C   UNL     1      35.177  -0.361  15.473  0.00  0.00    +0.000 A 
ATOM     28  H   UNL     1      34.875   2.923  12.861  0.00  0.00    +0.000 HD
ENDBRANCH   4  20
TORSDOF 2
ENDMDL
MODEL 5
REMARK VINA RESULT:      -7.7     28.514     32.253
REMARK  Name = 179268_Nortopsentin.pdbqt.pdb
REMARK  2 active torsions:
REMARK  status: ('A' for Active; 'I' for Inactive)
REMARK    1  A    between atoms: C_3  and  C_9
REMARK    2  A    between atoms: C_4  and  C_20
REMARK                            x       y       z     vdW  Elec       q    Type
REMARK                         _______ _______ _______ _____ _____    ______ ____
ROOT
ATOM      1  N   UNL     1      23.291  -9.374  43.640  0.00  0.00    +0.000 N 
ATOM      2  N   UNL     1      21.507  -8.440  44.556  0.00  0.00    +0.000 NA
ATOM      3  C   UNL     1      23.560  -9.294  44.978  0.00  0.00    +0.000 A 
ATOM      4  C   UNL     1      22.043  -8.848  43.424  0.00  0.00    +0.000 A 
ATOM      5  C   UNL     1      22.440  -8.711  45.528  0.00  0.00    +0.000 A 
ATOM      6  H   UNL     1      23.895  -9.751  42.925  0.00  0.00    +0.000 HD
ENDROOT
BRANCH   3   9
ATOM      7 BR   UNL     1      29.607 -13.295  44.726  0.00  0.00    +0.000 Br
ATOM      8  N   UNL     1      26.317  -9.931  47.266  0.00  0.00    +0.000 N 
ATOM      9  C   UNL     1      24.786  -9.738  45.671  0.00  0.00    +0.000 A 
ATOM     10  C   UNL     1      25.802 -10.620  45.204  0.00  0.00    +0.000 A 
ATOM     11  C   UNL     1      26.750 -10.722  46.227  0.00  0.00    +0.000 A 
ATOM     12  C   UNL     1      25.133  -9.333  46.938  0.00  0.00    +0.000 A 
ATOM     13  C   UNL     1      26.017 -11.345  44.016  0.00  0.00    +0.000 A 
ATOM     14  C   UNL     1      27.901 -11.511  46.123  0.00  0.00    +0.000 A 
ATOM     15  C   UNL     1      27.159 -12.138  43.891  0.00  0.00    +0.000 A 
ATOM     16  C   UNL     1      28.077 -12.213  44.931  0.00  0.00    +0.000 A 
ATOM     17  H   UNL     1      26.803  -9.808  48.144  0.00  0.00    +0.000 HD
ENDBRANCH   3   9
BRANCH   4  20
ATOM     18 BR   UNL     1      18.552 -12.374  38.143  0.00  0.00    +0.000 Br
ATOM     19  N   UNL     1      20.622  -7.893  40.199  0.00  0.00    +0.000 N 
ATOM     20  C   UNL     1      21.389  -8.756  42.095  0.00  0.00    +0.000 A 
ATOM     21  C   UNL     1      20.772  -9.801  41.351  0.00  0.00    +0.000 A 
ATOM     22  C   UNL     1      20.300  -9.231  40.166  0.00  0.00    +0.000 A 
ATOM     23  C   UNL     1      21.281  -7.596  41.361  0.00  0.00    +0.000 A 
ATOM     24  C   UNL     1      20.566 -11.178  41.567  0.00  0.00    +0.000 A 
ATOM     25  C   UNL     1      19.632  -9.965  39.183  0.00  0.00    +0.000 A 
ATOM     26  C   UNL     1      19.902 -11.930  40.596  0.00  0.00    +0.000 A 
ATOM     27  C   UNL     1      19.447 -11.326  39.432  0.00  0.00    +0.000 A 
ATOM     28  H   UNL     1      20.403  -7.229  39.469  0.00  0.00    +0.000 HD
ENDBRANCH   4  20
TORSDOF 2
ENDMDL
MODEL 6
REMARK VINA RESULT:      -7.5     13.520     17.298
REMARK  Name = 179268_Nortopsentin.pdbqt.pdb
REMARK  2 active torsions:
REMARK  status: ('A' for Active; 'I' for Inactive)
REMARK    1  A    between atoms: C_3  and  C_9
REMARK    2  A    between atoms: C_4  and  C_20
REMARK                            x       y       z     vdW  Elec       q    Type
REMARK                         _______ _______ _______ _____ _____    ______ ____
ROOT
ATOM      1  N   UNL     1      22.050  -1.734   8.218  0.00  0.00    +0.000 N 
ATOM      2  N   UNL     1      20.448  -0.376   7.521  0.00  0.00    +0.000 NA
ATOM      3  C   UNL     1      22.437  -1.309   6.977  0.00  0.00    +0.000 A 
ATOM      4  C   UNL     1      20.843  -1.149   8.510  0.00  0.00    +0.000 A 
ATOM      5  C   UNL     1      21.429  -0.467   6.563  0.00  0.00    +0.000 A 
ATOM      6  H   UNL     1      22.552  -2.366   8.822  0.00  0.00    +0.000 HD
ENDROOT
BRANCH   3   9
ATOM      7 BR   UNL     1      28.808   0.855   4.260  0.00  0.00    +0.000 Br
ATOM      8  N   UNL     1      25.148  -2.935   5.175  0.00  0.00    +0.000 N 
ATOM      9  C   UNL     1      23.669  -1.678   6.252  0.00  0.00    +0.000 A 
ATOM     10  C   UNL     1      24.773  -0.853   5.895  0.00  0.00    +0.000 A 
ATOM     11  C   UNL     1      25.686  -1.670   5.220  0.00  0.00    +0.000 A 
ATOM     12  C   UNL     1      23.931  -2.949   5.796  0.00  0.00    +0.000 A 
ATOM     13  C   UNL     1      25.096   0.506   6.075  0.00  0.00    +0.000 A 
ATOM     14  C   UNL     1      26.903  -1.197   4.715  0.00  0.00    +0.000 A 
ATOM     15  C   UNL     1      26.304   0.998   5.580  0.00  0.00    +0.000 A 
ATOM     16  C   UNL     1      27.184   0.154   4.915  0.00  0.00    +0.000 A 
ATOM     17  H   UNL     1      25.587  -3.739   4.746  0.00  0.00    +0.000 HD
ENDBRANCH   3   9
BRANCH   4  20
ATOM     18 BR   UNL     1      18.807  -5.870  13.617  0.00  0.00    +0.000 Br
ATOM     19  N   UNL     1      18.843  -0.935  11.557  0.00  0.00    +0.000 N 
ATOM     20  C   UNL     1      20.092  -1.361   9.773  0.00  0.00    +0.000 A 
ATOM     21  C   UNL     1      19.939  -2.572  10.504  0.00  0.00    +0.000 A 
ATOM     22  C   UNL     1      19.150  -2.276  11.618  0.00  0.00    +0.000 A 
ATOM     23  C   UNL     1      19.407  -0.373  10.444  0.00  0.00    +0.000 A 
ATOM     24  C   UNL     1      20.393  -3.895  10.331  0.00  0.00    +0.000 A 
ATOM     25  C   UNL     1      18.790  -3.232  12.572  0.00  0.00    +0.000 A 
ATOM     26  C   UNL     1      20.043  -4.866  11.271  0.00  0.00    +0.000 A 
ATOM     27  C   UNL     1      19.258  -4.531  12.366  0.00  0.00    +0.000 A 
ATOM     28  H   UNL     1      18.281  -0.441  12.237  0.00  0.00    +0.000 HD
ENDBRANCH   4  20
TORSDOF 2
ENDMDL
MODEL 7
REMARK VINA RESULT:      -7.5     13.680     15.810
REMARK  Name = 179268_Nortopsentin.pdbqt.pdb
REMARK  2 active torsions:
REMARK  status: ('A' for Active; 'I' for Inactive)
REMARK    1  A    between atoms: C_3  and  C_9
REMARK    2  A    between atoms: C_4  and  C_20
REMARK                            x       y       z     vdW  Elec       q    Type
REMARK                         _______ _______ _______ _____ _____    ______ ____
ROOT
ATOM      1  N   UNL     1      21.949  -1.913   8.247  0.00  0.00    +0.000 N 
ATOM      2  N   UNL     1      21.424  -0.512   6.618  0.00  0.00    +0.000 NA
ATOM      3  C   UNL     1      20.769  -1.332   8.622  0.00  0.00    +0.000 A 
ATOM      4  C   UNL     1      22.313  -1.391   7.032  0.00  0.00    +0.000 A 
ATOM      5  C   UNL     1      20.461  -0.466   7.597  0.00  0.00    +0.000 A 
ATOM      6  H   UNL     1      22.472  -2.604   8.764  0.00  0.00    +0.000 HD
ENDROOT
BRANCH   3   9
ATOM      7 BR   UNL     1      18.829  -6.104  13.732  0.00  0.00    +0.000 Br
ATOM      8  N   UNL     1      18.679  -1.203  11.598  0.00  0.00    +0.000 N 
ATOM      9  C   UNL     1      20.002  -1.587   9.858  0.00  0.00    +0.000 A 
ATOM     10  C   UNL     1      19.890  -2.796  10.602  0.00  0.00    +0.000 A 
ATOM     11  C   UNL     1      19.052  -2.524  11.689  0.00  0.00    +0.000 A 
ATOM     12  C   UNL     1      19.248  -0.630  10.496  0.00  0.00    +0.000 A 
ATOM     13  C   UNL     1      20.412  -4.097  10.468  0.00  0.00    +0.000 A 
ATOM     14  C   UNL     1      18.710  -3.486  12.647  0.00  0.00    +0.000 A 
ATOM     15  C   UNL     1      20.085  -5.071  11.411  0.00  0.00    +0.000 A 
ATOM     16  C   UNL     1      19.249  -4.761  12.477  0.00  0.00    +0.000 A 
ATOM     17  H   UNL     1      18.072  -0.724  12.250  0.00  0.00    +0.000 HD
ENDBRANCH   3   9
BRANCH   4  20
ATOM     18 BR   UNL     1      28.588   0.840   4.177  0.00  0.00    +0.000 Br
ATOM     19  N   UNL     1      25.029  -3.014   5.211  0.00  0.00    +0.000 N 
ATOM     20  C   UNL     1      23.540  -1.771   6.288  0.00  0.00    +0.000 A 
ATOM     21  C   UNL     1      24.620  -0.929   5.900  0.00  0.00    +0.000 A 
ATOM     22  C   UNL     1      25.539  -1.736   5.226  0.00  0.00    +0.000 A 
ATOM     23  C   UNL     1      23.819  -3.045   5.850  0.00  0.00    +0.000 A 
ATOM     24  C   UNL     1      24.911   0.440   6.055  0.00  0.00    +0.000 A 
ATOM     25  C   UNL     1      26.737  -1.246   4.696  0.00  0.00    +0.000 A 
ATOM     26  C   UNL     1      26.101   0.951   5.533  0.00  0.00    +0.000 A 
ATOM     27  C   UNL     1      26.989   0.116   4.869  0.00  0.00    +0.000 A 
ATOM     28  H   UNL     1      25.483  -3.812   4.787  0.00  0.00    +0.000 HD
ENDBRANCH   4  20
TORSDOF 2
ENDMDL
MODEL 8
REMARK VINA RESULT:      -7.4      2.370      3.603
REMARK  Name = 179268_Nortopsentin.pdbqt.pdb
REMARK  2 active torsions:
REMARK  status: ('A' for Active; 'I' for Inactive)
REMARK    1  A    between atoms: C_3  and  C_9
REMARK    2  A    between atoms: C_4  and  C_20
REMARK                            x       y       z     vdW  Elec       q    Type
REMARK                         _______ _______ _______ _____ _____    ______ ____
ROOT
ATOM      1  N   UNL     1      20.491  12.418  19.299  0.00  0.00    +0.000 N 
ATOM      2  N   UNL     1      21.632  12.327  17.406  0.00  0.00    +0.000 NA
ATOM      3  C   UNL     1      20.315  11.150  18.820  0.00  0.00    +0.000 A 
ATOM      4  C   UNL     1      21.292  13.099  18.417  0.00  0.00    +0.000 A 
ATOM      5  C   UNL     1      21.031  11.115  17.644  0.00  0.00    +0.000 A 
ATOM      6  H   UNL     1      20.107  12.800  20.150  0.00  0.00    +0.000 HD
ENDROOT
BRANCH   3   9
ATOM      7 BR   UNL     1      19.040   4.021  19.265  0.00  0.00    +0.000 Br
ATOM      8  N   UNL     1      18.023   9.063  20.726  0.00  0.00    +0.000 N 
ATOM      9  C   UNL     1      19.527  10.064  19.437  0.00  0.00    +0.000 A 
ATOM     10  C   UNL     1      19.615   8.661  19.211  0.00  0.00    +0.000 A 
ATOM     11  C   UNL     1      18.659   8.058  20.034  0.00  0.00    +0.000 A 
ATOM     12  C   UNL     1      18.541  10.277  20.372  0.00  0.00    +0.000 A 
ATOM     13  C   UNL     1      20.409   7.835  18.391  0.00  0.00    +0.000 A 
ATOM     14  C   UNL     1      18.455   6.674  20.079  0.00  0.00    +0.000 A 
ATOM     15  C   UNL     1      20.224   6.453  18.420  0.00  0.00    +0.000 A 
ATOM     16  C   UNL     1      19.262   5.893  19.252  0.00  0.00    +0.000 A 
ATOM     17  H   UNL     1      17.281   8.926  21.399  0.00  0.00    +0.000 HD
ENDBRANCH   3   9
BRANCH   4  20
ATOM     18 BR   UNL     1      21.694  19.690  15.434  0.00  0.00    +0.000 Br
ATOM     19  N   UNL     1      22.559  16.343  19.513  0.00  0.00    +0.000 N 
ATOM     20  C   UNL     1      21.716  14.511  18.586  0.00  0.00    +0.000 A 
ATOM     21  C   UNL     1      21.592  15.577  17.651  0.00  0.00    +0.000 A 
ATOM     22  C   UNL     1      22.130  16.714  18.259  0.00  0.00    +0.000 A 
ATOM     23  C   UNL     1      22.314  15.012  19.720  0.00  0.00    +0.000 A 
ATOM     24  C   UNL     1      21.076  15.690  16.345  0.00  0.00    +0.000 A 
ATOM     25  C   UNL     1      22.179  17.961  17.631  0.00  0.00    +0.000 A 
ATOM     26  C   UNL     1      21.116  16.927  15.699  0.00  0.00    +0.000 A 
ATOM     27  C   UNL     1      21.658  18.034  16.338  0.00  0.00    +0.000 A 
ATOM     28  H   UNL     1      22.993  16.965  20.182  0.00  0.00    +0.000 HD
ENDBRANCH   4  20
TORSDOF 2
ENDMDL
MODEL 9
REMARK VINA RESULT:      -7.3      3.105      9.180
REMARK  Name = 179268_Nortopsentin.pdbqt.pdb
REMARK  2 active torsions:
REMARK  status: ('A' for Active; 'I' for Inactive)
REMARK    1  A    between atoms: C_3  and  C_9
REMARK    2  A    between atoms: C_4  and  C_20
REMARK                            x       y       z     vdW  Elec       q    Type
REMARK                         _______ _______ _______ _____ _____    ______ ____
ROOT
ATOM      1  N   UNL     1      20.088  11.099  19.742  0.00  0.00    +0.000 N 
ATOM      2  N   UNL     1      19.868  10.017  21.659  0.00  0.00    +0.000 NA
ATOM      3  C   UNL     1      20.051  12.063  20.711  0.00  0.00    +0.000 A 
ATOM      4  C   UNL     1      19.975   9.876  20.355  0.00  0.00    +0.000 A 
ATOM      5  C   UNL     1      19.914  11.370  21.892  0.00  0.00    +0.000 A 
ATOM      6  H   UNL     1      20.182  11.246  18.749  0.00  0.00    +0.000 HD
ENDROOT
BRANCH   3   9
ATOM      7 BR   UNL     1      17.794  18.642  22.777  0.00  0.00    +0.000 Br
ATOM      8  N   UNL     1      20.785  15.474  19.677  0.00  0.00    +0.000 N 
ATOM      9  C   UNL     1      20.139  13.525  20.519  0.00  0.00    +0.000 A 
ATOM     10  C   UNL     1      19.448  14.557  21.215  0.00  0.00    +0.000 A 
ATOM     11  C   UNL     1      19.874  15.771  20.665  0.00  0.00    +0.000 A 
ATOM     12  C   UNL     1      20.951  14.121  19.583  0.00  0.00    +0.000 A 
ATOM     13  C   UNL     1      18.502  14.590  22.258  0.00  0.00    +0.000 A 
ATOM     14  C   UNL     1      19.404  17.014  21.104  0.00  0.00    +0.000 A 
ATOM     15  C   UNL     1      18.020  15.818  22.712  0.00  0.00    +0.000 A 
ATOM     16  C   UNL     1      18.469  17.002  22.139  0.00  0.00    +0.000 A 
ATOM     17  H   UNL     1      21.264  16.156  19.104  0.00  0.00    +0.000 HD
ENDBRANCH   3   9
BRANCH   4  20
ATOM     18 BR   UNL     1      17.658   3.011  20.287  0.00  0.00    +0.000 Br
ATOM     19  N   UNL     1      20.408   7.040  18.097  0.00  0.00    +0.000 N 
ATOM     20  C   UNL     1      19.975   8.576  19.639  0.00  0.00    +0.000 A 
ATOM     21  C   UNL     1      19.323   7.370  20.021  0.00  0.00    +0.000 A 
ATOM     22  C   UNL     1      19.612   6.424  19.036  0.00  0.00    +0.000 A 
ATOM     23  C   UNL     1      20.634   8.342  18.453  0.00  0.00    +0.000 A 
ATOM     24  C   UNL     1      18.513   6.987  21.108  0.00  0.00    +0.000 A 
ATOM     25  C   UNL     1      19.134   5.111  19.078  0.00  0.00    +0.000 A 
ATOM     26  C   UNL     1      18.025   5.680  21.171  0.00  0.00    +0.000 A 
ATOM     27  C   UNL     1      18.336   4.768  20.170  0.00  0.00    +0.000 A 
ATOM     28  H   UNL     1      20.773   6.593  17.267  0.00  0.00    +0.000 HD
ENDBRANCH   4  20
TORSDOF 2
ENDMDL
