MODEL 1
REMARK VINA RESULT:      -5.3      0.000      0.000
REMARK  Name = 21574552_Mertensene.pdbqt.pdb
REMARK  1 active torsions:
REMARK  status: ('A' for Active; 'I' for Inactive)
REMARK    1  A    between atoms: C_4  and  C_13
REMARK                            x       y       z     vdW  Elec       q    Type
REMARK                         _______ _______ _______ _____ _____    ______ ____
ROOT
ATOM      1 BR   UNL     1      40.178   2.086  12.332  0.00  0.00    +0.000 Br
ATOM      2 CL   UNL     1      36.923  -1.839   9.274  0.00  0.00    +0.000 Cl
ATOM      3 CL   UNL     1      39.697  -0.692   7.666  0.00  0.00    +0.000 Cl
ATOM      4  C   UNL     1      37.441   1.320  11.411  0.00  0.00    +0.000 C 
ATOM      5  C   UNL     1      36.911   0.565  10.270  0.00  0.00    +0.000 C 
ATOM      6  C   UNL     1      37.259  -0.109   9.022  0.00  0.00    +0.000 C 
ATOM      7  C   UNL     1      38.953   1.460  11.102  0.00  0.00    +0.000 C 
ATOM      8  C   UNL     1      38.762   0.137   8.834  0.00  0.00    +0.000 C 
ATOM      9  C   UNL     1      39.395   0.862   9.885  0.00  0.00    +0.000 C 
ATOM     10  C   UNL     1      36.798   2.724  11.463  0.00  0.00    +0.000 C 
ATOM     11  C   UNL     1      36.439   0.385   7.826  0.00  0.00    +0.000 C 
ENDROOT
BRANCH   4  13
ATOM     12 CL   UNL     1      36.830  -0.941  15.163  0.00  0.00    +0.000 Cl
ATOM     13  C   UNL     1      37.244   0.570  12.661  0.00  0.00    +0.000 C 
ATOM     14  C   UNL     1      37.081  -0.043  13.680  0.00  0.00    +0.000 C 
ENDBRANCH   4  13
TORSDOF 1
ENDMDL
MODEL 2
REMARK VINA RESULT:      -4.7     18.856     20.589
REMARK  Name = 21574552_Mertensene.pdbqt.pdb
REMARK  1 active torsions:
REMARK  status: ('A' for Active; 'I' for Inactive)
REMARK    1  A    between atoms: C_4  and  C_13
REMARK                            x       y       z     vdW  Elec       q    Type
REMARK                         _______ _______ _______ _____ _____    ______ ____
ROOT
ATOM      1 BR   UNL     1      41.294 -15.325  -4.530  0.00  0.00    +0.000 Br
ATOM      2 CL   UNL     1      38.908 -15.773   0.898  0.00  0.00    +0.000 Cl
ATOM      3 CL   UNL     1      37.419 -13.501  -1.157  0.00  0.00    +0.000 Cl
ATOM      4  C   UNL     1      41.821 -15.398  -1.589  0.00  0.00    +0.000 C 
ATOM      5  C   UNL     1      41.046 -15.045  -0.394  0.00  0.00    +0.000 C 
ATOM      6  C   UNL     1      39.797 -14.461   0.086  0.00  0.00    +0.000 C 
ATOM      7  C   UNL     1      40.945 -14.902  -2.768  0.00  0.00    +0.000 C 
ATOM      8  C   UNL     1      39.057 -13.992  -1.174  0.00  0.00    +0.000 C 
ATOM      9  C   UNL     1      39.712 -14.283  -2.407  0.00  0.00    +0.000 C 
ATOM     10  C   UNL     1      43.165 -14.635  -1.595  0.00  0.00    +0.000 C 
ATOM     11  C   UNL     1      40.016 -13.320   1.085  0.00  0.00    +0.000 C 
ENDROOT
BRANCH   4  13
ATOM     12 CL   UNL     1      42.363 -19.781  -1.825  0.00  0.00    +0.000 Cl
ATOM     13  C   UNL     1      42.007 -16.855  -1.672  0.00  0.00    +0.000 C 
ATOM     14  C   UNL     1      42.156 -18.044  -1.738  0.00  0.00    +0.000 C 
ENDBRANCH   4  13
TORSDOF 1
ENDMDL
MODEL 3
REMARK VINA RESULT:      -4.4      2.652      5.128
REMARK  Name = 21574552_Mertensene.pdbqt.pdb
REMARK  1 active torsions:
REMARK  status: ('A' for Active; 'I' for Inactive)
REMARK    1  A    between atoms: C_4  and  C_13
REMARK                            x       y       z     vdW  Elec       q    Type
REMARK                         _______ _______ _______ _____ _____    ______ ____
ROOT
ATOM      1 BR   UNL     1      42.271   0.606  11.473  0.00  0.00    +0.000 Br
ATOM      2 CL   UNL     1      37.590   0.378   7.812  0.00  0.00    +0.000 Cl
ATOM      3 CL   UNL     1      36.864   1.165  11.046  0.00  0.00    +0.000 Cl
ATOM      4  C   UNL     1      40.841  -0.967   9.372  0.00  0.00    +0.000 C 
ATOM      5  C   UNL     1      39.446  -1.065   8.928  0.00  0.00    +0.000 C 
ATOM      6  C   UNL     1      38.078  -0.631   9.195  0.00  0.00    +0.000 C 
ATOM      7  C   UNL     1      40.773  -0.082  10.642  0.00  0.00    +0.000 C 
ATOM      8  C   UNL     1      38.160   0.201  10.483  0.00  0.00    +0.000 C 
ATOM      9  C   UNL     1      39.472   0.371  11.013  0.00  0.00    +0.000 C 
ATOM     10  C   UNL     1      41.376  -2.366   9.753  0.00  0.00    +0.000 C 
ATOM     11  C   UNL     1      37.095  -1.800   9.325  0.00  0.00    +0.000 C 
ENDROOT
BRANCH   4  13
ATOM     12 CL   UNL     1      43.318   0.972   6.263  0.00  0.00    +0.000 Cl
ATOM     13  C   UNL     1      41.666  -0.316   8.342  0.00  0.00    +0.000 C 
ATOM     14  C   UNL     1      42.339   0.212   7.500  0.00  0.00    +0.000 C 
ENDBRANCH   4  13
TORSDOF 1
ENDMDL
MODEL 4
REMARK VINA RESULT:      -4.2      2.500      2.702
REMARK  Name = 21574552_Mertensene.pdbqt.pdb
REMARK  1 active torsions:
REMARK  status: ('A' for Active; 'I' for Inactive)
REMARK    1  A    between atoms: C_4  and  C_13
REMARK                            x       y       z     vdW  Elec       q    Type
REMARK                         _______ _______ _______ _____ _____    ______ ____
ROOT
ATOM      1 BR   UNL     1      39.379   4.371   9.638  0.00  0.00    +0.000 Br
ATOM      2 CL   UNL     1      40.064  -1.446  10.663  0.00  0.00    +0.000 Cl
ATOM      3 CL   UNL     1      40.035  -0.546   7.378  0.00  0.00    +0.000 Cl
ATOM      4  C   UNL     1      38.372   1.980  11.121  0.00  0.00    +0.000 C 
ATOM      5  C   UNL     1      38.388   0.533  10.877  0.00  0.00    +0.000 C 
ATOM      6  C   UNL     1      38.745  -0.509   9.919  0.00  0.00    +0.000 C 
ATOM      7  C   UNL     1      38.919   2.591   9.807  0.00  0.00    +0.000 C 
ATOM      8  C   UNL     1      39.236   0.237   8.671  0.00  0.00    +0.000 C 
ATOM      9  C   UNL     1      39.268   1.658   8.787  0.00  0.00    +0.000 C 
ATOM     10  C   UNL     1      36.921   2.464  11.345  0.00  0.00    +0.000 C 
ATOM     11  C   UNL     1      37.582  -1.456   9.605  0.00  0.00    +0.000 C 
ENDROOT
BRANCH   4  13
ATOM     12 CL   UNL     1      41.027   3.033  14.498  0.00  0.00    +0.000 Cl
ATOM     13  C   UNL     1      39.254   2.324  12.247  0.00  0.00    +0.000 C 
ATOM     14  C   UNL     1      39.974   2.608  13.165  0.00  0.00    +0.000 C 
ENDBRANCH   4  13
TORSDOF 1
ENDMDL
MODEL 5
REMARK VINA RESULT:      -4.2     11.802     13.547
REMARK  Name = 21574552_Mertensene.pdbqt.pdb
REMARK  1 active torsions:
REMARK  status: ('A' for Active; 'I' for Inactive)
REMARK    1  A    between atoms: C_4  and  C_13
REMARK                            x       y       z     vdW  Elec       q    Type
REMARK                         _______ _______ _______ _____ _____    ______ ____
ROOT
ATOM      1 BR   UNL     1      42.902  11.172  17.133  0.00  0.00    +0.000 Br
ATOM      2 CL   UNL     1      44.217   7.350  21.495  0.00  0.00    +0.000 Cl
ATOM      3 CL   UNL     1      46.264  10.064  21.279  0.00  0.00    +0.000 Cl
ATOM      4  C   UNL     1      43.356   8.311  17.869  0.00  0.00    +0.000 C 
ATOM      5  C   UNL     1      44.131   7.624  18.908  0.00  0.00    +0.000 C 
ATOM      6  C   UNL     1      45.078   7.808  20.005  0.00  0.00    +0.000 C 
ATOM      7  C   UNL     1      43.770   9.798  18.008  0.00  0.00    +0.000 C 
ATOM      8  C   UNL     1      45.417   9.305  20.002  0.00  0.00    +0.000 C 
ATOM      9  C   UNL     1      44.720  10.083  19.032  0.00  0.00    +0.000 C 
ATOM     10  C   UNL     1      43.768   7.795  16.472  0.00  0.00    +0.000 C 
ATOM     11  C   UNL     1      46.328   6.933  19.867  0.00  0.00    +0.000 C 
ENDROOT
BRANCH   4  13
ATOM     12 CL   UNL     1      39.019   7.839  18.597  0.00  0.00    +0.000 Cl
ATOM     13  C   UNL     1      41.914   8.160  18.116  0.00  0.00    +0.000 C 
ATOM     14  C   UNL     1      40.737   8.033  18.315  0.00  0.00    +0.000 C 
ENDBRANCH   4  13
TORSDOF 1
ENDMDL
MODEL 6
REMARK VINA RESULT:      -4.1     14.903     16.344
REMARK  Name = 21574552_Mertensene.pdbqt.pdb
REMARK  1 active torsions:
REMARK  status: ('A' for Active; 'I' for Inactive)
REMARK    1  A    between atoms: C_4  and  C_13
REMARK                            x       y       z     vdW  Elec       q    Type
REMARK                         _______ _______ _______ _____ _____    ______ ____
ROOT
ATOM      1 BR   UNL     1      19.567   0.265   6.729  0.00  0.00    +0.000 Br
ATOM      2 CL   UNL     1      25.310  -1.237   7.065  0.00  0.00    +0.000 Cl
ATOM      3 CL   UNL     1      24.669   1.686   5.438  0.00  0.00    +0.000 Cl
ATOM      4  C   UNL     1      21.589  -1.900   6.340  0.00  0.00    +0.000 C 
ATOM      5  C   UNL     1      23.024  -1.928   6.033  0.00  0.00    +0.000 C 
ATOM      6  C   UNL     1      24.185  -1.111   5.691  0.00  0.00    +0.000 C 
ATOM      7  C   UNL     1      21.200  -0.408   6.192  0.00  0.00    +0.000 C 
ATOM      8  C   UNL     1      23.647   0.320   5.549  0.00  0.00    +0.000 C 
ATOM      9  C   UNL     1      22.257   0.476   5.827  0.00  0.00    +0.000 C 
ATOM     10  C   UNL     1      20.808  -2.737   5.302  0.00  0.00    +0.000 C 
ATOM     11  C   UNL     1      24.898  -1.588   4.422  0.00  0.00    +0.000 C 
ENDROOT
BRANCH   4  13
ATOM     12 CL   UNL     1      20.884  -3.270  10.485  0.00  0.00    +0.000 Cl
ATOM     13  C   UNL     1      21.347  -2.355   7.718  0.00  0.00    +0.000 C 
ATOM     14  C   UNL     1      21.154  -2.726   8.843  0.00  0.00    +0.000 C 
ENDBRANCH   4  13
TORSDOF 1
ENDMDL
MODEL 7
REMARK VINA RESULT:      -4.1     35.808     38.388
REMARK  Name = 21574552_Mertensene.pdbqt.pdb
REMARK  1 active torsions:
REMARK  status: ('A' for Active; 'I' for Inactive)
REMARK    1  A    between atoms: C_4  and  C_13
REMARK                            x       y       z     vdW  Elec       q    Type
REMARK                         _______ _______ _______ _____ _____    ______ ____
ROOT
ATOM      1 BR   UNL     1      20.418 -11.756  44.808  0.00  0.00    +0.000 Br
ATOM      2 CL   UNL     1      17.980  -8.015  40.882  0.00  0.00    +0.000 Cl
ATOM      3 CL   UNL     1      19.558 -10.712  39.527  0.00  0.00    +0.000 Cl
ATOM      4  C   UNL     1      20.121  -8.908  43.953  0.00  0.00    +0.000 C 
ATOM      5  C   UNL     1      19.852  -8.238  42.676  0.00  0.00    +0.000 C 
ATOM      6  C   UNL     1      19.673  -8.438  41.241  0.00  0.00    +0.000 C 
ATOM      7  C   UNL     1      20.321 -10.395  43.565  0.00  0.00    +0.000 C 
ATOM      8  C   UNL     1      19.928  -9.932  41.004  0.00  0.00    +0.000 C 
ATOM      9  C   UNL     1      20.199 -10.696  42.177  0.00  0.00    +0.000 C 
ATOM     10  C   UNL     1      21.426  -8.362  44.575  0.00  0.00    +0.000 C 
ATOM     11  C   UNL     1      20.594  -7.553  40.394  0.00  0.00    +0.000 C 
ENDROOT
BRANCH   4  13
ATOM     12 CL   UNL     1      16.667  -8.470  46.680  0.00  0.00    +0.000 Cl
ATOM     13  C   UNL     1      18.971  -8.770  44.860  0.00  0.00    +0.000 C 
ATOM     14  C   UNL     1      18.034  -8.653  45.601  0.00  0.00    +0.000 C 
ENDBRANCH   4  13
TORSDOF 1
ENDMDL
MODEL 8
REMARK VINA RESULT:      -4.1      3.089      4.093
REMARK  Name = 21574552_Mertensene.pdbqt.pdb
REMARK  1 active torsions:
REMARK  status: ('A' for Active; 'I' for Inactive)
REMARK    1  A    between atoms: C_4  and  C_13
REMARK                            x       y       z     vdW  Elec       q    Type
REMARK                         _______ _______ _______ _____ _____    ______ ____
ROOT
ATOM      1 BR   UNL     1      38.517   1.657   8.185  0.00  0.00    +0.000 Br
ATOM      2 CL   UNL     1      42.573  -1.164  11.493  0.00  0.00    +0.000 Cl
ATOM      3 CL   UNL     1      43.593  -0.323   8.354  0.00  0.00    +0.000 Cl
ATOM      4  C   UNL     1      39.073  -0.676   9.969  0.00  0.00    +0.000 C 
ATOM      5  C   UNL     1      40.272  -1.449  10.311  0.00  0.00    +0.000 C 
ATOM      6  C   UNL     1      41.691  -1.637  10.020  0.00  0.00    +0.000 C 
ATOM      7  C   UNL     1      39.540   0.260   8.825  0.00  0.00    +0.000 C 
ATOM      8  C   UNL     1      41.999  -0.679   8.862  0.00  0.00    +0.000 C 
ATOM      9  C   UNL     1      40.907   0.134   8.439  0.00  0.00    +0.000 C 
ATOM     10  C   UNL     1      37.968  -1.617   9.439  0.00  0.00    +0.000 C 
ATOM     11  C   UNL     1      42.043  -3.089   9.678  0.00  0.00    +0.000 C 
ENDROOT
BRANCH   4  13
ATOM     12 CL   UNL     1      37.739   1.721  13.438  0.00  0.00    +0.000 Cl
ATOM     13  C   UNL     1      38.624   0.117  11.123  0.00  0.00    +0.000 C 
ATOM     14  C   UNL     1      38.260   0.767  12.065  0.00  0.00    +0.000 C 
ENDBRANCH   4  13
TORSDOF 1
ENDMDL
MODEL 9
REMARK VINA RESULT:      -3.9     21.976     22.715
REMARK  Name = 21574552_Mertensene.pdbqt.pdb
REMARK  1 active torsions:
REMARK  status: ('A' for Active; 'I' for Inactive)
REMARK    1  A    between atoms: C_4  and  C_13
REMARK                            x       y       z     vdW  Elec       q    Type
REMARK                         _______ _______ _______ _____ _____    ______ ____
ROOT
ATOM      1 BR   UNL     1      51.583 -16.058  13.060  0.00  0.00    +0.000 Br
ATOM      2 CL   UNL     1      50.742 -18.477  18.427  0.00  0.00    +0.000 Cl
ATOM      3 CL   UNL     1      52.976 -20.105  16.437  0.00  0.00    +0.000 Cl
ATOM      4  C   UNL     1      49.579 -16.978  15.078  0.00  0.00    +0.000 C 
ATOM      5  C   UNL     1      49.582 -17.978  16.151  0.00  0.00    +0.000 C 
ATOM      6  C   UNL     1      50.354 -19.044  16.784  0.00  0.00    +0.000 C 
ATOM      7  C   UNL     1      50.920 -17.214  14.338  0.00  0.00    +0.000 C 
ATOM      8  C   UNL     1      51.625 -19.184  15.935  0.00  0.00    +0.000 C 
ATOM      9  C   UNL     1      51.740 -18.259  14.857  0.00  0.00    +0.000 C 
ATOM     10  C   UNL     1      48.407 -17.244  14.107  0.00  0.00    +0.000 C 
ATOM     11  C   UNL     1      49.580 -20.363  16.886  0.00  0.00    +0.000 C 
ENDROOT
BRANCH   4  13
ATOM     12 CL   UNL     1      49.483 -12.888  16.756  0.00  0.00    +0.000 Cl
ATOM     13  C   UNL     1      49.541 -15.619  15.639  0.00  0.00    +0.000 C 
ATOM     14  C   UNL     1      49.513 -14.509  16.096  0.00  0.00    +0.000 C 
ENDBRANCH   4  13
TORSDOF 1
ENDMDL
