MODEL 1
REMARK VINA RESULT:      -8.4      0.000      0.000
REMARK  Name = 222284_BetaSitosterol.pdbqt.pdb
REMARK  5 active torsions:
REMARK  status: ('A' for Active; 'I' for Inactive)
REMARK    1  A    between atoms: C_5  and  C_22
REMARK    2  A    between atoms: C_19  and  O_20
REMARK    3  A    between atoms: C_22  and  C_24
REMARK    4  A    between atoms: C_25  and  C_26
REMARK    5  A    between atoms: C_26  and  C_30
REMARK                            x       y       z     vdW  Elec       q    Type
REMARK                         _______ _______ _______ _____ _____    ______ ____
ROOT
ATOM      1  C   UNL     1      20.996  12.202  17.352  0.00  0.00    +0.000 C 
ATOM      2  C   UNL     1      21.203  10.647  16.977  0.00  0.00    +0.000 C 
ATOM      3  C   UNL     1      20.741   9.559  17.863  0.00  0.00    +0.000 C 
ATOM      4  C   UNL     1      19.800   9.709  19.032  0.00  0.00    +0.000 C 
ATOM      5  C   UNL     1      20.552  12.832  16.041  0.00  0.00    +0.000 C 
ATOM      6  C   UNL     1      19.963  12.209  18.390  0.00  0.00    +0.000 C 
ATOM      7  C   UNL     1      19.409   8.542  19.979  0.00  0.00    +0.000 C 
ATOM      8  C   UNL     1      21.039  10.531  15.561  0.00  0.00    +0.000 C 
ATOM      9  C   UNL     1      19.407  11.065  19.202  0.00  0.00    +0.000 C 
ATOM     10  C   UNL     1      20.601  11.858  15.002  0.00  0.00    +0.000 C 
ATOM     11  C   UNL     1      21.062   8.207  17.590  0.00  0.00    +0.000 C 
ATOM     12  C   UNL     1      22.360  12.771  17.823  0.00  0.00    +0.000 C 
ATOM     13  C   UNL     1      19.735   7.042  19.367  0.00  0.00    +0.000 C 
ATOM     14  C   UNL     1      17.932   8.526  20.197  0.00  0.00    +0.000 C 
ATOM     15  C   UNL     1      20.544   7.024  18.351  0.00  0.00    +0.000 C 
ATOM     16  C   UNL     1      20.205   8.678  21.309  0.00  0.00    +0.000 C 
ATOM     17  C   UNL     1      18.621   6.123  19.353  0.00  0.00    +0.000 C 
ATOM     18  C   UNL     1      16.839   7.451  20.070  0.00  0.00    +0.000 C 
ATOM     19  C   UNL     1      17.219   6.146  19.639  0.00  0.00    +0.000 C 
ENDROOT
BRANCH  19  20
ATOM     20  O   UNL     1      16.547   5.036  20.059  0.00  0.00    +0.000 OA
ATOM     21  H   UNL     1      16.606   4.316  19.409  0.00  0.00    +0.000 HD
ENDBRANCH  19  20
BRANCH   5  22
ATOM     22  C   UNL     1      20.099  14.180  15.895  0.00  0.00    +0.000 C 
ATOM     23  C   UNL     1      18.826  14.530  15.166  0.00  0.00    +0.000 C 
BRANCH  22  24
ATOM     24  C   UNL     1      20.808  15.281  16.445  0.00  0.00    +0.000 C 
ATOM     25  C   UNL     1      21.599  16.456  17.040  0.00  0.00    +0.000 C 
BRANCH  25  26
ATOM     26  C   UNL     1      22.344  17.536  17.604  0.00  0.00    +0.000 C 
ATOM     27  C   UNL     1      22.308  17.790  19.028  0.00  0.00    +0.000 C 
ATOM     28  C   UNL     1      21.508  16.929  19.988  0.00  0.00    +0.000 C 
ATOM     29  C   UNL     1      23.031  18.942  19.690  0.00  0.00    +0.000 C 
BRANCH  26  30
ATOM     30  C   UNL     1      23.134  18.366  16.766  0.00  0.00    +0.000 C 
ATOM     31  C   UNL     1      24.020  19.273  15.903  0.00  0.00    +0.000 C 
ENDBRANCH  26  30
ENDBRANCH  25  26
ENDBRANCH  22  24
ENDBRANCH   5  22
TORSDOF 5
ENDMDL
MODEL 2
REMARK VINA RESULT:      -7.9     20.591     22.744
REMARK  Name = 222284_BetaSitosterol.pdbqt.pdb
REMARK  5 active torsions:
REMARK  status: ('A' for Active; 'I' for Inactive)
REMARK    1  A    between atoms: C_5  and  C_22
REMARK    2  A    between atoms: C_19  and  O_20
REMARK    3  A    between atoms: C_22  and  C_24
REMARK    4  A    between atoms: C_25  and  C_26
REMARK    5  A    between atoms: C_26  and  C_30
REMARK                            x       y       z     vdW  Elec       q    Type
REMARK                         _______ _______ _______ _____ _____    ______ ____
ROOT
ATOM      1  C   UNL     1      39.367   4.242  13.380  0.00  0.00    +0.000 C 
ATOM      2  C   UNL     1      38.420   4.142  14.681  0.00  0.00    +0.000 C 
ATOM      3  C   UNL     1      37.516   2.996  14.907  0.00  0.00    +0.000 C 
ATOM      4  C   UNL     1      37.551   1.682  14.166  0.00  0.00    +0.000 C 
ATOM      5  C   UNL     1      40.692   4.739  13.937  0.00  0.00    +0.000 C 
ATOM      6  C   UNL     1      39.425   2.879  12.846  0.00  0.00    +0.000 C 
ATOM      7  C   UNL     1      36.525   0.538  14.392  0.00  0.00    +0.000 C 
ATOM      8  C   UNL     1      39.152   4.699  15.777  0.00  0.00    +0.000 C 
ATOM      9  C   UNL     1      38.575   1.678  13.180  0.00  0.00    +0.000 C 
ATOM     10  C   UNL     1      40.551   5.022  15.326  0.00  0.00    +0.000 C 
ATOM     11  C   UNL     1      36.587   2.996  15.976  0.00  0.00    +0.000 C 
ATOM     12  C   UNL     1      38.740   5.270  12.403  0.00  0.00    +0.000 C 
ATOM     13  C   UNL     1      35.667   0.673  15.797  0.00  0.00    +0.000 C 
ATOM     14  C   UNL     1      37.231  -0.770  14.526  0.00  0.00    +0.000 C 
ATOM     15  C   UNL     1      35.716   1.840  16.365  0.00  0.00    +0.000 C 
ATOM     16  C   UNL     1      35.497   0.541  13.224  0.00  0.00    +0.000 C 
ATOM     17  C   UNL     1      35.694  -0.491  16.653  0.00  0.00    +0.000 C 
ATOM     18  C   UNL     1      37.201  -1.905  15.564  0.00  0.00    +0.000 C 
ATOM     19  C   UNL     1      36.349  -1.762  16.699  0.00  0.00    +0.000 C 
ENDROOT
BRANCH  19  20
ATOM     20  O   UNL     1      35.784  -2.847  17.304  0.00  0.00    +0.000 OA
ATOM     21  H   UNL     1      34.904  -3.039  16.940  0.00  0.00    +0.000 HD
ENDBRANCH  19  20
BRANCH   5  22
ATOM     22  C   UNL     1      41.905   4.845  13.187  0.00  0.00    +0.000 C 
ATOM     23  C   UNL     1      42.341   6.132  12.533  0.00  0.00    +0.000 C 
BRANCH  22  24
ATOM     24  C   UNL     1      42.793   3.747  13.024  0.00  0.00    +0.000 C 
ATOM     25  C   UNL     1      43.741   2.549  12.872  0.00  0.00    +0.000 C 
BRANCH  25  26
ATOM     26  C   UNL     1      44.627   1.436  12.749  0.00  0.00    +0.000 C 
ATOM     27  C   UNL     1      44.146   0.162  12.261  0.00  0.00    +0.000 C 
ATOM     28  C   UNL     1      42.704  -0.056  11.842  0.00  0.00    +0.000 C 
ATOM     29  C   UNL     1      45.012  -1.073  12.148  0.00  0.00    +0.000 C 
BRANCH  26  30
ATOM     30  C   UNL     1      45.996   1.577  13.100  0.00  0.00    +0.000 C 
ATOM     31  C   UNL     1      47.480   1.676  13.471  0.00  0.00    +0.000 C 
ENDBRANCH  26  30
ENDBRANCH  25  26
ENDBRANCH  22  24
ENDBRANCH   5  22
TORSDOF 5
ENDMDL
MODEL 3
REMARK VINA RESULT:      -7.8     33.178     35.041
REMARK  Name = 222284_BetaSitosterol.pdbqt.pdb
REMARK  5 active torsions:
REMARK  status: ('A' for Active; 'I' for Inactive)
REMARK    1  A    between atoms: C_5  and  C_22
REMARK    2  A    between atoms: C_19  and  O_20
REMARK    3  A    between atoms: C_22  and  C_24
REMARK    4  A    between atoms: C_25  and  C_26
REMARK    5  A    between atoms: C_26  and  C_30
REMARK                            x       y       z     vdW  Elec       q    Type
REMARK                         _______ _______ _______ _____ _____    ______ ____
ROOT
ATOM      1  C   UNL     1      50.421   2.911  31.080  0.00  0.00    +0.000 C 
ATOM      2  C   UNL     1      49.184   2.133  30.399  0.00  0.00    +0.000 C 
ATOM      3  C   UNL     1      49.216   0.679  30.146  0.00  0.00    +0.000 C 
ATOM      4  C   UNL     1      50.214  -0.297  30.716  0.00  0.00    +0.000 C 
ATOM      5  C   UNL     1      49.754   3.852  32.071  0.00  0.00    +0.000 C 
ATOM      6  C   UNL     1      51.227   1.864  31.712  0.00  0.00    +0.000 C 
ATOM      7  C   UNL     1      50.248  -1.807  30.353  0.00  0.00    +0.000 C 
ATOM      8  C   UNL     1      47.985   2.746  30.884  0.00  0.00    +0.000 C 
ATOM      9  C   UNL     1      51.165   0.366  31.540  0.00  0.00    +0.000 C 
ATOM     10  C   UNL     1      48.338   3.764  31.934  0.00  0.00    +0.000 C 
ATOM     11  C   UNL     1      48.184   0.040  29.415  0.00  0.00    +0.000 C 
ATOM     12  C   UNL     1      51.170   3.693  29.971  0.00  0.00    +0.000 C 
ATOM     13  C   UNL     1      48.859  -2.360  29.652  0.00  0.00    +0.000 C 
ATOM     14  C   UNL     1      50.380  -2.632  31.590  0.00  0.00    +0.000 C 
ATOM     15  C   UNL     1      48.059  -1.439  29.208  0.00  0.00    +0.000 C 
ATOM     16  C   UNL     1      51.405  -2.060  29.343  0.00  0.00    +0.000 C 
ATOM     17  C   UNL     1      48.265  -3.517  30.283  0.00  0.00    +0.000 C 
ATOM     18  C   UNL     1      49.603  -3.825  32.172  0.00  0.00    +0.000 C 
ATOM     19  C   UNL     1      48.476  -4.317  31.451  0.00  0.00    +0.000 C 
ENDROOT
BRANCH  19  20
ATOM     20  O   UNL     1      48.120  -5.633  31.500  0.00  0.00    +0.000 OA
ATOM     21  H   UNL     1      48.723  -6.144  32.066  0.00  0.00    +0.000 HD
ENDBRANCH  19  20
BRANCH   5  22
ATOM     22  C   UNL     1      50.447   4.653  33.031  0.00  0.00    +0.000 C 
ATOM     23  C   UNL     1      50.934   6.046  32.720  0.00  0.00    +0.000 C 
BRANCH  22  24
ATOM     24  C   UNL     1      50.706   4.198  34.352  0.00  0.00    +0.000 C 
ATOM     25  C   UNL     1      50.962   3.691  35.779  0.00  0.00    +0.000 C 
BRANCH  25  26
ATOM     26  C   UNL     1      51.181   3.223  37.110  0.00  0.00    +0.000 C 
ATOM     27  C   UNL     1      50.508   2.037  37.594  0.00  0.00    +0.000 C 
ATOM     28  C   UNL     1      49.564   1.226  36.726  0.00  0.00    +0.000 C 
ATOM     29  C   UNL     1      50.654   1.509  39.004  0.00  0.00    +0.000 C 
BRANCH  26  30
ATOM     30  C   UNL     1      52.072   3.920  37.969  0.00  0.00    +0.000 C 
ATOM     31  C   UNL     1      52.996   4.710  38.903  0.00  0.00    +0.000 C 
ENDBRANCH  26  30
ENDBRANCH  25  26
ENDBRANCH  22  24
ENDBRANCH   5  22
TORSDOF 5
ENDMDL
MODEL 4
REMARK VINA RESULT:      -7.7      2.573      4.746
REMARK  Name = 222284_BetaSitosterol.pdbqt.pdb
REMARK  5 active torsions:
REMARK  status: ('A' for Active; 'I' for Inactive)
REMARK    1  A    between atoms: C_5  and  C_22
REMARK    2  A    between atoms: C_19  and  O_20
REMARK    3  A    between atoms: C_22  and  C_24
REMARK    4  A    between atoms: C_25  and  C_26
REMARK    5  A    between atoms: C_26  and  C_30
REMARK                            x       y       z     vdW  Elec       q    Type
REMARK                         _______ _______ _______ _____ _____    ______ ____
ROOT
ATOM      1  C   UNL     1      19.464   8.725  21.032  0.00  0.00    +0.000 C 
ATOM      2  C   UNL     1      19.866   7.760  19.804  0.00  0.00    +0.000 C 
ATOM      3  C   UNL     1      19.254   6.428  19.621  0.00  0.00    +0.000 C 
ATOM      4  C   UNL     1      18.023   5.916  20.326  0.00  0.00    +0.000 C 
ATOM      5  C   UNL     1      19.352  10.099  20.387  0.00  0.00    +0.000 C 
ATOM      6  C   UNL     1      18.190   8.201  21.527  0.00  0.00    +0.000 C 
ATOM      7  C   UNL     1      17.467   4.476  20.152  0.00  0.00    +0.000 C 
ATOM      8  C   UNL     1      20.100   8.599  18.669  0.00  0.00    +0.000 C 
ATOM      9  C   UNL     1      17.511   6.886  21.231  0.00  0.00    +0.000 C 
ATOM     10  C   UNL     1      19.744  10.019  19.020  0.00  0.00    +0.000 C 
ATOM     11  C   UNL     1      19.724   5.537  18.626  0.00  0.00    +0.000 C 
ATOM     12  C   UNL     1      20.608   8.681  22.077  0.00  0.00    +0.000 C 
ATOM     13  C   UNL     1      18.045   3.689  18.820  0.00  0.00    +0.000 C 
ATOM     14  C   UNL     1      15.991   4.516  19.934  0.00  0.00    +0.000 C 
ATOM     15  C   UNL     1      19.098   4.221  18.278  0.00  0.00    +0.000 C 
ATOM     16  C   UNL     1      17.861   3.627  21.395  0.00  0.00    +0.000 C 
ATOM     17  C   UNL     1      17.039   3.145  17.937  0.00  0.00    +0.000 C 
ATOM     18  C   UNL     1      15.046   3.922  18.875  0.00  0.00    +0.000 C 
ATOM     19  C   UNL     1      15.613   3.160  17.811  0.00  0.00    +0.000 C 
ENDROOT
BRANCH  19  20
ATOM     20  O   UNL     1      14.927   2.137  17.226  0.00  0.00    +0.000 OA
ATOM     21  H   UNL     1      15.489   1.635  16.613  0.00  0.00    +0.000 HD
ENDBRANCH  19  20
BRANCH   5  22
ATOM     22  C   UNL     1      18.868  11.272  21.045  0.00  0.00    +0.000 C 
ATOM     23  C   UNL     1      17.777  11.224  22.085  0.00  0.00    +0.000 C 
BRANCH  22  24
ATOM     24  C   UNL     1      19.397  12.564  20.776  0.00  0.00    +0.000 C 
ATOM     25  C   UNL     1      19.964  13.966  20.513  0.00  0.00    +0.000 C 
BRANCH  25  26
ATOM     26  C   UNL     1      20.476  15.279  20.278  0.00  0.00    +0.000 C 
ATOM     27  C   UNL     1      21.644  15.475  19.448  0.00  0.00    +0.000 C 
ATOM     28  C   UNL     1      22.368  14.323  18.776  0.00  0.00    +0.000 C 
ATOM     29  C   UNL     1      22.271  16.828  19.192  0.00  0.00    +0.000 C 
BRANCH  26  30
ATOM     30  C   UNL     1      19.832  16.405  20.856  0.00  0.00    +0.000 C 
ATOM     31  C   UNL     1      19.091  17.606  21.454  0.00  0.00    +0.000 C 
ENDBRANCH  26  30
ENDBRANCH  25  26
ENDBRANCH  22  24
ENDBRANCH   5  22
TORSDOF 5
ENDMDL
MODEL 5
REMARK VINA RESULT:      -7.7      1.348      2.353
REMARK  Name = 222284_BetaSitosterol.pdbqt.pdb
REMARK  5 active torsions:
REMARK  status: ('A' for Active; 'I' for Inactive)
REMARK    1  A    between atoms: C_5  and  C_22
REMARK    2  A    between atoms: C_19  and  O_20
REMARK    3  A    between atoms: C_22  and  C_24
REMARK    4  A    between atoms: C_25  and  C_26
REMARK    5  A    between atoms: C_26  and  C_30
REMARK                            x       y       z     vdW  Elec       q    Type
REMARK                         _______ _______ _______ _____ _____    ______ ____
ROOT
ATOM      1  C   UNL     1      19.762  10.893  18.517  0.00  0.00    +0.000 C 
ATOM      2  C   UNL     1      20.223   9.390  18.877  0.00  0.00    +0.000 C 
ATOM      3  C   UNL     1      19.302   8.415  19.497  0.00  0.00    +0.000 C 
ATOM      4  C   UNL     1      17.805   8.559  19.608  0.00  0.00    +0.000 C 
ATOM      5  C   UNL     1      20.365  11.134  17.142  0.00  0.00    +0.000 C 
ATOM      6  C   UNL     1      18.299  10.854  18.522  0.00  0.00    +0.000 C 
ATOM      7  C   UNL     1      16.893   7.538  20.340  0.00  0.00    +0.000 C 
ATOM      8  C   UNL     1      21.120   8.967  17.846  0.00  0.00    +0.000 C 
ATOM      9  C   UNL     1      17.366   9.789  19.045  0.00  0.00    +0.000 C 
ATOM     10  C   UNL     1      21.169  10.018  16.770  0.00  0.00    +0.000 C 
ATOM     11  C   UNL     1      19.764   7.152  19.940  0.00  0.00    +0.000 C 
ATOM     12  C   UNL     1      20.366  11.851  19.577  0.00  0.00    +0.000 C 
ATOM     13  C   UNL     1      17.604   6.070  20.603  0.00  0.00    +0.000 C 
ATOM     14  C   UNL     1      15.702   7.213  19.500  0.00  0.00    +0.000 C 
ATOM     15  C   UNL     1      18.895   6.050  20.467  0.00  0.00    +0.000 C 
ATOM     16  C   UNL     1      16.499   8.114  21.731  0.00  0.00    +0.000 C 
ATOM     17  C   UNL     1      16.861   4.927  20.126  0.00  0.00    +0.000 C 
ATOM     18  C   UNL     1      15.059   5.905  19.008  0.00  0.00    +0.000 C 
ATOM     19  C   UNL     1      15.673   4.670  19.370  0.00  0.00    +0.000 C 
ENDROOT
BRANCH  19  20
ATOM     20  O   UNL     1      14.938   3.534  19.540  0.00  0.00    +0.000 OA
ATOM     21  H   UNL     1      14.851   3.303  20.481  0.00  0.00    +0.000 HD
ENDBRANCH  19  20
BRANCH   5  22
ATOM     22  C   UNL     1      20.109  12.281  16.328  0.00  0.00    +0.000 C 
ATOM     23  C   UNL     1      19.253  12.217  15.088  0.00  0.00    +0.000 C 
BRANCH  22  24
ATOM     24  C   UNL     1      20.629  13.565  16.644  0.00  0.00    +0.000 C 
ATOM     25  C   UNL     1      21.166  14.965  16.975  0.00  0.00    +0.000 C 
BRANCH  25  26
ATOM     26  C   UNL     1      21.660  16.273  17.266  0.00  0.00    +0.000 C 
ATOM     27  C   UNL     1      22.159  16.595  18.585  0.00  0.00    +0.000 C 
ATOM     28  C   UNL     1      22.203  15.577  19.709  0.00  0.00    +0.000 C 
ATOM     29  C   UNL     1      22.653  17.969  18.980  0.00  0.00    +0.000 C 
BRANCH  26  30
ATOM     30  C   UNL     1      21.671  17.268  16.253  0.00  0.00    +0.000 C 
ATOM     31  C   UNL     1      21.733  18.356  15.175  0.00  0.00    +0.000 C 
ENDBRANCH  26  30
ENDBRANCH  25  26
ENDBRANCH  22  24
ENDBRANCH   5  22
TORSDOF 5
ENDMDL
MODEL 6
REMARK VINA RESULT:      -7.5      3.806      6.560
REMARK  Name = 222284_BetaSitosterol.pdbqt.pdb
REMARK  5 active torsions:
REMARK  status: ('A' for Active; 'I' for Inactive)
REMARK    1  A    between atoms: C_5  and  C_22
REMARK    2  A    between atoms: C_19  and  O_20
REMARK    3  A    between atoms: C_22  and  C_24
REMARK    4  A    between atoms: C_25  and  C_26
REMARK    5  A    between atoms: C_26  and  C_30
REMARK                            x       y       z     vdW  Elec       q    Type
REMARK                         _______ _______ _______ _____ _____    ______ ____
ROOT
ATOM      1  C   UNL     1      19.774   9.020  20.741  0.00  0.00    +0.000 C 
ATOM      2  C   UNL     1      20.116   7.923  19.610  0.00  0.00    +0.000 C 
ATOM      3  C   UNL     1      19.378   6.649  19.505  0.00  0.00    +0.000 C 
ATOM      4  C   UNL     1      18.077   6.320  20.195  0.00  0.00    +0.000 C 
ATOM      5  C   UNL     1      19.824  10.341  19.988  0.00  0.00    +0.000 C 
ATOM      6  C   UNL     1      18.437   8.667  21.222  0.00  0.00    +0.000 C 
ATOM      7  C   UNL     1      17.383   4.933  20.110  0.00  0.00    +0.000 C 
ATOM      8  C   UNL     1      20.473   8.640  18.424  0.00  0.00    +0.000 C 
ATOM      9  C   UNL     1      17.637   7.406  21.000  0.00  0.00    +0.000 C 
ATOM     10  C   UNL     1      20.252  10.112  18.649  0.00  0.00    +0.000 C 
ATOM     11  C   UNL     1      19.788   5.637  18.602  0.00  0.00    +0.000 C 
ATOM     12  C   UNL     1      20.871   8.947  21.834  0.00  0.00    +0.000 C 
ATOM     13  C   UNL     1      17.923   3.987  18.868  0.00  0.00    +0.000 C 
ATOM     14  C   UNL     1      15.927   5.101  19.828  0.00  0.00    +0.000 C 
ATOM     15  C   UNL     1      19.043   4.365  18.331  0.00  0.00    +0.000 C 
ATOM     16  C   UNL     1      17.647   4.152  21.431  0.00  0.00    +0.000 C 
ATOM     17  C   UNL     1      16.897   3.475  17.989  0.00  0.00    +0.000 C 
ATOM     18  C   UNL     1      14.963   4.520  18.779  0.00  0.00    +0.000 C 
ATOM     19  C   UNL     1      15.485   3.621  17.803  0.00  0.00    +0.000 C 
ENDROOT
BRANCH  19  20
ATOM     20  O   UNL     1      14.718   2.627  17.271  0.00  0.00    +0.000 OA
ATOM     21  H   UNL     1      15.225   2.080  16.647  0.00  0.00    +0.000 HD
ENDBRANCH  19  20
BRANCH   5  22
ATOM     22  C   UNL     1      19.441  11.606  20.532  0.00  0.00    +0.000 C 
ATOM     23  C   UNL     1      19.860  12.914  19.909  0.00  0.00    +0.000 C 
BRANCH  22  24
ATOM     24  C   UNL     1      18.621  11.717  21.687  0.00  0.00    +0.000 C 
ATOM     25  C   UNL     1      17.756  11.848  22.950  0.00  0.00    +0.000 C 
BRANCH  25  26
ATOM     26  C   UNL     1      16.967  11.965  24.135  0.00  0.00    +0.000 C 
ATOM     27  C   UNL     1      15.880  11.045  24.388  0.00  0.00    +0.000 C 
ATOM     28  C   UNL     1      15.533   9.914  23.437  0.00  0.00    +0.000 C 
ATOM     29  C   UNL     1      14.972  11.134  25.595  0.00  0.00    +0.000 C 
BRANCH  26  30
ATOM     30  C   UNL     1      17.254  12.985  25.080  0.00  0.00    +0.000 C 
ATOM     31  C   UNL     1      17.562  14.123  26.060  0.00  0.00    +0.000 C 
ENDBRANCH  26  30
ENDBRANCH  25  26
ENDBRANCH  22  24
ENDBRANCH   5  22
TORSDOF 5
ENDMDL
MODEL 7
REMARK VINA RESULT:      -7.5     23.118     25.592
REMARK  Name = 222284_BetaSitosterol.pdbqt.pdb
REMARK  5 active torsions:
REMARK  status: ('A' for Active; 'I' for Inactive)
REMARK    1  A    between atoms: C_5  and  C_22
REMARK    2  A    between atoms: C_19  and  O_20
REMARK    3  A    between atoms: C_22  and  C_24
REMARK    4  A    between atoms: C_25  and  C_26
REMARK    5  A    between atoms: C_26  and  C_30
REMARK                            x       y       z     vdW  Elec       q    Type
REMARK                         _______ _______ _______ _____ _____    ______ ____
ROOT
ATOM      1  C   UNL     1      39.884   0.295   9.978  0.00  0.00    +0.000 C 
ATOM      2  C   UNL     1      41.121   0.143   8.954  0.00  0.00    +0.000 C 
ATOM      3  C   UNL     1      42.439  -0.364   9.387  0.00  0.00    +0.000 C 
ATOM      4  C   UNL     1      42.734  -1.058  10.693  0.00  0.00    +0.000 C 
ATOM      5  C   UNL     1      38.696  -0.230   9.187  0.00  0.00    +0.000 C 
ATOM      6  C   UNL     1      40.239  -0.535  11.130  0.00  0.00    +0.000 C 
ATOM      7  C   UNL     1      44.157  -1.502  11.131  0.00  0.00    +0.000 C 
ATOM      8  C   UNL     1      40.577  -0.269   7.697  0.00  0.00    +0.000 C 
ATOM      9  C   UNL     1      41.565  -1.156  11.496  0.00  0.00    +0.000 C 
ATOM     10  C   UNL     1      39.104  -0.534   7.857  0.00  0.00    +0.000 C 
ATOM     11  C   UNL     1      43.552  -0.352   8.511  0.00  0.00    +0.000 C 
ATOM     12  C   UNL     1      39.720   1.799  10.317  0.00  0.00    +0.000 C 
ATOM     13  C   UNL     1      45.250  -1.567   9.894  0.00  0.00    +0.000 C 
ATOM     14  C   UNL     1      44.123  -2.900  11.654  0.00  0.00    +0.000 C 
ATOM     15  C   UNL     1      44.893  -0.952   8.808  0.00  0.00    +0.000 C 
ATOM     16  C   UNL     1      44.705  -0.489  12.177  0.00  0.00    +0.000 C 
ATOM     17  C   UNL     1      45.953  -2.821   9.754  0.00  0.00    +0.000 C 
ATOM     18  C   UNL     1      44.917  -4.181  11.345  0.00  0.00    +0.000 C 
ATOM     19  C   UNL     1      45.924  -4.128  10.336  0.00  0.00    +0.000 C 
ENDROOT
BRANCH  19  20
ATOM     20  O   UNL     1      47.033  -4.919  10.398  0.00  0.00    +0.000 OA
ATOM     21  H   UNL     1      46.862  -5.803  10.030  0.00  0.00    +0.000 HD
ENDBRANCH  19  20
BRANCH   5  22
ATOM     22  C   UNL     1      37.387  -0.440   9.722  0.00  0.00    +0.000 C 
ATOM     23  C   UNL     1      36.360  -1.300   9.031  0.00  0.00    +0.000 C 
BRANCH  22  24
ATOM     24  C   UNL     1      36.972   0.134  10.954  0.00  0.00    +0.000 C 
ATOM     25  C   UNL     1      36.547   0.770  12.286  0.00  0.00    +0.000 C 
BRANCH  25  26
ATOM     26  C   UNL     1      36.170   1.359  13.531  0.00  0.00    +0.000 C 
ATOM     27  C   UNL     1      37.013   2.352  14.161  0.00  0.00    +0.000 C 
ATOM     28  C   UNL     1      38.311   2.829  13.538  0.00  0.00    +0.000 C 
ATOM     29  C   UNL     1      36.703   2.985  15.499  0.00  0.00    +0.000 C 
BRANCH  26  30
ATOM     30  C   UNL     1      34.954   0.977  14.157  0.00  0.00    +0.000 C 
ATOM     31  C   UNL     1      33.658   0.512  14.832  0.00  0.00    +0.000 C 
ENDBRANCH  26  30
ENDBRANCH  25  26
ENDBRANCH  22  24
ENDBRANCH   5  22
TORSDOF 5
ENDMDL
MODEL 8
REMARK VINA RESULT:      -7.5      1.808      2.498
REMARK  Name = 222284_BetaSitosterol.pdbqt.pdb
REMARK  5 active torsions:
REMARK  status: ('A' for Active; 'I' for Inactive)
REMARK    1  A    between atoms: C_5  and  C_22
REMARK    2  A    between atoms: C_19  and  O_20
REMARK    3  A    between atoms: C_22  and  C_24
REMARK    4  A    between atoms: C_25  and  C_26
REMARK    5  A    between atoms: C_26  and  C_30
REMARK                            x       y       z     vdW  Elec       q    Type
REMARK                         _______ _______ _______ _____ _____    ______ ____
ROOT
ATOM      1  C   UNL     1      21.079  12.270  17.357  0.00  0.00    +0.000 C 
ATOM      2  C   UNL     1      21.241  10.715  16.964  0.00  0.00    +0.000 C 
ATOM      3  C   UNL     1      20.788   9.629  17.858  0.00  0.00    +0.000 C 
ATOM      4  C   UNL     1      19.890   9.789  19.059  0.00  0.00    +0.000 C 
ATOM      5  C   UNL     1      20.603  12.919  16.066  0.00  0.00    +0.000 C 
ATOM      6  C   UNL     1      20.082  12.290  18.429  0.00  0.00    +0.000 C 
ATOM      7  C   UNL     1      19.508   8.622  20.011  0.00  0.00    +0.000 C 
ATOM      8  C   UNL     1      21.026  10.613  15.553  0.00  0.00    +0.000 C 
ATOM      9  C   UNL     1      19.532  11.151  19.252  0.00  0.00    +0.000 C 
ATOM     10  C   UNL     1      20.596  11.953  15.019  0.00  0.00    +0.000 C 
ATOM     11  C   UNL     1      21.072   8.273  17.564  0.00  0.00    +0.000 C 
ATOM     12  C   UNL     1      22.469  12.809  17.784  0.00  0.00    +0.000 C 
ATOM     13  C   UNL     1      19.784   7.122  19.377  0.00  0.00    +0.000 C 
ATOM     14  C   UNL     1      18.040   8.635  20.279  0.00  0.00    +0.000 C 
ATOM     15  C   UNL     1      20.557   7.095  18.334  0.00  0.00    +0.000 C 
ATOM     16  C   UNL     1      20.352   8.733  21.313  0.00  0.00    +0.000 C 
ATOM     17  C   UNL     1      18.651   6.225  19.395  0.00  0.00    +0.000 C 
ATOM     18  C   UNL     1      16.922   7.582  20.183  0.00  0.00    +0.000 C 
ATOM     19  C   UNL     1      17.261   6.274  19.730  0.00  0.00    +0.000 C 
ENDROOT
BRANCH  19  20
ATOM     20  O   UNL     1      16.581   5.174  20.165  0.00  0.00    +0.000 OA
ATOM     21  H   UNL     1      15.839   5.419  20.744  0.00  0.00    +0.000 HD
ENDBRANCH  19  20
BRANCH   5  22
ATOM     22  C   UNL     1      20.172  14.277  15.945  0.00  0.00    +0.000 C 
ATOM     23  C   UNL     1      20.048  14.969  14.611  0.00  0.00    +0.000 C 
BRANCH  22  24
ATOM     24  C   UNL     1      19.812  15.061  17.075  0.00  0.00    +0.000 C 
ATOM     25  C   UNL     1      19.449  15.919  18.296  0.00  0.00    +0.000 C 
BRANCH  25  26
ATOM     26  C   UNL     1      19.129  16.712  19.439  0.00  0.00    +0.000 C 
ATOM     27  C   UNL     1      19.042  18.152  19.335  0.00  0.00    +0.000 C 
ATOM     28  C   UNL     1      19.263  18.888  18.027  0.00  0.00    +0.000 C 
ATOM     29  C   UNL     1      18.754  19.060  20.511  0.00  0.00    +0.000 C 
BRANCH  26  30
ATOM     30  C   UNL     1      18.885  16.086  20.690  0.00  0.00    +0.000 C 
ATOM     31  C   UNL     1      18.669  15.430  22.059  0.00  0.00    +0.000 C 
ENDBRANCH  26  30
ENDBRANCH  25  26
ENDBRANCH  22  24
ENDBRANCH   5  22
TORSDOF 5
ENDMDL
MODEL 9
REMARK VINA RESULT:      -7.5      3.204      9.566
REMARK  Name = 222284_BetaSitosterol.pdbqt.pdb
REMARK  5 active torsions:
REMARK  status: ('A' for Active; 'I' for Inactive)
REMARK    1  A    between atoms: C_5  and  C_22
REMARK    2  A    between atoms: C_19  and  O_20
REMARK    3  A    between atoms: C_22  and  C_24
REMARK    4  A    between atoms: C_25  and  C_26
REMARK    5  A    between atoms: C_26  and  C_30
REMARK                            x       y       z     vdW  Elec       q    Type
REMARK                         _______ _______ _______ _____ _____    ______ ____
ROOT
ATOM      1  C   UNL     1      18.572   9.861  20.613  0.00  0.00    +0.000 C 
ATOM      2  C   UNL     1      19.308  11.243  21.001  0.00  0.00    +0.000 C 
ATOM      3  C   UNL     1      20.119  12.000  20.026  0.00  0.00    +0.000 C 
ATOM      4  C   UNL     1      20.141  11.780  18.534  0.00  0.00    +0.000 C 
ATOM      5  C   UNL     1      17.200   9.992  21.257  0.00  0.00    +0.000 C 
ATOM      6  C   UNL     1      18.538   9.847  19.149  0.00  0.00    +0.000 C 
ATOM      7  C   UNL     1      21.073  12.555  17.563  0.00  0.00    +0.000 C 
ATOM      8  C   UNL     1      18.444  11.940  21.903  0.00  0.00    +0.000 C 
ATOM      9  C   UNL     1      19.278  10.714  18.161  0.00  0.00    +0.000 C 
ATOM     10  C   UNL     1      17.143  11.192  22.021  0.00  0.00    +0.000 C 
ATOM     11  C   UNL     1      20.876  13.129  20.424  0.00  0.00    +0.000 C 
ATOM     12  C   UNL     1      19.381   8.692  21.232  0.00  0.00    +0.000 C 
ATOM     13  C   UNL     1      21.716  13.935  18.205  0.00  0.00    +0.000 C 
ATOM     14  C   UNL     1      20.301  13.036  16.379  0.00  0.00    +0.000 C 
ATOM     15  C   UNL     1      21.631  14.034  19.497  0.00  0.00    +0.000 C 
ATOM     16  C   UNL     1      22.265  11.637  17.162  0.00  0.00    +0.000 C 
ATOM     17  C   UNL     1      21.512  15.134  17.426  0.00  0.00    +0.000 C 
ATOM     18  C   UNL     1      20.128  14.402  15.693  0.00  0.00    +0.000 C 
ATOM     19  C   UNL     1      20.805  15.529  16.246  0.00  0.00    +0.000 C 
ENDROOT
BRANCH  19  20
ATOM     20  O   UNL     1      21.227  16.560  15.459  0.00  0.00    +0.000 OA
ATOM     21  H   UNL     1      20.786  16.551  14.593  0.00  0.00    +0.000 HD
ENDBRANCH  19  20
BRANCH   5  22
ATOM     22  C   UNL     1      16.119   9.075  21.068  0.00  0.00    +0.000 C 
ATOM     23  C   UNL     1      14.688   9.441  21.370  0.00  0.00    +0.000 C 
BRANCH  22  24
ATOM     24  C   UNL     1      16.320   7.761  20.564  0.00  0.00    +0.000 C 
ATOM     25  C   UNL     1      16.562   6.342  20.030  0.00  0.00    +0.000 C 
BRANCH  25  26
ATOM     26  C   UNL     1      16.806   5.027  19.528  0.00  0.00    +0.000 C 
ATOM     27  C   UNL     1      18.131   4.637  19.099  0.00  0.00    +0.000 C 
ATOM     28  C   UNL     1      19.320   5.576  19.176  0.00  0.00    +0.000 C 
ATOM     29  C   UNL     1      18.455   3.280  18.514  0.00  0.00    +0.000 C 
BRANCH  26  30
ATOM     30  C   UNL     1      15.743   4.089  19.453  0.00  0.00    +0.000 C 
ATOM     31  C   UNL     1      14.559   3.117  19.378  0.00  0.00    +0.000 C 
ENDBRANCH  26  30
ENDBRANCH  25  26
ENDBRANCH  22  24
ENDBRANCH   5  22
TORSDOF 5
ENDMDL
