REMARK  Name = 25023738_BI-D-1870.pdbqt.pdb
REMARK  4 active torsions:
REMARK  status: ('A' for Active; 'I' for Inactive)
REMARK    1  A    between atoms: N_2  and  C_26
REMARK    2  A    between atoms: N_14  and  C_16
REMARK    3  A    between atoms: C_20  and  O_24
REMARK    4  A    between atoms: C_27  and  C_28
REMARK                            x       y       z     vdW  Elec       q    Type
REMARK                         _______ _______ _______ _____ _____    ______ ____
ROOT
ATOM      1  O   UNL     1       5.932   0.117   0.015  0.00  0.00    +0.000 OA
ATOM      2  N   UNL     1       2.359   0.684   0.049  0.00  0.00    +0.000 N 
ATOM      3  N   UNL     1       4.204  -1.444  -0.048  0.00  0.00    +0.000 N 
ATOM      4  N   UNL     1       0.555  -0.876  -0.014  0.00  0.00    +0.000 NA
ATOM      5  N   UNL     1       0.920  -3.189  -0.116  0.00  0.00    +0.000 NA
ATOM      6  C   UNL     1       3.705   0.980   0.058  0.00  0.00    +0.000 C 
ATOM      7  C   UNL     1       1.888  -0.644  -0.008  0.00  0.00    +0.000 A 
ATOM      8  C   UNL     1       4.723  -0.133   0.007  0.00  0.00    +0.000 C 
ATOM      9  C   UNL     1       2.801  -1.674  -0.055  0.00  0.00    +0.000 A 
ATOM     10  C   UNL     1       4.166   2.432   0.119  0.00  0.00    +0.000 C 
ATOM     11  C   UNL     1       5.031  -2.645  -0.102  0.00  0.00    +0.000 C 
ATOM     12  C   UNL     1       2.241  -2.932  -0.108  0.00  0.00    +0.000 A 
ATOM     13  C   UNL     1       0.104  -2.138  -0.068  0.00  0.00    +0.000 A 
ATOM     14  N   UNL     1      -1.256  -2.417  -0.076  0.00  0.00    +0.000 N 
ATOM     15  H   UNL     1      -1.421  -3.415  -0.119  0.00  0.00    +0.000 HD
ENDROOT
BRANCH  14  16
ATOM     16  C   UNL     1      -2.375  -1.578  -0.034  0.00  0.00    +0.000 A 
ATOM     17  C   UNL     1      -3.656  -2.146  -0.057  0.00  0.00    +0.000 A 
ATOM     18  C   UNL     1      -4.794  -1.342  -0.016  0.00  0.00    +0.000 A 
ATOM     19  F   UNL     1      -6.002  -1.924  -0.040  0.00  0.00    +0.000 F 
ATOM     20  C   UNL     1      -4.678   0.040   0.047  0.00  0.00    +0.000 A 
ATOM     21  C   UNL     1      -3.413   0.610   0.069  0.00  0.00    +0.000 A 
ATOM     22  F   UNL     1      -3.288   1.944   0.131  0.00  0.00    +0.000 F 
ATOM     23  C   UNL     1      -2.272  -0.186   0.030  0.00  0.00    +0.000 A 
BRANCH  20  24
ATOM     24  O   UNL     1      -5.798   0.822   0.086  0.00  0.00    +0.000 OA
ATOM     25  H   UNL     1      -5.513   1.755   0.128  0.00  0.00    +0.000 HD
ENDBRANCH  20  24
ENDBRANCH  14  16
BRANCH   2  26
ATOM     26  C   UNL     1       1.370   1.758   0.096  0.00  0.00    +0.000 C 
ATOM     27  C   UNL     1       0.328   2.882   0.146  0.00  0.00    +0.000 C 
BRANCH  27  28
ATOM     28  C   UNL     1      -0.628   3.921   0.192  0.00  0.00    +0.000 C 
ATOM     29  C   UNL     1      -1.122   4.537  -1.081  0.00  0.00    +0.000 C 
ATOM     30  C   UNL     1      -1.105   4.438   1.514  0.00  0.00    +0.000 C 
ENDBRANCH  27  28
ENDBRANCH   2  26
TORSDOF 4
