MODEL 1
REMARK VINA RESULT:      -6.4      0.000      0.000
REMARK  Name = 25023738_BI-D-1870.pdbqt.pdb
REMARK  4 active torsions:
REMARK  status: ('A' for Active; 'I' for Inactive)
REMARK    1  A    between atoms: N_2  and  C_26
REMARK    2  A    between atoms: N_14  and  C_16
REMARK    3  A    between atoms: C_20  and  O_24
REMARK    4  A    between atoms: C_27  and  C_28
REMARK                            x       y       z     vdW  Elec       q    Type
REMARK                         _______ _______ _______ _____ _____    ______ ____
ROOT
ATOM      1  O   UNL     1      20.555   2.638   5.831  0.00  0.00    +0.000 OA
ATOM      2  N   UNL     1      24.029   2.332   4.869  0.00  0.00    +0.000 N 
ATOM      3  N   UNL     1      22.017   0.859   6.180  0.00  0.00    +0.000 N 
ATOM      4  N   UNL     1      25.564   0.536   5.203  0.00  0.00    +0.000 NA
ATOM      5  N   UNL     1      24.941  -1.437   6.304  0.00  0.00    +0.000 NA
ATOM      6  C   UNL     1      22.781   2.901   5.005  0.00  0.00    +0.000 C 
ATOM      7  C   UNL     1      24.321   1.045   5.366  0.00  0.00    +0.000 A 
ATOM      8  C   UNL     1      21.678   2.142   5.702  0.00  0.00    +0.000 C 
ATOM      9  C   UNL     1      23.327   0.336   6.004  0.00  0.00    +0.000 A 
ATOM     10  C   UNL     1      22.515   4.296   4.452  0.00  0.00    +0.000 C 
ATOM     11  C   UNL     1      21.085  -0.022   6.878  0.00  0.00    +0.000 C 
ATOM     12  C   UNL     1      23.712  -0.909   6.452  0.00  0.00    +0.000 A 
ATOM     13  C   UNL     1      25.844  -0.688   5.674  0.00  0.00    +0.000 A 
ATOM     14  N   UNL     1      27.107  -1.245   5.528  0.00  0.00    +0.000 N 
ATOM     15  H   UNL     1      27.146  -2.169   5.938  0.00  0.00    +0.000 HD
ENDROOT
BRANCH  14  16
ATOM     16  C   UNL     1      28.273  -0.753   4.930  0.00  0.00    +0.000 A 
ATOM     17  C   UNL     1      29.272  -1.655   4.539  0.00  0.00    +0.000 A 
ATOM     18  C   UNL     1      30.447  -1.203   3.941  0.00  0.00    +0.000 A 
ATOM     19  F   UNL     1      31.379  -2.097   3.581  0.00  0.00    +0.000 F 
ATOM     20  C   UNL     1      30.649   0.153   3.722  0.00  0.00    +0.000 A 
ATOM     21  C   UNL     1      29.665   1.052   4.107  0.00  0.00    +0.000 A 
ATOM     22  F   UNL     1      29.848   2.365   3.900  0.00  0.00    +0.000 F 
ATOM     23  C   UNL     1      28.489   0.608   4.704  0.00  0.00    +0.000 A 
BRANCH  20  24
ATOM     24  O   UNL     1      31.804   0.590   3.135  0.00  0.00    +0.000 OA
ATOM     25  H   UNL     1      32.490   0.648   3.827  0.00  0.00    +0.000 HD
ENDBRANCH  20  24
ENDBRANCH  14  16
BRANCH   2  26
ATOM     26  C   UNL     1      25.101   3.064   4.197  0.00  0.00    +0.000 C 
ATOM     27  C   UNL     1      26.223   3.830   3.487  0.00  0.00    +0.000 C 
BRANCH  27  28
ATOM     28  C   UNL     1      27.259   4.538   2.838  0.00  0.00    +0.000 C 
ATOM     29  C   UNL     1      27.595   5.932   3.272  0.00  0.00    +0.000 C 
ATOM     30  C   UNL     1      27.982   3.912   1.686  0.00  0.00    +0.000 C 
ENDBRANCH  27  28
ENDBRANCH   2  26
TORSDOF 4
ENDMDL
MODEL 2
REMARK VINA RESULT:      -6.2      3.356      6.399
REMARK  Name = 25023738_BI-D-1870.pdbqt.pdb
REMARK  4 active torsions:
REMARK  status: ('A' for Active; 'I' for Inactive)
REMARK    1  A    between atoms: N_2  and  C_26
REMARK    2  A    between atoms: N_14  and  C_16
REMARK    3  A    between atoms: C_20  and  O_24
REMARK    4  A    between atoms: C_27  and  C_28
REMARK                            x       y       z     vdW  Elec       q    Type
REMARK                         _______ _______ _______ _____ _____    ______ ____
ROOT
ATOM      1  O   UNL     1      28.316   7.123   2.779  0.00  0.00    +0.000 OA
ATOM      2  N   UNL     1      27.395   3.754   3.722  0.00  0.00    +0.000 N 
ATOM      3  N   UNL     1      26.232   6.303   3.421  0.00  0.00    +0.000 N 
ATOM      4  N   UNL     1      25.281   2.867   4.386  0.00  0.00    +0.000 NA
ATOM      5  N   UNL     1      23.362   4.207   4.519  0.00  0.00    +0.000 NA
ATOM      6  C   UNL     1      28.197   4.798   3.316  0.00  0.00    +0.000 C 
ATOM      7  C   UNL     1      26.021   3.929   3.989  0.00  0.00    +0.000 A 
ATOM      8  C   UNL     1      27.610   6.178   3.143  0.00  0.00    +0.000 C 
ATOM      9  C   UNL     1      25.466   5.180   3.838  0.00  0.00    +0.000 A 
ATOM     10  C   UNL     1      29.677   4.560   3.040  0.00  0.00    +0.000 C 
ATOM     11  C   UNL     1      25.490   7.555   3.310  0.00  0.00    +0.000 C 
ATOM     12  C   UNL     1      24.119   5.246   4.122  0.00  0.00    +0.000 A 
ATOM     13  C   UNL     1      23.975   3.031   4.640  0.00  0.00    +0.000 A 
ATOM     14  N   UNL     1      23.182   1.966   5.049  0.00  0.00    +0.000 N 
ATOM     15  H   UNL     1      22.225   2.263   5.197  0.00  0.00    +0.000 HD
ENDROOT
BRANCH  14  16
ATOM     16  C   UNL     1      23.484   0.619   5.275  0.00  0.00    +0.000 A 
ATOM     17  C   UNL     1      22.834  -0.363   4.515  0.00  0.00    +0.000 A 
ATOM     18  C   UNL     1      23.109  -1.716   4.712  0.00  0.00    +0.000 A 
ATOM     19  F   UNL     1      22.466  -2.625   3.965  0.00  0.00    +0.000 F 
ATOM     20  C   UNL     1      24.033  -2.115   5.668  0.00  0.00    +0.000 A 
ATOM     21  C   UNL     1      24.680  -1.148   6.425  0.00  0.00    +0.000 A 
ATOM     22  F   UNL     1      25.576  -1.521   7.352  0.00  0.00    +0.000 F 
ATOM     23  C   UNL     1      24.412   0.204   6.234  0.00  0.00    +0.000 A 
BRANCH  20  24
ATOM     24  O   UNL     1      24.297  -3.442   5.856  0.00  0.00    +0.000 OA
ATOM     25  H   UNL     1      24.585  -3.564   6.781  0.00  0.00    +0.000 HD
ENDBRANCH  20  24
ENDBRANCH  14  16
BRANCH   2  26
ATOM     26  C   UNL     1      27.959   2.417   3.893  0.00  0.00    +0.000 C 
ATOM     27  C   UNL     1      28.548   1.013   4.076  0.00  0.00    +0.000 C 
BRANCH  27  28
ATOM     28  C   UNL     1      29.093  -0.279   4.240  0.00  0.00    +0.000 C 
ATOM     29  C   UNL     1      28.253  -1.375   4.820  0.00  0.00    +0.000 C 
ATOM     30  C   UNL     1      30.525  -0.536   3.882  0.00  0.00    +0.000 C 
ENDBRANCH  27  28
ENDBRANCH   2  26
TORSDOF 4
ENDMDL
MODEL 3
REMARK VINA RESULT:      -6.1      1.656      2.139
REMARK  Name = 25023738_BI-D-1870.pdbqt.pdb
REMARK  4 active torsions:
REMARK  status: ('A' for Active; 'I' for Inactive)
REMARK    1  A    between atoms: N_2  and  C_26
REMARK    2  A    between atoms: N_14  and  C_16
REMARK    3  A    between atoms: C_20  and  O_24
REMARK    4  A    between atoms: C_27  and  C_28
REMARK                            x       y       z     vdW  Elec       q    Type
REMARK                         _______ _______ _______ _____ _____    ______ ____
ROOT
ATOM      1  O   UNL     1      22.860   3.756   5.460  0.00  0.00    +0.000 OA
ATOM      2  N   UNL     1      26.186   2.755   4.447  0.00  0.00    +0.000 N 
ATOM      3  N   UNL     1      23.917   1.700   5.744  0.00  0.00    +0.000 N 
ATOM      4  N   UNL     1      27.310   0.668   4.714  0.00  0.00    +0.000 NA
ATOM      5  N   UNL     1      26.294  -1.161   5.770  0.00  0.00    +0.000 NA
ATOM      6  C   UNL     1      25.086   3.569   4.614  0.00  0.00    +0.000 C 
ATOM      7  C   UNL     1      26.203   1.421   4.906  0.00  0.00    +0.000 A 
ATOM      8  C   UNL     1      23.853   3.039   5.304  0.00  0.00    +0.000 C 
ATOM      9  C   UNL     1      25.087   0.919   5.538  0.00  0.00    +0.000 A 
ATOM     10  C   UNL     1      25.115   5.004   4.102  0.00  0.00    +0.000 C 
ATOM     11  C   UNL     1      22.826   1.015   6.430  0.00  0.00    +0.000 C 
ATOM     12  C   UNL     1      25.204  -0.392   5.947  0.00  0.00    +0.000 A 
ATOM     13  C   UNL     1      27.330  -0.601   5.149  0.00  0.00    +0.000 A 
ATOM     14  N   UNL     1      28.447  -1.406   4.972  0.00  0.00    +0.000 N 
ATOM     15  H   UNL     1      28.293  -2.330   5.357  0.00  0.00    +0.000 HD
ENDROOT
BRANCH  14  16
ATOM     16  C   UNL     1      29.686  -1.154   4.373  0.00  0.00    +0.000 A 
ATOM     17  C   UNL     1      30.339  -2.190   3.691  0.00  0.00    +0.000 A 
ATOM     18  C   UNL     1      31.574  -1.976   3.081  0.00  0.00    +0.000 A 
ATOM     19  F   UNL     1      32.166  -2.993   2.439  0.00  0.00    +0.000 F 
ATOM     20  C   UNL     1      32.182  -0.729   3.141  0.00  0.00    +0.000 A 
ATOM     21  C   UNL     1      31.542   0.301   3.815  0.00  0.00    +0.000 A 
ATOM     22  F   UNL     1      32.119   1.511   3.878  0.00  0.00    +0.000 F 
ATOM     23  C   UNL     1      30.308   0.096   4.424  0.00  0.00    +0.000 A 
BRANCH  20  24
ATOM     24  O   UNL     1      33.393  -0.527   2.542  0.00  0.00    +0.000 OA
ATOM     25  H   UNL     1      33.263  -0.573   1.575  0.00  0.00    +0.000 HD
ENDBRANCH  20  24
ENDBRANCH  14  16
BRANCH   2  26
ATOM     26  C   UNL     1      27.382   3.264   3.781  0.00  0.00    +0.000 C 
ATOM     27  C   UNL     1      28.636   3.800   3.079  0.00  0.00    +0.000 C 
BRANCH  27  28
ATOM     28  C   UNL     1      29.793   4.292   2.436  0.00  0.00    +0.000 C 
ATOM     29  C   UNL     1      31.091   4.356   3.182  0.00  0.00    +0.000 C 
ATOM     30  C   UNL     1      29.707   4.797   1.028  0.00  0.00    +0.000 C 
ENDBRANCH  27  28
ENDBRANCH   2  26
TORSDOF 4
ENDMDL
MODEL 4
REMARK VINA RESULT:      -6.1     32.598     34.099
REMARK  Name = 25023738_BI-D-1870.pdbqt.pdb
REMARK  4 active torsions:
REMARK  status: ('A' for Active; 'I' for Inactive)
REMARK    1  A    between atoms: N_2  and  C_26
REMARK    2  A    between atoms: N_14  and  C_16
REMARK    3  A    between atoms: C_20  and  O_24
REMARK    4  A    between atoms: C_27  and  C_28
REMARK                            x       y       z     vdW  Elec       q    Type
REMARK                         _______ _______ _______ _____ _____    ______ ____
ROOT
ATOM      1  O   UNL     1      20.712  24.490  31.073  0.00  0.00    +0.000 OA
ATOM      2  N   UNL     1      24.292  23.965  31.092  0.00  0.00    +0.000 N 
ATOM      3  N   UNL     1      22.165  24.262  29.266  0.00  0.00    +0.000 N 
ATOM      4  N   UNL     1      25.819  23.725  29.275  0.00  0.00    +0.000 NA
ATOM      5  N   UNL     1      25.111  23.809  27.042  0.00  0.00    +0.000 NA
ATOM      6  C   UNL     1      23.020  24.155  31.589  0.00  0.00    +0.000 C 
ATOM      7  C   UNL     1      24.551  23.915  29.707  0.00  0.00    +0.000 A 
ATOM      8  C   UNL     1      21.856  24.318  30.642  0.00  0.00    +0.000 C 
ATOM      9  C   UNL     1      23.502  24.061  28.826  0.00  0.00    +0.000 A 
ATOM     10  C   UNL     1      22.789  24.201  33.095  0.00  0.00    +0.000 C 
ATOM     11  C   UNL     1      21.174  24.398  28.204  0.00  0.00    +0.000 C 
ATOM     12  C   UNL     1      23.859  23.997  27.497  0.00  0.00    +0.000 A 
ATOM     13  C   UNL     1      26.069  23.677  27.958  0.00  0.00    +0.000 A 
ATOM     14  N   UNL     1      27.356  23.485  27.476  0.00  0.00    +0.000 N 
ATOM     15  H   UNL     1      27.366  23.474  26.463  0.00  0.00    +0.000 HD
ENDROOT
BRANCH  14  16
ATOM     16  C   UNL     1      28.578  23.314  28.136  0.00  0.00    +0.000 A 
ATOM     17  C   UNL     1      29.679  24.089  27.747  0.00  0.00    +0.000 A 
ATOM     18  C   UNL     1      30.912  23.947  28.383  0.00  0.00    +0.000 A 
ATOM     19  F   UNL     1      31.941  24.707  27.981  0.00  0.00    +0.000 F 
ATOM     20  C   UNL     1      31.071  23.030  29.413  0.00  0.00    +0.000 A 
ATOM     21  C   UNL     1      29.986  22.258  29.803  0.00  0.00    +0.000 A 
ATOM     22  F   UNL     1      30.127  21.371  30.799  0.00  0.00    +0.000 F 
ATOM     23  C   UNL     1      28.752  22.396  29.175  0.00  0.00    +0.000 A 
BRANCH  20  24
ATOM     24  O   UNL     1      32.283  22.896  30.031  0.00  0.00    +0.000 OA
ATOM     25  H   UNL     1      32.596  21.983  29.884  0.00  0.00    +0.000 HD
ENDBRANCH  20  24
ENDBRANCH  14  16
BRANCH   2  26
ATOM     26  C   UNL     1      25.421  23.805  32.004  0.00  0.00    +0.000 C 
ATOM     27  C   UNL     1      26.608  23.632  32.960  0.00  0.00    +0.000 C 
BRANCH  27  28
ATOM     28  C   UNL     1      27.700  23.478  33.842  0.00  0.00    +0.000 C 
ATOM     29  C   UNL     1      27.480  23.551  35.322  0.00  0.00    +0.000 C 
ATOM     30  C   UNL     1      29.081  23.293  33.294  0.00  0.00    +0.000 C 
ENDBRANCH  27  28
ENDBRANCH   2  26
TORSDOF 4
ENDMDL
MODEL 5
REMARK VINA RESULT:      -6.0      5.192      7.354
REMARK  Name = 25023738_BI-D-1870.pdbqt.pdb
REMARK  4 active torsions:
REMARK  status: ('A' for Active; 'I' for Inactive)
REMARK    1  A    between atoms: N_2  and  C_26
REMARK    2  A    between atoms: N_14  and  C_16
REMARK    3  A    between atoms: C_20  and  O_24
REMARK    4  A    between atoms: C_27  and  C_28
REMARK                            x       y       z     vdW  Elec       q    Type
REMARK                         _______ _______ _______ _____ _____    ______ ____
ROOT
ATOM      1  O   UNL     1      16.875  -2.314   0.077  0.00  0.00    +0.000 OA
ATOM      2  N   UNL     1      19.368  -1.988   2.678  0.00  0.00    +0.000 N 
ATOM      3  N   UNL     1      19.177  -2.030  -0.133  0.00  0.00    +0.000 N 
ATOM      4  N   UNL     1      21.731  -1.697   2.514  0.00  0.00    +0.000 NA
ATOM      5  N   UNL     1      22.824  -1.576   0.444  0.00  0.00    +0.000 NA
ATOM      6  C   UNL     1      18.125  -2.146   2.106  0.00  0.00    +0.000 C 
ATOM      7  C   UNL     1      20.535  -1.849   1.898  0.00  0.00    +0.000 A 
ATOM      8  C   UNL     1      17.983  -2.174   0.604  0.00  0.00    +0.000 C 
ATOM      9  C   UNL     1      20.427  -1.872   0.526  0.00  0.00    +0.000 A 
ATOM     10  C   UNL     1      16.892  -2.293   2.991  0.00  0.00    +0.000 C 
ATOM     11  C   UNL     1      19.239  -2.032  -1.591  0.00  0.00    +0.000 C 
ATOM     12  C   UNL     1      21.623  -1.728  -0.144  0.00  0.00    +0.000 A 
ATOM     13  C   UNL     1      22.842  -1.564   1.775  0.00  0.00    +0.000 A 
ATOM     14  N   UNL     1      24.087  -1.406   2.369  0.00  0.00    +0.000 N 
ATOM     15  H   UNL     1      24.814  -1.320   1.670  0.00  0.00    +0.000 HD
ENDROOT
BRANCH  14  16
ATOM     16  C   UNL     1      24.473  -1.346   3.713  0.00  0.00    +0.000 A 
ATOM     17  C   UNL     1      24.107  -2.389   4.575  0.00  0.00    +0.000 A 
ATOM     18  C   UNL     1      24.473  -2.364   5.920  0.00  0.00    +0.000 A 
ATOM     19  F   UNL     1      24.103  -3.381   6.713  0.00  0.00    +0.000 F 
ATOM     20  C   UNL     1      25.208  -1.303   6.430  0.00  0.00    +0.000 A 
ATOM     21  C   UNL     1      25.573  -0.266   5.583  0.00  0.00    +0.000 A 
ATOM     22  F   UNL     1      26.284   0.764   6.064  0.00  0.00    +0.000 F 
ATOM     23  C   UNL     1      25.212  -0.284   4.239  0.00  0.00    +0.000 A 
BRANCH  20  24
ATOM     24  O   UNL     1      25.563  -1.285   7.750  0.00  0.00    +0.000 OA
ATOM     25  H   UNL     1      25.680  -2.209   8.043  0.00  0.00    +0.000 HD
ENDBRANCH  20  24
ENDBRANCH  14  16
BRANCH   2  26
ATOM     26  C   UNL     1      19.511  -1.963   4.131  0.00  0.00    +0.000 C 
ATOM     27  C   UNL     1      19.658  -1.932   5.658  0.00  0.00    +0.000 C 
BRANCH  27  28
ATOM     28  C   UNL     1      19.796  -1.908   7.063  0.00  0.00    +0.000 C 
ATOM     29  C   UNL     1      18.627  -1.532   7.921  0.00  0.00    +0.000 C 
ATOM     30  C   UNL     1      21.123  -2.209   7.688  0.00  0.00    +0.000 C 
ENDBRANCH  27  28
ENDBRANCH   2  26
TORSDOF 4
ENDMDL
MODEL 6
REMARK VINA RESULT:      -5.9     31.746     33.543
REMARK  Name = 25023738_BI-D-1870.pdbqt.pdb
REMARK  4 active torsions:
REMARK  status: ('A' for Active; 'I' for Inactive)
REMARK    1  A    between atoms: N_2  and  C_26
REMARK    2  A    between atoms: N_14  and  C_16
REMARK    3  A    between atoms: C_20  and  O_24
REMARK    4  A    between atoms: C_27  and  C_28
REMARK                            x       y       z     vdW  Elec       q    Type
REMARK                         _______ _______ _______ _____ _____    ______ ____
ROOT
ATOM      1  O   UNL     1      52.876 -15.490  18.235  0.00  0.00    +0.000 OA
ATOM      2  N   UNL     1      50.548 -18.161  17.499  0.00  0.00    +0.000 N 
ATOM      3  N   UNL     1      51.756 -15.945  16.244  0.00  0.00    +0.000 N 
ATOM      4  N   UNL     1      49.378 -18.667  15.483  0.00  0.00    +0.000 NA
ATOM      5  N   UNL     1      49.622 -17.366  13.549  0.00  0.00    +0.000 NA
ATOM      6  C   UNL     1      51.424 -17.387  18.231  0.00  0.00    +0.000 C 
ATOM      7  C   UNL     1      50.245 -17.873  16.153  0.00  0.00    +0.000 A 
ATOM      8  C   UNL     1      52.089 -16.192  17.592  0.00  0.00    +0.000 C 
ATOM      9  C   UNL     1      50.842 -16.787  15.552  0.00  0.00    +0.000 A 
ATOM     10  C   UNL     1      51.719 -17.737  19.685  0.00  0.00    +0.000 C 
ATOM     11  C   UNL     1      52.298 -14.840  15.460  0.00  0.00    +0.000 C 
ATOM     12  C   UNL     1      50.481 -16.592  14.236  0.00  0.00    +0.000 A 
ATOM     13  C   UNL     1      49.088 -18.396  14.202  0.00  0.00    +0.000 A 
ATOM     14  N   UNL     1      48.204 -19.187  13.481  0.00  0.00    +0.000 N 
ATOM     15  H   UNL     1      48.099 -18.843  12.534  0.00  0.00    +0.000 HD
ENDROOT
BRANCH  14  16
ATOM     16  C   UNL     1      47.475 -20.326  13.839  0.00  0.00    +0.000 A 
ATOM     17  C   UNL     1      47.594 -21.486  13.062  0.00  0.00    +0.000 A 
ATOM     18  C   UNL     1      46.884 -22.641  13.389  0.00  0.00    +0.000 A 
ATOM     19  F   UNL     1      47.026 -23.730  12.620  0.00  0.00    +0.000 F 
ATOM     20  C   UNL     1      46.042 -22.661  14.492  0.00  0.00    +0.000 A 
ATOM     21  C   UNL     1      45.918 -21.516  15.266  0.00  0.00    +0.000 A 
ATOM     22  F   UNL     1      45.108 -21.523  16.336  0.00  0.00    +0.000 F 
ATOM     23  C   UNL     1      46.624 -20.360  14.948  0.00  0.00    +0.000 A 
BRANCH  20  24
ATOM     24  O   UNL     1      45.349 -23.796  14.806  0.00  0.00    +0.000 OA
ATOM     25  H   UNL     1      45.050 -23.720  15.733  0.00  0.00    +0.000 HD
ENDBRANCH  20  24
ENDBRANCH  14  16
BRANCH   2  26
ATOM     26  C   UNL     1      49.900 -19.316  18.114  0.00  0.00    +0.000 C 
ATOM     27  C   UNL     1      49.218 -20.532  18.754  0.00  0.00    +0.000 C 
BRANCH  27  28
ATOM     28  C   UNL     1      48.591 -21.649  19.348  0.00  0.00    +0.000 C 
ATOM     29  C   UNL     1      47.467 -22.339  18.638  0.00  0.00    +0.000 C 
ATOM     30  C   UNL     1      49.018 -22.108  20.708  0.00  0.00    +0.000 C 
ENDBRANCH  27  28
ENDBRANCH   2  26
TORSDOF 4
ENDMDL
MODEL 7
REMARK VINA RESULT:      -5.8     36.231     38.235
REMARK  Name = 25023738_BI-D-1870.pdbqt.pdb
REMARK  4 active torsions:
REMARK  status: ('A' for Active; 'I' for Inactive)
REMARK    1  A    between atoms: N_2  and  C_26
REMARK    2  A    between atoms: N_14  and  C_16
REMARK    3  A    between atoms: C_20  and  O_24
REMARK    4  A    between atoms: C_27  and  C_28
REMARK                            x       y       z     vdW  Elec       q    Type
REMARK                         _______ _______ _______ _____ _____    ______ ____
ROOT
ATOM      1  O   UNL     1      55.701  12.049  32.424  0.00  0.00    +0.000 OA
ATOM      2  N   UNL     1      53.672   9.288  31.263  0.00  0.00    +0.000 N 
ATOM      3  N   UNL     1      54.140  10.785  33.605  0.00  0.00    +0.000 N 
ATOM      4  N   UNL     1      52.065   7.966  32.430  0.00  0.00    +0.000 NA
ATOM      5  N   UNL     1      51.561   8.335  34.689  0.00  0.00    +0.000 NA
ATOM      6  C   UNL     1      54.597  10.308  31.217  0.00  0.00    +0.000 C 
ATOM      7  C   UNL     1      52.962   8.978  32.442  0.00  0.00    +0.000 A 
ATOM      8  C   UNL     1      54.875  11.132  32.451  0.00  0.00    +0.000 C 
ATOM      9  C   UNL     1      53.201   9.718  33.579  0.00  0.00    +0.000 A 
ATOM     10  C   UNL     1      55.341  10.605  29.920  0.00  0.00    +0.000 C 
ATOM     11  C   UNL     1      54.272  11.466  34.889  0.00  0.00    +0.000 C 
ATOM     12  C   UNL     1      52.458   9.338  34.675  0.00  0.00    +0.000 A 
ATOM     13  C   UNL     1      51.388   7.669  33.549  0.00  0.00    +0.000 A 
ATOM     14  N   UNL     1      50.459   6.637  33.576  0.00  0.00    +0.000 N 
ATOM     15  H   UNL     1      50.042   6.549  34.495  0.00  0.00    +0.000 HD
ENDROOT
BRANCH  14  16
ATOM     16  C   UNL     1      50.030   5.749  32.584  0.00  0.00    +0.000 A 
ATOM     17  C   UNL     1      50.230   4.374  32.766  0.00  0.00    +0.000 A 
ATOM     18  C   UNL     1      49.816   3.458  31.799  0.00  0.00    +0.000 A 
ATOM     19  F   UNL     1      50.026   2.151  32.010  0.00  0.00    +0.000 F 
ATOM     20  C   UNL     1      49.197   3.894  30.636  0.00  0.00    +0.000 A 
ATOM     21  C   UNL     1      48.996   5.255  30.448  0.00  0.00    +0.000 A 
ATOM     22  F   UNL     1      48.398   5.688  29.329  0.00  0.00    +0.000 F 
ATOM     23  C   UNL     1      49.406   6.175  31.409  0.00  0.00    +0.000 A 
BRANCH  20  24
ATOM     24  O   UNL     1      48.795   2.992  29.692  0.00  0.00    +0.000 OA
ATOM     25  H   UNL     1      47.819   3.002  29.662  0.00  0.00    +0.000 HD
ENDBRANCH  20  24
ENDBRANCH  14  16
BRANCH   2  26
ATOM     26  C   UNL     1      53.401   8.487  30.072  0.00  0.00    +0.000 C 
ATOM     27  C   UNL     1      53.113   7.643  28.824  0.00  0.00    +0.000 C 
BRANCH  27  28
ATOM     28  C   UNL     1      52.851   6.869  27.672  0.00  0.00    +0.000 C 
ATOM     29  C   UNL     1      51.737   5.868  27.684  0.00  0.00    +0.000 C 
ATOM     30  C   UNL     1      53.720   7.016  26.462  0.00  0.00    +0.000 C 
ENDBRANCH  27  28
ENDBRANCH   2  26
TORSDOF 4
ENDMDL
MODEL 8
REMARK VINA RESULT:      -5.8      1.902      3.142
REMARK  Name = 25023738_BI-D-1870.pdbqt.pdb
REMARK  4 active torsions:
REMARK  status: ('A' for Active; 'I' for Inactive)
REMARK    1  A    between atoms: N_2  and  C_26
REMARK    2  A    between atoms: N_14  and  C_16
REMARK    3  A    between atoms: C_20  and  O_24
REMARK    4  A    between atoms: C_27  and  C_28
REMARK                            x       y       z     vdW  Elec       q    Type
REMARK                         _______ _______ _______ _____ _____    ______ ____
ROOT
ATOM      1  O   UNL     1      23.345   5.773   4.530  0.00  0.00    +0.000 OA
ATOM      2  N   UNL     1      26.514   4.121   3.964  0.00  0.00    +0.000 N 
ATOM      3  N   UNL     1      23.960   3.582   5.026  0.00  0.00    +0.000 N 
ATOM      4  N   UNL     1      27.191   1.887   4.453  0.00  0.00    +0.000 NA
ATOM      5  N   UNL     1      25.740   0.344   5.458  0.00  0.00    +0.000 NA
ATOM      6  C   UNL     1      25.575   5.130   3.964  0.00  0.00    +0.000 C 
ATOM      7  C   UNL     1      26.231   2.839   4.479  0.00  0.00    +0.000 A 
ATOM      8  C   UNL     1      24.197   4.879   4.524  0.00  0.00    +0.000 C 
ATOM      9  C   UNL     1      24.978   2.590   4.995  0.00  0.00    +0.000 A 
ATOM     10  C   UNL     1      25.929   6.501   3.397  0.00  0.00    +0.000 C 
ATOM     11  C   UNL     1      22.692   3.152   5.606  0.00  0.00    +0.000 C 
ATOM     12  C   UNL     1      24.802   1.309   5.471  0.00  0.00    +0.000 A 
ATOM     13  C   UNL     1      26.924   0.666   4.942  0.00  0.00    +0.000 A 
ATOM     14  N   UNL     1      27.883  -0.338   4.933  0.00  0.00    +0.000 N 
ATOM     15  H   UNL     1      27.517  -1.191   5.337  0.00  0.00    +0.000 HD
ENDROOT
BRANCH  14  16
ATOM     16  C   UNL     1      29.205  -0.354   4.476  0.00  0.00    +0.000 A 
ATOM     17  C   UNL     1      29.924   0.848   4.422  0.00  0.00    +0.000 A 
ATOM     18  C   UNL     1      31.244   0.870   3.973  0.00  0.00    +0.000 A 
ATOM     19  F   UNL     1      31.898   2.041   3.937  0.00  0.00    +0.000 F 
ATOM     20  C   UNL     1      31.870  -0.300   3.567  0.00  0.00    +0.000 A 
ATOM     21  C   UNL     1      31.164  -1.494   3.616  0.00  0.00    +0.000 A 
ATOM     22  F   UNL     1      31.758  -2.632   3.228  0.00  0.00    +0.000 F 
ATOM     23  C   UNL     1      29.847  -1.525   4.065  0.00  0.00    +0.000 A 
BRANCH  20  24
ATOM     24  O   UNL     1      33.163  -0.270   3.127  0.00  0.00    +0.000 OA
ATOM     25  H   UNL     1      33.403  -1.170   2.834  0.00  0.00    +0.000 HD
ENDBRANCH  20  24
ENDBRANCH  14  16
BRANCH   2  26
ATOM     26  C   UNL     1      27.850   4.361   3.424  0.00  0.00    +0.000 C 
ATOM     27  C   UNL     1      29.253   4.616   2.860  0.00  0.00    +0.000 C 
BRANCH  27  28
ATOM     28  C   UNL     1      30.546   4.847   2.339  0.00  0.00    +0.000 C 
ATOM     29  C   UNL     1      31.414   5.909   2.940  0.00  0.00    +0.000 C 
ATOM     30  C   UNL     1      31.023   4.065   1.154  0.00  0.00    +0.000 C 
ENDBRANCH  27  28
ENDBRANCH   2  26
TORSDOF 4
ENDMDL
MODEL 9
REMARK VINA RESULT:      -5.7     20.127     23.083
REMARK  Name = 25023738_BI-D-1870.pdbqt.pdb
REMARK  4 active torsions:
REMARK  status: ('A' for Active; 'I' for Inactive)
REMARK    1  A    between atoms: N_2  and  C_26
REMARK    2  A    between atoms: N_14  and  C_16
REMARK    3  A    between atoms: C_20  and  O_24
REMARK    4  A    between atoms: C_27  and  C_28
REMARK                            x       y       z     vdW  Elec       q    Type
REMARK                         _______ _______ _______ _____ _____    ______ ____
ROOT
ATOM      1  O   UNL     1      27.116 -19.392   6.672  0.00  0.00    +0.000 OA
ATOM      2  N   UNL     1      26.911 -19.890  10.249  0.00  0.00    +0.000 N 
ATOM      3  N   UNL     1      25.765 -18.300   8.224  0.00  0.00    +0.000 N 
ATOM      4  N   UNL     1      25.548 -18.801  11.877  0.00  0.00    +0.000 NA
ATOM      5  N   UNL     1      24.031 -17.112  11.293  0.00  0.00    +0.000 NA
ATOM      6  C   UNL     1      27.336 -20.072   8.951  0.00  0.00    +0.000 C 
ATOM      7  C   UNL     1      25.927 -18.937  10.585  0.00  0.00    +0.000 A 
ATOM      8  C   UNL     1      26.745 -19.239   7.839  0.00  0.00    +0.000 C 
ATOM      9  C   UNL     1      25.376 -18.167   9.585  0.00  0.00    +0.000 A 
ATOM     10  C   UNL     1      28.403 -21.115   8.637  0.00  0.00    +0.000 C 
ATOM     11  C   UNL     1      25.082 -17.408   7.292  0.00  0.00    +0.000 C 
ATOM     12  C   UNL     1      24.425 -17.267  10.015  0.00  0.00    +0.000 A 
ATOM     13  C   UNL     1      24.613 -17.896  12.199  0.00  0.00    +0.000 A 
ATOM     14  N   UNL     1      24.197 -17.726  13.513  0.00  0.00    +0.000 N 
ATOM     15  H   UNL     1      23.489 -17.006  13.579  0.00  0.00    +0.000 HD
ENDROOT
BRANCH  14  16
ATOM     16  C   UNL     1      24.582 -18.365  14.697  0.00  0.00    +0.000 A 
ATOM     17  C   UNL     1      24.783 -17.598  15.852  0.00  0.00    +0.000 A 
ATOM     18  C   UNL     1      25.166 -18.198  17.050  0.00  0.00    +0.000 A 
ATOM     19  F   UNL     1      25.349 -17.430  18.134  0.00  0.00    +0.000 F 
ATOM     20  C   UNL     1      25.358 -19.572  17.120  0.00  0.00    +0.000 A 
ATOM     21  C   UNL     1      25.162 -20.338  15.979  0.00  0.00    +0.000 A 
ATOM     22  F   UNL     1      25.343 -21.666  16.034  0.00  0.00    +0.000 F 
ATOM     23  C   UNL     1      24.778 -19.746  14.780  0.00  0.00    +0.000 A 
BRANCH  20  24
ATOM     24  O   UNL     1      25.735 -20.154  18.297  0.00  0.00    +0.000 OA
ATOM     25  H   UNL     1      24.941 -20.236  18.860  0.00  0.00    +0.000 HD
ENDBRANCH  20  24
ENDBRANCH  14  16
BRANCH   2  26
ATOM     26  C   UNL     1      27.481 -20.692  11.328  0.00  0.00    +0.000 C 
ATOM     27  C   UNL     1      28.077 -21.532  12.465  0.00  0.00    +0.000 C 
BRANCH  27  28
ATOM     28  C   UNL     1      28.628 -22.309  13.508  0.00  0.00    +0.000 C 
ATOM     29  C   UNL     1      28.503 -21.847  14.928  0.00  0.00    +0.000 C 
ATOM     30  C   UNL     1      29.380 -23.563  13.187  0.00  0.00    +0.000 C 
ENDBRANCH  27  28
ENDBRANCH   2  26
TORSDOF 4
ENDMDL
