MODEL 1
REMARK VINA RESULT:      -5.1      0.000      0.000
REMARK  Name = 26879_Levamisole.pdbqt.pdb
REMARK  1 active torsions:
REMARK  status: ('A' for Active; 'I' for Inactive)
REMARK    1  A    between atoms: C_5  and  C_9
REMARK                            x       y       z     vdW  Elec       q    Type
REMARK                         _______ _______ _______ _____ _____    ______ ____
ROOT
ATOM      1  S   UNL     1      41.505   6.839  16.539  0.00  0.00    +0.000 S 
ATOM      2  N   UNL     1      39.324   7.567  18.164  0.00  0.00    +0.000 NA
ATOM      3  N   UNL     1      39.181   5.513  16.860  0.00  0.00    +0.000 NA
ATOM      4  C   UNL     1      38.510   6.536  18.730  0.00  0.00    +0.000 C 
ATOM      5  C   UNL     1      38.339   5.403  17.918  0.00  0.00    +0.000 C 
ATOM      6  C   UNL     1      40.591   7.810  18.807  0.00  0.00    +0.000 C 
ATOM      7  C   UNL     1      39.792   6.726  17.010  0.00  0.00    +0.000 C 
ATOM      8  C   UNL     1      41.845   7.536  18.036  0.00  0.00    +0.000 C 
ENDROOT
BRANCH   5   9
ATOM      9  C   UNL     1      37.479   4.253  18.152  0.00  0.00    +0.000 A 
ATOM     10  C   UNL     1      36.691   3.710  17.133  0.00  0.00    +0.000 A 
ATOM     11  C   UNL     1      37.423   3.666  19.420  0.00  0.00    +0.000 A 
ATOM     12  C   UNL     1      35.869   2.610  17.371  0.00  0.00    +0.000 A 
ATOM     13  C   UNL     1      36.604   2.566  19.664  0.00  0.00    +0.000 A 
ATOM     14  C   UNL     1      35.827   2.038  18.639  0.00  0.00    +0.000 A 
ENDBRANCH   5   9
TORSDOF 1
ENDMDL
MODEL 2
REMARK VINA RESULT:      -4.9     32.403     34.550
REMARK  Name = 26879_Levamisole.pdbqt.pdb
REMARK  1 active torsions:
REMARK  status: ('A' for Active; 'I' for Inactive)
REMARK    1  A    between atoms: C_5  and  C_9
REMARK                            x       y       z     vdW  Elec       q    Type
REMARK                         _______ _______ _______ _____ _____    ______ ____
ROOT
ATOM      1  S   UNL     1      23.223  -9.535  46.027  0.00  0.00    +0.000 S 
ATOM      2  N   UNL     1      20.500  -8.847  46.224  0.00  0.00    +0.000 NA
ATOM      3  N   UNL     1      21.699  -8.318  44.167  0.00  0.00    +0.000 NA
ATOM      4  C   UNL     1      19.704  -8.832  45.036  0.00  0.00    +0.000 C 
ATOM      5  C   UNL     1      20.377  -8.413  43.876  0.00  0.00    +0.000 C 
ATOM      6  C   UNL     1      20.780 -10.141  46.792  0.00  0.00    +0.000 C 
ATOM      7  C   UNL     1      21.796  -8.612  45.499  0.00  0.00    +0.000 C 
ATOM      8  C   UNL     1      22.201 -10.613  46.823  0.00  0.00    +0.000 C 
ENDROOT
BRANCH   5   9
ATOM      9  C   UNL     1      19.821  -8.173  42.553  0.00  0.00    +0.000 A 
ATOM     10  C   UNL     1      18.652  -8.812  42.125  0.00  0.00    +0.000 A 
ATOM     11  C   UNL     1      20.458  -7.292  41.674  0.00  0.00    +0.000 A 
ATOM     12  C   UNL     1      18.132  -8.576  40.853  0.00  0.00    +0.000 A 
ATOM     13  C   UNL     1      19.942  -7.052  40.402  0.00  0.00    +0.000 A 
ATOM     14  C   UNL     1      18.779  -7.695  39.992  0.00  0.00    +0.000 A 
ENDBRANCH   5   9
TORSDOF 1
ENDMDL
MODEL 3
REMARK VINA RESULT:      -4.7      9.560     10.696
REMARK  Name = 26879_Levamisole.pdbqt.pdb
REMARK  1 active torsions:
REMARK  status: ('A' for Active; 'I' for Inactive)
REMARK    1  A    between atoms: C_5  and  C_9
REMARK                            x       y       z     vdW  Elec       q    Type
REMARK                         _______ _______ _______ _____ _____    ______ ____
ROOT
ATOM      1  S   UNL     1      44.196  -0.857  11.940  0.00  0.00    +0.000 S 
ATOM      2  N   UNL     1      42.849  -2.620  10.207  0.00  0.00    +0.000 NA
ATOM      3  N   UNL     1      41.534  -1.134  11.624  0.00  0.00    +0.000 NA
ATOM      4  C   UNL     1      41.578  -2.231   9.678  0.00  0.00    +0.000 C 
ATOM      5  C   UNL     1      40.779  -1.472  10.548  0.00  0.00    +0.000 C 
ATOM      6  C   UNL     1      44.009  -2.028   9.592  0.00  0.00    +0.000 C 
ATOM      7  C   UNL     1      42.741  -1.743  11.423  0.00  0.00    +0.000 C 
ATOM      8  C   UNL     1      44.868  -1.120  10.417  0.00  0.00    +0.000 C 
ENDROOT
BRANCH   5   9
ATOM      9  C   UNL     1      39.405  -1.035  10.355  0.00  0.00    +0.000 A 
ATOM     10  C   UNL     1      38.721  -0.317  11.340  0.00  0.00    +0.000 A 
ATOM     11  C   UNL     1      38.735  -1.336   9.165  0.00  0.00    +0.000 A 
ATOM     12  C   UNL     1      37.403   0.093  11.143  0.00  0.00    +0.000 A 
ATOM     13  C   UNL     1      37.418  -0.930   8.963  0.00  0.00    +0.000 A 
ATOM     14  C   UNL     1      36.752  -0.214   9.952  0.00  0.00    +0.000 A 
ENDBRANCH   5   9
TORSDOF 1
ENDMDL
MODEL 4
REMARK VINA RESULT:      -4.6     25.573     27.568
REMARK  Name = 26879_Levamisole.pdbqt.pdb
REMARK  1 active torsions:
REMARK  status: ('A' for Active; 'I' for Inactive)
REMARK    1  A    between atoms: C_5  and  C_9
REMARK                            x       y       z     vdW  Elec       q    Type
REMARK                         _______ _______ _______ _____ _____    ______ ____
ROOT
ATOM      1  S   UNL     1      36.087  -8.615  42.033  0.00  0.00    +0.000 S 
ATOM      2  N   UNL     1      35.372 -11.337  41.962  0.00  0.00    +0.000 NA
ATOM      3  N   UNL     1      35.674 -10.148  39.856  0.00  0.00    +0.000 NA
ATOM      4  C   UNL     1      35.812 -12.138  40.863  0.00  0.00    +0.000 C 
ATOM      5  C   UNL     1      35.871 -11.471  39.628  0.00  0.00    +0.000 C 
ATOM      6  C   UNL     1      36.349 -11.055  42.982  0.00  0.00    +0.000 C 
ATOM      7  C   UNL     1      35.435 -10.045  41.198  0.00  0.00    +0.000 C 
ATOM      8  C   UNL     1      36.775  -9.634  43.187  0.00  0.00    +0.000 C 
ENDROOT
BRANCH   5   9
ATOM      9  C   UNL     1      36.157 -12.033  38.316  0.00  0.00    +0.000 A 
ATOM     10  C   UNL     1      36.002 -11.278  37.149  0.00  0.00    +0.000 A 
ATOM     11  C   UNL     1      36.593 -13.356  38.201  0.00  0.00    +0.000 A 
ATOM     12  C   UNL     1      36.276 -11.830  35.899  0.00  0.00    +0.000 A 
ATOM     13  C   UNL     1      36.868 -13.912  36.954  0.00  0.00    +0.000 A 
ATOM     14  C   UNL     1      36.710 -13.148  35.802  0.00  0.00    +0.000 A 
ENDBRANCH   5   9
TORSDOF 1
ENDMDL
MODEL 5
REMARK VINA RESULT:      -4.6      3.052      5.189
REMARK  Name = 26879_Levamisole.pdbqt.pdb
REMARK  1 active torsions:
REMARK  status: ('A' for Active; 'I' for Inactive)
REMARK    1  A    between atoms: C_5  and  C_9
REMARK                            x       y       z     vdW  Elec       q    Type
REMARK                         _______ _______ _______ _____ _____    ______ ____
ROOT
ATOM      1  S   UNL     1      40.079   5.181  12.023  0.00  0.00    +0.000 S 
ATOM      2  N   UNL     1      39.104   3.650  14.175  0.00  0.00    +0.000 NA
ATOM      3  N   UNL     1      40.344   5.693  14.655  0.00  0.00    +0.000 NA
ATOM      4  C   UNL     1      38.745   4.315  15.389  0.00  0.00    +0.000 C 
ATOM      5  C   UNL     1      39.542   5.424  15.716  0.00  0.00    +0.000 C 
ATOM      6  C   UNL     1      38.158   3.735  13.092  0.00  0.00    +0.000 C 
ATOM      7  C   UNL     1      40.072   4.714  13.741  0.00  0.00    +0.000 C 
ATOM      8  C   UNL     1      38.565   4.460  11.847  0.00  0.00    +0.000 C 
ENDROOT
BRANCH   5   9
ATOM      9  C   UNL     1      39.511   6.225  16.931  0.00  0.00    +0.000 A 
ATOM     10  C   UNL     1      40.490   7.187  17.197  0.00  0.00    +0.000 A 
ATOM     11  C   UNL     1      38.490   6.039  17.867  0.00  0.00    +0.000 A 
ATOM     12  C   UNL     1      40.451   7.945  18.366  0.00  0.00    +0.000 A 
ATOM     13  C   UNL     1      38.445   6.794  19.037  0.00  0.00    +0.000 A 
ATOM     14  C   UNL     1      39.426   7.748  19.286  0.00  0.00    +0.000 A 
ENDBRANCH   5   9
TORSDOF 1
ENDMDL
MODEL 6
REMARK VINA RESULT:      -4.4     16.949     17.255
REMARK  Name = 26879_Levamisole.pdbqt.pdb
REMARK  1 active torsions:
REMARK  status: ('A' for Active; 'I' for Inactive)
REMARK    1  A    between atoms: C_5  and  C_9
REMARK                            x       y       z     vdW  Elec       q    Type
REMARK                         _______ _______ _______ _____ _____    ______ ____
ROOT
ATOM      1  S   UNL     1      30.309   5.590   2.043  0.00  0.00    +0.000 S 
ATOM      2  N   UNL     1      32.266   3.685   2.726  0.00  0.00    +0.000 NA
ATOM      3  N   UNL     1      29.982   3.357   3.514  0.00  0.00    +0.000 NA
ATOM      4  C   UNL     1      31.869   2.323   2.909  0.00  0.00    +0.000 C 
ATOM      5  C   UNL     1      30.595   2.147   3.474  0.00  0.00    +0.000 C 
ATOM      6  C   UNL     1      32.396   4.138   1.365  0.00  0.00    +0.000 C 
ATOM      7  C   UNL     1      30.908   4.245   3.043  0.00  0.00    +0.000 C 
ATOM      8  C   UNL     1      31.466   5.206   0.878  0.00  0.00    +0.000 C 
ENDROOT
BRANCH   5   9
ATOM      9  C   UNL     1      29.963   0.905   3.894  0.00  0.00    +0.000 A 
ATOM     10  C   UNL     1      30.663  -0.306   3.899  0.00  0.00    +0.000 A 
ATOM     11  C   UNL     1      28.626   0.903   4.302  0.00  0.00    +0.000 A 
ATOM     12  C   UNL     1      30.045  -1.488   4.302  0.00  0.00    +0.000 A 
ATOM     13  C   UNL     1      28.004  -0.277   4.706  0.00  0.00    +0.000 A 
ATOM     14  C   UNL     1      28.714  -1.472   4.706  0.00  0.00    +0.000 A 
ENDBRANCH   5   9
TORSDOF 1
ENDMDL
MODEL 7
REMARK VINA RESULT:      -4.4     23.483     24.622
REMARK  Name = 26879_Levamisole.pdbqt.pdb
REMARK  1 active torsions:
REMARK  status: ('A' for Active; 'I' for Inactive)
REMARK    1  A    between atoms: C_5  and  C_9
REMARK                            x       y       z     vdW  Elec       q    Type
REMARK                         _______ _______ _______ _____ _____    ______ ____
ROOT
ATOM      1  S   UNL     1      25.371  22.572  33.387  0.00  0.00    +0.000 S 
ATOM      2  N   UNL     1      27.824  21.212  33.139  0.00  0.00    +0.000 NA
ATOM      3  N   UNL     1      26.988  22.482  31.233  0.00  0.00    +0.000 NA
ATOM      4  C   UNL     1      28.826  21.749  32.272  0.00  0.00    +0.000 C 
ATOM      5  C   UNL     1      28.336  22.378  31.115  0.00  0.00    +0.000 C 
ATOM      6  C   UNL     1      27.679  21.849  34.423  0.00  0.00    +0.000 C 
ATOM      7  C   UNL     1      26.680  21.862  32.412  0.00  0.00    +0.000 C 
ATOM      8  C   UNL     1      26.393  22.553  34.728  0.00  0.00    +0.000 C 
ENDROOT
BRANCH   5   9
ATOM      9  C   UNL     1      29.093  22.906  29.991  0.00  0.00    +0.000 A 
ATOM     10  C   UNL     1      30.455  23.204  30.102  0.00  0.00    +0.000 A 
ATOM     11  C   UNL     1      28.460  23.133  28.765  0.00  0.00    +0.000 A 
ATOM     12  C   UNL     1      31.168  23.713  29.018  0.00  0.00    +0.000 A 
ATOM     13  C   UNL     1      29.168  23.641  27.678  0.00  0.00    +0.000 A 
ATOM     14  C   UNL     1      30.522  23.931  27.805  0.00  0.00    +0.000 A 
ENDBRANCH   5   9
TORSDOF 1
ENDMDL
MODEL 8
REMARK VINA RESULT:      -4.4     17.116     18.842
REMARK  Name = 26879_Levamisole.pdbqt.pdb
REMARK  1 active torsions:
REMARK  status: ('A' for Active; 'I' for Inactive)
REMARK    1  A    between atoms: C_5  and  C_9
REMARK                            x       y       z     vdW  Elec       q    Type
REMARK                         _______ _______ _______ _____ _____    ______ ____
ROOT
ATOM      1  S   UNL     1      27.106   3.862   3.795  0.00  0.00    +0.000 S 
ATOM      2  N   UNL     1      27.962   1.866   5.586  0.00  0.00    +0.000 NA
ATOM      3  N   UNL     1      25.661   1.813   4.782  0.00  0.00    +0.000 NA
ATOM      4  C   UNL     1      27.369   0.567   5.508  0.00  0.00    +0.000 C 
ATOM      5  C   UNL     1      26.009   0.555   5.156  0.00  0.00    +0.000 C 
ATOM      6  C   UNL     1      28.961   2.177   4.596  0.00  0.00    +0.000 C 
ATOM      7  C   UNL     1      26.783   2.570   4.975  0.00  0.00    +0.000 C 
ATOM      8  C   UNL     1      28.675   3.272   3.615  0.00  0.00    +0.000 C 
ENDROOT
BRANCH   5   9
ATOM      9  C   UNL     1      25.103  -0.582   5.114  0.00  0.00    +0.000 A 
ATOM     10  C   UNL     1      24.837  -1.347   6.253  0.00  0.00    +0.000 A 
ATOM     11  C   UNL     1      24.477  -0.935   3.914  0.00  0.00    +0.000 A 
ATOM     12  C   UNL     1      23.969  -2.436   6.198  0.00  0.00    +0.000 A 
ATOM     13  C   UNL     1      23.608  -2.022   3.854  0.00  0.00    +0.000 A 
ATOM     14  C   UNL     1      23.354  -2.773   4.997  0.00  0.00    +0.000 A 
ENDBRANCH   5   9
TORSDOF 1
ENDMDL
MODEL 9
REMARK VINA RESULT:      -4.3     18.226     19.934
REMARK  Name = 26879_Levamisole.pdbqt.pdb
REMARK  1 active torsions:
REMARK  status: ('A' for Active; 'I' for Inactive)
REMARK    1  A    between atoms: C_5  and  C_9
REMARK                            x       y       z     vdW  Elec       q    Type
REMARK                         _______ _______ _______ _____ _____    ______ ____
ROOT
ATOM      1  S   UNL     1      26.035   2.058   4.752  0.00  0.00    +0.000 S 
ATOM      2  N   UNL     1      26.325  -0.254   6.332  0.00  0.00    +0.000 NA
ATOM      3  N   UNL     1      24.091   0.659   5.987  0.00  0.00    +0.000 NA
ATOM      4  C   UNL     1      25.261  -1.208   6.361  0.00  0.00    +0.000 C 
ATOM      5  C   UNL     1      23.970  -0.660   6.278  0.00  0.00    +0.000 C 
ATOM      6  C   UNL     1      27.175  -0.276   5.169  0.00  0.00    +0.000 C 
ATOM      7  C   UNL     1      25.437   0.901   5.964  0.00  0.00    +0.000 C 
ATOM      8  C   UNL     1      27.182   0.921   4.269  0.00  0.00    +0.000 C 
ENDROOT
BRANCH   5   9
ATOM      9  C   UNL     1      22.693  -1.347   6.405  0.00  0.00    +0.000 A 
ATOM     10  C   UNL     1      21.924  -1.251   7.569  0.00  0.00    +0.000 A 
ATOM     11  C   UNL     1      22.211  -2.129   5.352  0.00  0.00    +0.000 A 
ATOM     12  C   UNL     1      20.704  -1.916   7.678  0.00  0.00    +0.000 A 
ATOM     13  C   UNL     1      20.992  -2.796   5.455  0.00  0.00    +0.000 A 
ATOM     14  C   UNL     1      20.239  -2.689   6.619  0.00  0.00    +0.000 A 
ENDBRANCH   5   9
TORSDOF 1
ENDMDL
