MODEL 1
REMARK VINA RESULT:      -5.7      0.000      0.000
REMARK  Name = 27924_Phorbol.pdbqt.pdb
REMARK  26 active torsions:
REMARK  status: ('A' for Active; 'I' for Inactive)
REMARK    1  A    between atoms: O_1  and  C_10
REMARK    2  A    between atoms: O_1  and  C_26
REMARK    3  A    between atoms: O_2  and  C_13
REMARK    4  A    between atoms: O_2  and  C_28
REMARK    5  A    between atoms: O_3  and  C_14
REMARK    6  A    between atoms: O_4  and  C_20
REMARK    7  A    between atoms: O_7  and  C_29
REMARK    8  A    between atoms: C_11  and  C_16
REMARK    9  A    between atoms: C_11  and  C_17
REMARK   10  A    between atoms: C_15  and  C_21
REMARK   11  A    between atoms: C_22  and  C_29
REMARK   12  A    between atoms: C_26  and  C_30
REMARK   13  A    between atoms: C_27  and  C_31
REMARK   14  A    between atoms: C_28  and  C_32
REMARK   15  A    between atoms: C_32  and  C_33
REMARK   16  A    between atoms: C_33  and  C_34
REMARK   17  A    between atoms: C_34  and  C_35
REMARK   18  A    between atoms: C_35  and  C_36
REMARK   19  A    between atoms: C_36  and  C_37
REMARK   20  A    between atoms: C_37  and  C_38
REMARK   21  A    between atoms: C_38  and  C_39
REMARK   22  A    between atoms: C_39  and  C_40
REMARK   23  A    between atoms: C_40  and  C_41
REMARK   24  A    between atoms: C_41  and  C_42
REMARK   25  A    between atoms: C_42  and  C_43
REMARK   26  A    between atoms: C_43  and  C_44
REMARK                            x       y       z     vdW  Elec       q    Type
REMARK                         _______ _______ _______ _____ _____    ______ ____
ROOT
ATOM      1  O   UNL     1      36.042 -14.736  36.578  0.00  0.00    +0.000 OA
ATOM      2  C   UNL     1      34.744 -12.447  43.169  0.00  0.00    +0.000 C 
ATOM      3  C   UNL     1      35.237 -11.080  43.604  0.00  0.00    +0.000 C 
ATOM      4  C   UNL     1      35.909 -12.379  44.135  0.00  0.00    +0.000 C 
ATOM      5  C   UNL     1      34.692 -12.819  41.717  0.00  0.00    +0.000 C 
ATOM      6  C   UNL     1      35.847 -10.176  42.518  0.00  0.00    +0.000 C 
ATOM      7  C   UNL     1      35.523 -11.931  40.681  0.00  0.00    +0.000 C 
ATOM      8  C   UNL     1      35.201 -10.446  41.114  0.00  0.00    +0.000 C 
ATOM      9  C   UNL     1      35.589 -12.876  45.535  0.00  0.00    +0.000 C 
ATOM     10  C   UNL     1      37.297 -12.794  43.712  0.00  0.00    +0.000 C 
ATOM     11  C   UNL     1      35.150 -12.400  39.184  0.00  0.00    +0.000 C 
ATOM     12  C   UNL     1      34.827 -14.310  41.471  0.00  0.00    +0.000 C 
ATOM     13  C   UNL     1      35.597 -13.883  38.812  0.00  0.00    +0.000 C 
ATOM     14  C   UNL     1      35.612  -9.357  40.122  0.00  0.00    +0.000 C 
ATOM     15  C   UNL     1      34.008 -14.837  40.535  0.00  0.00    +0.000 C 
ATOM     16  C   UNL     1      34.595 -15.010  39.145  0.00  0.00    +0.000 C 
ATOM     17  C   UNL     1      35.723 -11.645  37.991  0.00  0.00    +0.000 C 
ATOM     18  C   UNL     1      35.868 -13.785  37.326  0.00  0.00    +0.000 C 
ATOM     19  C   UNL     1      36.058 -12.386  36.927  0.00  0.00    +0.000 C 
ATOM     20  C   UNL     1      36.552 -11.989  35.592  0.00  0.00    +0.000 C 
ENDROOT
BRANCH   7  21
ATOM     21  O   UNL     1      36.938 -12.095  40.841  0.00  0.00    +0.000 OA
ATOM     22  H   UNL     1      37.124 -13.058  40.907  0.00  0.00    +0.000 HD
ENDBRANCH   7  21
BRANCH  13  23
ATOM     23  O   UNL     1      36.896 -14.200  39.369  0.00  0.00    +0.000 OA
ATOM     24  H   UNL     1      37.257 -13.357  39.714  0.00  0.00    +0.000 HD
ENDBRANCH  13  23
BRANCH   3  25
ATOM     25  O   UNL     1      34.226 -10.434  44.421  0.00  0.00    +0.000 OA
BRANCH  25  27
ATOM     26  O   UNL     1      32.344 -10.062  43.255  0.00  0.00    +0.000 OA
ATOM     27  C   UNL     1      32.887 -10.557  44.240  0.00  0.00    +0.000 C 
ATOM     28  C   UNL     1      32.098 -11.375  45.218  0.00  0.00    +0.000 C 
ENDBRANCH  25  27
ENDBRANCH   3  25
BRANCH  15  29
ATOM     29  C   UNL     1      32.507 -14.721  40.585  0.00  0.00    +0.000 C 
BRANCH  29  30
ATOM     30  O   UNL     1      32.066 -15.211  41.840  0.00  0.00    +0.000 OA
ATOM     31  H   UNL     1      31.114 -15.016  41.897  0.00  0.00    +0.000 HD
ENDBRANCH  29  30
ENDBRANCH  15  29
BRANCH   6  32
ATOM     32  O   UNL     1      35.622  -8.794  42.909  0.00  0.00    +0.000 OA
BRANCH  32  34
ATOM     33  O   UNL     1      37.756  -8.122  42.921  0.00  0.00    +0.000 OA
ATOM     34  C   UNL     1      36.587  -7.900  43.227  0.00  0.00    +0.000 C 
BRANCH  34  35
ATOM     35  C   UNL     1      36.212  -6.634  43.957  0.00  0.00    +0.000 C 
BRANCH  35  36
ATOM     36  C   UNL     1      35.587  -5.608  43.020  0.00  0.00    +0.000 C 
BRANCH  36  37
ATOM     37  C   UNL     1      35.587  -4.176  43.568  0.00  0.00    +0.000 C 
BRANCH  37  38
ATOM     38  C   UNL     1      35.067  -3.120  42.583  0.00  0.00    +0.000 C 
BRANCH  38  39
ATOM     39  C   UNL     1      33.739  -3.527  41.935  0.00  0.00    +0.000 C 
BRANCH  39  40
ATOM     40  C   UNL     1      33.850  -3.800  40.433  0.00  0.00    +0.000 C 
BRANCH  40  41
ATOM     41  C   UNL     1      32.731  -3.144  39.619  0.00  0.00    +0.000 C 
BRANCH  41  42
ATOM     42  C   UNL     1      33.194  -1.911  38.837  0.00  0.00    +0.000 C 
BRANCH  42  43
ATOM     43  C   UNL     1      33.005  -0.565  39.541  0.00  0.00    +0.000 C 
BRANCH  43  44
ATOM     44  C   UNL     1      34.295   0.181  39.898  0.00  0.00    +0.000 C 
BRANCH  44  45
ATOM     45  C   UNL     1      35.585  -0.636  39.784  0.00  0.00    +0.000 C 
BRANCH  45  46
ATOM     46  C   UNL     1      36.873   0.098  40.163  0.00  0.00    +0.000 C 
ATOM     47  C   UNL     1      37.845  -0.757  40.961  0.00  0.00    +0.000 C 
ENDBRANCH  45  46
ENDBRANCH  44  45
ENDBRANCH  43  44
ENDBRANCH  42  43
ENDBRANCH  41  42
ENDBRANCH  40  41
ENDBRANCH  39  40
ENDBRANCH  38  39
ENDBRANCH  37  38
ENDBRANCH  36  37
ENDBRANCH  35  36
ENDBRANCH  34  35
ENDBRANCH  32  34
ENDBRANCH   6  32
TORSDOF 20
ENDMDL
MODEL 2
REMARK VINA RESULT:      -5.6     41.862     46.152
REMARK  Name = 27924_Phorbol.pdbqt.pdb
REMARK  26 active torsions:
REMARK  status: ('A' for Active; 'I' for Inactive)
REMARK    1  A    between atoms: O_1  and  C_10
REMARK    2  A    between atoms: O_1  and  C_26
REMARK    3  A    between atoms: O_2  and  C_13
REMARK    4  A    between atoms: O_2  and  C_28
REMARK    5  A    between atoms: O_3  and  C_14
REMARK    6  A    between atoms: O_4  and  C_20
REMARK    7  A    between atoms: O_7  and  C_29
REMARK    8  A    between atoms: C_11  and  C_16
REMARK    9  A    between atoms: C_11  and  C_17
REMARK   10  A    between atoms: C_15  and  C_21
REMARK   11  A    between atoms: C_22  and  C_29
REMARK   12  A    between atoms: C_26  and  C_30
REMARK   13  A    between atoms: C_27  and  C_31
REMARK   14  A    between atoms: C_28  and  C_32
REMARK   15  A    between atoms: C_32  and  C_33
REMARK   16  A    between atoms: C_33  and  C_34
REMARK   17  A    between atoms: C_34  and  C_35
REMARK   18  A    between atoms: C_35  and  C_36
REMARK   19  A    between atoms: C_36  and  C_37
REMARK   20  A    between atoms: C_37  and  C_38
REMARK   21  A    between atoms: C_38  and  C_39
REMARK   22  A    between atoms: C_39  and  C_40
REMARK   23  A    between atoms: C_40  and  C_41
REMARK   24  A    between atoms: C_41  and  C_42
REMARK   25  A    between atoms: C_42  and  C_43
REMARK   26  A    between atoms: C_43  and  C_44
REMARK                            x       y       z     vdW  Elec       q    Type
REMARK                         _______ _______ _______ _____ _____    ______ ____
ROOT
ATOM      1  O   UNL     1      40.463 -21.763  -6.638  0.00  0.00    +0.000 OA
ATOM      2  C   UNL     1      41.297 -15.149  -4.205  0.00  0.00    +0.000 C 
ATOM      3  C   UNL     1      40.681 -14.749  -2.878  0.00  0.00    +0.000 C 
ATOM      4  C   UNL     1      40.090 -14.233  -4.221  0.00  0.00    +0.000 C 
ATOM      5  C   UNL     1      41.439 -16.593  -4.583  0.00  0.00    +0.000 C 
ATOM      6  C   UNL     1      40.049 -15.870  -2.032  0.00  0.00    +0.000 C 
ATOM      7  C   UNL     1      40.587 -17.673  -3.771  0.00  0.00    +0.000 C 
ATOM      8  C   UNL     1      40.774 -17.243  -2.262  0.00  0.00    +0.000 C 
ATOM      9  C   UNL     1      40.388 -12.815  -4.681  0.00  0.00    +0.000 C 
ATOM     10  C   UNL     1      38.758 -14.710  -4.747  0.00  0.00    +0.000 C 
ATOM     11  C   UNL     1      41.059 -19.147  -4.220  0.00  0.00    +0.000 C 
ATOM     12  C   UNL     1      41.431 -16.829  -6.082  0.00  0.00    +0.000 C 
ATOM     13  C   UNL     1      40.744 -19.521  -5.736  0.00  0.00    +0.000 C 
ATOM     14  C   UNL     1      40.322 -18.262  -1.216  0.00  0.00    +0.000 C 
ATOM     15  C   UNL     1      42.328 -17.723  -6.550  0.00  0.00    +0.000 C 
ATOM     16  C   UNL     1      41.817 -19.135  -6.779  0.00  0.00    +0.000 C 
ATOM     17  C   UNL     1      40.480 -20.371  -3.522  0.00  0.00    +0.000 C 
ATOM     18  C   UNL     1      40.531 -21.018  -5.671  0.00  0.00    +0.000 C 
ATOM     19  C   UNL     1      40.249 -21.440  -4.295  0.00  0.00    +0.000 C 
ATOM     20  C   UNL     1      39.784 -22.799  -3.947  0.00  0.00    +0.000 C 
ENDROOT
BRANCH   7  21
ATOM     21  O   UNL     1      39.184 -17.570  -4.044  0.00  0.00    +0.000 OA
ATOM     22  H   UNL     1      38.965 -18.219  -4.748  0.00  0.00    +0.000 HD
ENDBRANCH   7  21
BRANCH  13  23
ATOM     23  O   UNL     1      39.451 -19.016  -6.150  0.00  0.00    +0.000 OA
ATOM     24  H   UNL     1      39.544 -18.042  -6.201  0.00  0.00    +0.000 HD
ENDBRANCH  13  23
BRANCH   3  25
ATOM     25  O   UNL     1      41.603 -13.898  -2.149  0.00  0.00    +0.000 OA
BRANCH  25  27
ATOM     26  O   UNL     1      43.354 -15.140  -1.490  0.00  0.00    +0.000 OA
ATOM     27  C   UNL     1      42.937 -14.118  -2.032  0.00  0.00    +0.000 C 
ATOM     28  C   UNL     1      43.887 -13.136  -2.649  0.00  0.00    +0.000 C 
ENDBRANCH  25  27
ENDBRANCH   3  25
BRANCH  15  29
ATOM     29  C   UNL     1      43.812 -17.612  -6.317  0.00  0.00    +0.000 C 
BRANCH  29  30
ATOM     30  O   UNL     1      44.348 -18.922  -6.235  0.00  0.00    +0.000 OA
ATOM     31  H   UNL     1      44.986 -18.917  -5.499  0.00  0.00    +0.000 HD
ENDBRANCH  29  30
ENDBRANCH  15  29
BRANCH   6  32
ATOM     32  O   UNL     1      40.149 -15.485  -0.634  0.00  0.00    +0.000 OA
BRANCH  32  34
ATOM     33  O   UNL     1      39.430 -14.472   1.226  0.00  0.00    +0.000 OA
ATOM     34  C   UNL     1      39.222 -14.781   0.056  0.00  0.00    +0.000 C 
BRANCH  34  35
ATOM     35  C   UNL     1      37.937 -14.383  -0.626  0.00  0.00    +0.000 C 
BRANCH  35  36
ATOM     36  C   UNL     1      37.714 -12.876  -0.573  0.00  0.00    +0.000 C 
BRANCH  36  37
ATOM     37  C   UNL     1      37.697 -12.195  -1.946  0.00  0.00    +0.000 C 
BRANCH  37  38
ATOM     38  C   UNL     1      36.471 -12.532  -2.806  0.00  0.00    +0.000 C 
BRANCH  38  39
ATOM     39  C   UNL     1      36.229 -11.501  -3.912  0.00  0.00    +0.000 C 
BRANCH  39  40
ATOM     40  C   UNL     1      37.171 -10.295  -3.841  0.00  0.00    +0.000 C 
BRANCH  40  41
ATOM     41  C   UNL     1      36.749  -9.149  -4.764  0.00  0.00    +0.000 C 
BRANCH  41  42
ATOM     42  C   UNL     1      35.231  -9.015  -4.908  0.00  0.00    +0.000 C 
BRANCH  42  43
ATOM     43  C   UNL     1      34.703  -8.924  -6.343  0.00  0.00    +0.000 C 
BRANCH  43  44
ATOM     44  C   UNL     1      35.772  -8.868  -7.438  0.00  0.00    +0.000 C 
BRANCH  44  45
ATOM     45  C   UNL     1      35.857 -10.100  -8.344  0.00  0.00    +0.000 C 
BRANCH  45  46
ATOM     46  C   UNL     1      36.031 -11.441  -7.628  0.00  0.00    +0.000 C 
ATOM     47  C   UNL     1      37.485 -11.831  -7.416  0.00  0.00    +0.000 C 
ENDBRANCH  45  46
ENDBRANCH  44  45
ENDBRANCH  43  44
ENDBRANCH  42  43
ENDBRANCH  41  42
ENDBRANCH  40  41
ENDBRANCH  39  40
ENDBRANCH  38  39
ENDBRANCH  37  38
ENDBRANCH  36  37
ENDBRANCH  35  36
ENDBRANCH  34  35
ENDBRANCH  32  34
ENDBRANCH   6  32
TORSDOF 20
ENDMDL
MODEL 3
REMARK VINA RESULT:      -5.2      1.350      2.592
REMARK  Name = 27924_Phorbol.pdbqt.pdb
REMARK  26 active torsions:
REMARK  status: ('A' for Active; 'I' for Inactive)
REMARK    1  A    between atoms: O_1  and  C_10
REMARK    2  A    between atoms: O_1  and  C_26
REMARK    3  A    between atoms: O_2  and  C_13
REMARK    4  A    between atoms: O_2  and  C_28
REMARK    5  A    between atoms: O_3  and  C_14
REMARK    6  A    between atoms: O_4  and  C_20
REMARK    7  A    between atoms: O_7  and  C_29
REMARK    8  A    between atoms: C_11  and  C_16
REMARK    9  A    between atoms: C_11  and  C_17
REMARK   10  A    between atoms: C_15  and  C_21
REMARK   11  A    between atoms: C_22  and  C_29
REMARK   12  A    between atoms: C_26  and  C_30
REMARK   13  A    between atoms: C_27  and  C_31
REMARK   14  A    between atoms: C_28  and  C_32
REMARK   15  A    between atoms: C_32  and  C_33
REMARK   16  A    between atoms: C_33  and  C_34
REMARK   17  A    between atoms: C_34  and  C_35
REMARK   18  A    between atoms: C_35  and  C_36
REMARK   19  A    between atoms: C_36  and  C_37
REMARK   20  A    between atoms: C_37  and  C_38
REMARK   21  A    between atoms: C_38  and  C_39
REMARK   22  A    between atoms: C_39  and  C_40
REMARK   23  A    between atoms: C_40  and  C_41
REMARK   24  A    between atoms: C_41  and  C_42
REMARK   25  A    between atoms: C_42  and  C_43
REMARK   26  A    between atoms: C_43  and  C_44
REMARK                            x       y       z     vdW  Elec       q    Type
REMARK                         _______ _______ _______ _____ _____    ______ ____
ROOT
ATOM      1  O   UNL     1      35.877 -14.867  36.314  0.00  0.00    +0.000 OA
ATOM      2  C   UNL     1      34.801 -13.051  43.089  0.00  0.00    +0.000 C 
ATOM      3  C   UNL     1      35.352 -11.740  43.616  0.00  0.00    +0.000 C 
ATOM      4  C   UNL     1      35.988 -13.097  44.030  0.00  0.00    +0.000 C 
ATOM      5  C   UNL     1      34.706 -13.308  41.615  0.00  0.00    +0.000 C 
ATOM      6  C   UNL     1      35.971 -10.775  42.588  0.00  0.00    +0.000 C 
ATOM      7  C   UNL     1      35.545 -12.371  40.630  0.00  0.00    +0.000 C 
ATOM      8  C   UNL     1      35.286 -10.914  41.183  0.00  0.00    +0.000 C 
ATOM      9  C   UNL     1      35.680 -13.689  45.395  0.00  0.00    +0.000 C 
ATOM     10  C   UNL     1      37.351 -13.525  43.543  0.00  0.00    +0.000 C 
ATOM     11  C   UNL     1      35.124 -12.710  39.111  0.00  0.00    +0.000 C 
ATOM     12  C   UNL     1      34.782 -14.779  41.252  0.00  0.00    +0.000 C 
ATOM     13  C   UNL     1      35.510 -14.174  38.617  0.00  0.00    +0.000 C 
ATOM     14  C   UNL     1      35.715  -9.767  40.268  0.00  0.00    +0.000 C 
ATOM     15  C   UNL     1      33.924 -15.204  40.299  0.00  0.00    +0.000 C 
ATOM     16  C   UNL     1      34.475 -15.289  38.886  0.00  0.00    +0.000 C 
ATOM     17  C   UNL     1      35.699 -11.886  37.966  0.00  0.00    +0.000 C 
ATOM     18  C   UNL     1      35.752 -13.972  37.137  0.00  0.00    +0.000 C 
ATOM     19  C   UNL     1      35.984 -12.553  36.841  0.00  0.00    +0.000 C 
ATOM     20  C   UNL     1      36.464 -12.071  35.529  0.00  0.00    +0.000 C 
ENDROOT
BRANCH   7  21
ATOM     21  O   UNL     1      36.956 -12.595  40.744  0.00  0.00    +0.000 OA
ATOM     22  H   UNL     1      37.249 -12.244  41.614  0.00  0.00    +0.000 HD
ENDBRANCH   7  21
BRANCH  13  23
ATOM     23  O   UNL     1      36.809 -14.578  39.117  0.00  0.00    +0.000 OA
ATOM     24  H   UNL     1      37.357 -14.765  38.326  0.00  0.00    +0.000 HD
ENDBRANCH  13  23
BRANCH   3  25
ATOM     25  O   UNL     1      34.382 -11.124  44.504  0.00  0.00    +0.000 OA
BRANCH  25  27
ATOM     26  O   UNL     1      32.450 -12.084  45.126  0.00  0.00    +0.000 OA
ATOM     27  C   UNL     1      33.037 -11.276  44.409  0.00  0.00    +0.000 C 
ATOM     28  C   UNL     1      32.274 -10.384  43.476  0.00  0.00    +0.000 C 
ENDBRANCH  25  27
ENDBRANCH   3  25
BRANCH  15  29
ATOM     29  C   UNL     1      32.430 -15.041  40.393  0.00  0.00    +0.000 C 
BRANCH  29  30
ATOM     30  O   UNL     1      31.982 -15.722  41.552  0.00  0.00    +0.000 OA
ATOM     31  H   UNL     1      31.731 -15.039  42.199  0.00  0.00    +0.000 HD
ENDBRANCH  29  30
ENDBRANCH  15  29
BRANCH   6  32
ATOM     32  O   UNL     1      35.804  -9.420  43.089  0.00  0.00    +0.000 OA
BRANCH  32  34
ATOM     33  O   UNL     1      37.975  -8.894  43.202  0.00  0.00    +0.000 OA
ATOM     34  C   UNL     1      36.804  -8.541  43.325  0.00  0.00    +0.000 C 
BRANCH  34  35
ATOM     35  C   UNL     1      36.467  -7.130  43.738  0.00  0.00    +0.000 C 
BRANCH  35  36
ATOM     36  C   UNL     1      37.079  -6.776  45.088  0.00  0.00    +0.000 C 
BRANCH  36  37
ATOM     37  C   UNL     1      36.108  -6.896  46.268  0.00  0.00    +0.000 C 
BRANCH  37  38
ATOM     38  C   UNL     1      35.949  -5.611  47.091  0.00  0.00    +0.000 C 
BRANCH  38  39
ATOM     39  C   UNL     1      36.619  -4.403  46.427  0.00  0.00    +0.000 C 
BRANCH  39  40
ATOM     40  C   UNL     1      35.639  -3.495  45.679  0.00  0.00    +0.000 C 
BRANCH  40  41
ATOM     41  C   UNL     1      36.332  -2.533  44.711  0.00  0.00    +0.000 C 
BRANCH  41  42
ATOM     42  C   UNL     1      36.095  -2.880  43.238  0.00  0.00    +0.000 C 
BRANCH  42  43
ATOM     43  C   UNL     1      34.950  -3.859  42.960  0.00  0.00    +0.000 C 
BRANCH  43  44
ATOM     44  C   UNL     1      33.634  -3.223  42.502  0.00  0.00    +0.000 C 
BRANCH  44  45
ATOM     45  C   UNL     1      33.275  -3.433  41.028  0.00  0.00    +0.000 C 
BRANCH  45  46
ATOM     46  C   UNL     1      34.411  -3.931  40.131  0.00  0.00    +0.000 C 
ATOM     47  C   UNL     1      35.087  -2.823  39.339  0.00  0.00    +0.000 C 
ENDBRANCH  45  46
ENDBRANCH  44  45
ENDBRANCH  43  44
ENDBRANCH  42  43
ENDBRANCH  41  42
ENDBRANCH  40  41
ENDBRANCH  39  40
ENDBRANCH  38  39
ENDBRANCH  37  38
ENDBRANCH  36  37
ENDBRANCH  35  36
ENDBRANCH  34  35
ENDBRANCH  32  34
ENDBRANCH   6  32
TORSDOF 20
ENDMDL
MODEL 4
REMARK VINA RESULT:      -4.6     43.840     47.649
REMARK  Name = 27924_Phorbol.pdbqt.pdb
REMARK  26 active torsions:
REMARK  status: ('A' for Active; 'I' for Inactive)
REMARK    1  A    between atoms: O_1  and  C_10
REMARK    2  A    between atoms: O_1  and  C_26
REMARK    3  A    between atoms: O_2  and  C_13
REMARK    4  A    between atoms: O_2  and  C_28
REMARK    5  A    between atoms: O_3  and  C_14
REMARK    6  A    between atoms: O_4  and  C_20
REMARK    7  A    between atoms: O_7  and  C_29
REMARK    8  A    between atoms: C_11  and  C_16
REMARK    9  A    between atoms: C_11  and  C_17
REMARK   10  A    between atoms: C_15  and  C_21
REMARK   11  A    between atoms: C_22  and  C_29
REMARK   12  A    between atoms: C_26  and  C_30
REMARK   13  A    between atoms: C_27  and  C_31
REMARK   14  A    between atoms: C_28  and  C_32
REMARK   15  A    between atoms: C_32  and  C_33
REMARK   16  A    between atoms: C_33  and  C_34
REMARK   17  A    between atoms: C_34  and  C_35
REMARK   18  A    between atoms: C_35  and  C_36
REMARK   19  A    between atoms: C_36  and  C_37
REMARK   20  A    between atoms: C_37  and  C_38
REMARK   21  A    between atoms: C_38  and  C_39
REMARK   22  A    between atoms: C_39  and  C_40
REMARK   23  A    between atoms: C_40  and  C_41
REMARK   24  A    between atoms: C_41  and  C_42
REMARK   25  A    between atoms: C_42  and  C_43
REMARK   26  A    between atoms: C_43  and  C_44
REMARK                            x       y       z     vdW  Elec       q    Type
REMARK                         _______ _______ _______ _____ _____    ______ ____
ROOT
ATOM      1  O   UNL     1      35.514 -18.469  -9.921  0.00  0.00    +0.000 OA
ATOM      2  C   UNL     1      37.473 -14.532  -4.351  0.00  0.00    +0.000 C 
ATOM      3  C   UNL     1      38.744 -13.706  -4.420  0.00  0.00    +0.000 C 
ATOM      4  C   UNL     1      38.673 -14.992  -3.548  0.00  0.00    +0.000 C 
ATOM      5  C   UNL     1      36.852 -15.091  -5.596  0.00  0.00    +0.000 C 
ATOM      6  C   UNL     1      39.456 -13.627  -5.783  0.00  0.00    +0.000 C 
ATOM      7  C   UNL     1      37.740 -15.149  -6.922  0.00  0.00    +0.000 C 
ATOM      8  C   UNL     1      38.438 -13.732  -6.972  0.00  0.00    +0.000 C 
ATOM      9  C   UNL     1      38.498 -14.874  -2.043  0.00  0.00    +0.000 C 
ATOM     10  C   UNL     1      39.418 -16.252  -3.915  0.00  0.00    +0.000 C 
ATOM     11  C   UNL     1      36.800 -15.593  -8.155  0.00  0.00    +0.000 C 
ATOM     12  C   UNL     1      36.052 -16.358  -5.355  0.00  0.00    +0.000 C 
ATOM     13  C   UNL     1      36.218 -17.073  -8.058  0.00  0.00    +0.000 C 
ATOM     14  C   UNL     1      39.122 -13.370  -8.290  0.00  0.00    +0.000 C 
ATOM     15  C   UNL     1      34.872 -16.451  -6.007  0.00  0.00    +0.000 C 
ATOM     16  C   UNL     1      34.880 -17.240  -7.305  0.00  0.00    +0.000 C 
ATOM     17  C   UNL     1      37.372 -15.628  -9.566  0.00  0.00    +0.000 C 
ATOM     18  C   UNL     1      36.106 -17.481  -9.511  0.00  0.00    +0.000 C 
ATOM     19  C   UNL     1      36.944 -16.622 -10.355  0.00  0.00    +0.000 C 
ATOM     20  C   UNL     1      37.215 -16.909 -11.779  0.00  0.00    +0.000 C 
ENDROOT
BRANCH   7  21
ATOM     21  O   UNL     1      38.798 -16.111  -6.822  0.00  0.00    +0.000 OA
ATOM     22  H   UNL     1      38.676 -16.770  -7.542  0.00  0.00    +0.000 HD
ENDBRANCH   7  21
BRANCH  13  23
ATOM     23  O   UNL     1      37.200 -17.995  -7.526  0.00  0.00    +0.000 OA
ATOM     24  H   UNL     1      37.946 -17.444  -7.210  0.00  0.00    +0.000 HD
ENDBRANCH  13  23
BRANCH   3  25
ATOM     25  O   UNL     1      38.525 -12.420  -3.785  0.00  0.00    +0.000 OA
BRANCH  25  27
ATOM     26  O   UNL     1      36.632 -11.706  -2.811  0.00  0.00    +0.000 OA
ATOM     27  C   UNL     1      37.354 -11.733  -3.805  0.00  0.00    +0.000 C 
ATOM     28  C   UNL     1      37.002 -10.943  -5.030  0.00  0.00    +0.000 C 
ENDBRANCH  25  27
ENDBRANCH   3  25
BRANCH  15  29
ATOM     29  C   UNL     1      33.774 -15.428  -5.887  0.00  0.00    +0.000 C 
BRANCH  29  30
ATOM     30  O   UNL     1      33.459 -15.274  -4.513  0.00  0.00    +0.000 OA
ATOM     31  H   UNL     1      34.294 -15.378  -4.022  0.00  0.00    +0.000 HD
ENDBRANCH  29  30
ENDBRANCH  15  29
BRANCH   6  32
ATOM     32  O   UNL     1      40.161 -12.357  -5.845  0.00  0.00    +0.000 OA
BRANCH  32  34
ATOM     33  O   UNL     1      42.033 -11.153  -6.072  0.00  0.00    +0.000 OA
ATOM     34  C   UNL     1      41.494 -12.189  -5.689  0.00  0.00    +0.000 C 
BRANCH  34  35
ATOM     35  C   UNL     1      42.307 -13.283  -5.041  0.00  0.00    +0.000 C 
BRANCH  35  36
ATOM     36  C   UNL     1      42.198 -13.241  -3.522  0.00  0.00    +0.000 C 
BRANCH  36  37
ATOM     37  C   UNL     1      43.231 -14.108  -2.794  0.00  0.00    +0.000 C 
BRANCH  37  38
ATOM     38  C   UNL     1      42.928 -14.344  -1.308  0.00  0.00    +0.000 C 
BRANCH  38  39
ATOM     39  C   UNL     1      41.970 -15.518  -1.085  0.00  0.00    +0.000 C 
BRANCH  39  40
ATOM     40  C   UNL     1      42.597 -16.883  -1.380  0.00  0.00    +0.000 C 
BRANCH  40  41
ATOM     41  C   UNL     1      41.571 -18.019  -1.417  0.00  0.00    +0.000 C 
BRANCH  41  42
ATOM     42  C   UNL     1      42.185 -19.380  -1.758  0.00  0.00    +0.000 C 
BRANCH  42  43
ATOM     43  C   UNL     1      41.650 -20.054  -3.025  0.00  0.00    +0.000 C 
BRANCH  43  44
ATOM     44  C   UNL     1      42.706 -20.438  -4.066  0.00  0.00    +0.000 C 
BRANCH  44  45
ATOM     45  C   UNL     1      42.665 -19.643  -5.374  0.00  0.00    +0.000 C 
BRANCH  45  46
ATOM     46  C   UNL     1      42.146 -18.208  -5.265  0.00  0.00    +0.000 C 
ATOM     47  C   UNL     1      43.226 -17.198  -4.911  0.00  0.00    +0.000 C 
ENDBRANCH  45  46
ENDBRANCH  44  45
ENDBRANCH  43  44
ENDBRANCH  42  43
ENDBRANCH  41  42
ENDBRANCH  40  41
ENDBRANCH  39  40
ENDBRANCH  38  39
ENDBRANCH  37  38
ENDBRANCH  36  37
ENDBRANCH  35  36
ENDBRANCH  34  35
ENDBRANCH  32  34
ENDBRANCH   6  32
TORSDOF 20
ENDMDL
MODEL 5
REMARK VINA RESULT:      -4.6     41.574     46.640
REMARK  Name = 27924_Phorbol.pdbqt.pdb
REMARK  26 active torsions:
REMARK  status: ('A' for Active; 'I' for Inactive)
REMARK    1  A    between atoms: O_1  and  C_10
REMARK    2  A    between atoms: O_1  and  C_26
REMARK    3  A    between atoms: O_2  and  C_13
REMARK    4  A    between atoms: O_2  and  C_28
REMARK    5  A    between atoms: O_3  and  C_14
REMARK    6  A    between atoms: O_4  and  C_20
REMARK    7  A    between atoms: O_7  and  C_29
REMARK    8  A    between atoms: C_11  and  C_16
REMARK    9  A    between atoms: C_11  and  C_17
REMARK   10  A    between atoms: C_15  and  C_21
REMARK   11  A    between atoms: C_22  and  C_29
REMARK   12  A    between atoms: C_26  and  C_30
REMARK   13  A    between atoms: C_27  and  C_31
REMARK   14  A    between atoms: C_28  and  C_32
REMARK   15  A    between atoms: C_32  and  C_33
REMARK   16  A    between atoms: C_33  and  C_34
REMARK   17  A    between atoms: C_34  and  C_35
REMARK   18  A    between atoms: C_35  and  C_36
REMARK   19  A    between atoms: C_36  and  C_37
REMARK   20  A    between atoms: C_37  and  C_38
REMARK   21  A    between atoms: C_38  and  C_39
REMARK   22  A    between atoms: C_39  and  C_40
REMARK   23  A    between atoms: C_40  and  C_41
REMARK   24  A    between atoms: C_41  and  C_42
REMARK   25  A    between atoms: C_42  and  C_43
REMARK   26  A    between atoms: C_43  and  C_44
REMARK                            x       y       z     vdW  Elec       q    Type
REMARK                         _______ _______ _______ _____ _____    ______ ____
ROOT
ATOM      1  O   UNL     1      49.312 -29.982  -2.665  0.00  0.00    +0.000 OA
ATOM      2  C   UNL     1      46.464 -28.121   3.563  0.00  0.00    +0.000 C 
ATOM      3  C   UNL     1      45.074 -28.605   3.932  0.00  0.00    +0.000 C 
ATOM      4  C   UNL     1      45.327 -27.118   3.548  0.00  0.00    +0.000 C 
ATOM      5  C   UNL     1      47.226 -28.757   2.439  0.00  0.00    +0.000 C 
ATOM      6  C   UNL     1      44.419 -29.638   2.997  0.00  0.00    +0.000 C 
ATOM      7  C   UNL     1      46.420 -29.660   1.397  0.00  0.00    +0.000 C 
ATOM      8  C   UNL     1      45.492 -30.555   2.311  0.00  0.00    +0.000 C 
ATOM      9  C   UNL     1      45.412 -26.062   4.637  0.00  0.00    +0.000 C 
ATOM     10  C   UNL     1      44.826 -26.529   2.253  0.00  0.00    +0.000 C 
ATOM     11  C   UNL     1      47.475 -30.387   0.418  0.00  0.00    +0.000 C 
ATOM     12  C   UNL     1      48.220 -27.822   1.778  0.00  0.00    +0.000 C 
ATOM     13  C   UNL     1      48.298 -29.406  -0.530  0.00  0.00    +0.000 C 
ATOM     14  C   UNL     1      44.814 -31.738   1.620  0.00  0.00    +0.000 C 
ATOM     15  C   UNL     1      49.425 -28.350   1.474  0.00  0.00    +0.000 C 
ATOM     16  C   UNL     1      49.610 -28.831   0.045  0.00  0.00    +0.000 C 
ATOM     17  C   UNL     1      46.980 -31.395  -0.611  0.00  0.00    +0.000 C 
ATOM     18  C   UNL     1      48.542 -30.259  -1.757  0.00  0.00    +0.000 C 
ATOM     19  C   UNL     1      47.607 -31.388  -1.795  0.00  0.00    +0.000 C 
ATOM     20  C   UNL     1      47.452 -32.268  -2.973  0.00  0.00    +0.000 C 
ENDROOT
BRANCH   7  21
ATOM     21  O   UNL     1      45.539 -28.882   0.576  0.00  0.00    +0.000 OA
ATOM     22  H   UNL     1      46.087 -28.251   0.060  0.00  0.00    +0.000 HD
ENDBRANCH   7  21
BRANCH  13  23
ATOM     23  O   UNL     1      47.466 -28.331  -1.030  0.00  0.00    +0.000 OA
ATOM     24  H   UNL     1      47.358 -27.703  -0.285  0.00  0.00    +0.000 HD
ENDBRANCH  13  23
BRANCH   3  25
ATOM     25  O   UNL     1      45.041 -28.966   5.338  0.00  0.00    +0.000 OA
BRANCH  25  27
ATOM     26  O   UNL     1      46.410 -30.714   5.675  0.00  0.00    +0.000 OA
ATOM     27  C   UNL     1      46.048 -29.586   6.004  0.00  0.00    +0.000 C 
ATOM     28  C   UNL     1      46.761 -28.840   7.091  0.00  0.00    +0.000 C 
ENDBRANCH  25  27
ENDBRANCH   3  25
BRANCH  15  29
ATOM     29  C   UNL     1      50.326 -29.003   2.489  0.00  0.00    +0.000 C 
BRANCH  29  30
ATOM     30  O   UNL     1      50.715 -28.021   3.434  0.00  0.00    +0.000 OA
ATOM     31  H   UNL     1      50.375 -28.314   4.298  0.00  0.00    +0.000 HD
ENDBRANCH  29  30
ENDBRANCH  15  29
BRANCH   6  32
ATOM     32  O   UNL     1      43.510 -30.447   3.792  0.00  0.00    +0.000 OA
BRANCH  32  34
ATOM     33  O   UNL     1      41.545 -31.479   3.518  0.00  0.00    +0.000 OA
ATOM     34  C   UNL     1      42.161 -30.432   3.702  0.00  0.00    +0.000 C 
BRANCH  34  35
ATOM     35  C   UNL     1      41.425 -29.121   3.829  0.00  0.00    +0.000 C 
BRANCH  35  36
ATOM     36  C   UNL     1      40.717 -28.744   2.533  0.00  0.00    +0.000 C 
BRANCH  36  37
ATOM     37  C   UNL     1      41.532 -27.826   1.616  0.00  0.00    +0.000 C 
BRANCH  37  38
ATOM     38  C   UNL     1      42.069 -28.510   0.351  0.00  0.00    +0.000 C 
BRANCH  38  39
ATOM     39  C   UNL     1      41.962 -27.615  -0.889  0.00  0.00    +0.000 C 
BRANCH  39  40
ATOM     40  C   UNL     1      43.317 -27.281  -1.520  0.00  0.00    +0.000 C 
BRANCH  40  41
ATOM     41  C   UNL     1      43.598 -28.080  -2.796  0.00  0.00    +0.000 C 
BRANCH  41  42
ATOM     42  C   UNL     1      44.513 -29.286  -2.566  0.00  0.00    +0.000 C 
BRANCH  42  43
ATOM     43  C   UNL     1      43.840 -30.659  -2.651  0.00  0.00    +0.000 C 
BRANCH  43  44
ATOM     44  C   UNL     1      42.510 -30.698  -3.410  0.00  0.00    +0.000 C 
BRANCH  44  45
ATOM     45  C   UNL     1      42.472 -31.620  -4.632  0.00  0.00    +0.000 C 
BRANCH  45  46
ATOM     46  C   UNL     1      42.981 -31.011  -5.941  0.00  0.00    +0.000 C 
ATOM     47  C   UNL     1      42.704 -29.521  -6.064  0.00  0.00    +0.000 C 
ENDBRANCH  45  46
ENDBRANCH  44  45
ENDBRANCH  43  44
ENDBRANCH  42  43
ENDBRANCH  41  42
ENDBRANCH  40  41
ENDBRANCH  39  40
ENDBRANCH  38  39
ENDBRANCH  37  38
ENDBRANCH  36  37
ENDBRANCH  35  36
ENDBRANCH  34  35
ENDBRANCH  32  34
ENDBRANCH   6  32
TORSDOF 20
ENDMDL
MODEL 6
REMARK VINA RESULT:      -4.6     36.872     41.510
REMARK  Name = 27924_Phorbol.pdbqt.pdb
REMARK  26 active torsions:
REMARK  status: ('A' for Active; 'I' for Inactive)
REMARK    1  A    between atoms: O_1  and  C_10
REMARK    2  A    between atoms: O_1  and  C_26
REMARK    3  A    between atoms: O_2  and  C_13
REMARK    4  A    between atoms: O_2  and  C_28
REMARK    5  A    between atoms: O_3  and  C_14
REMARK    6  A    between atoms: O_4  and  C_20
REMARK    7  A    between atoms: O_7  and  C_29
REMARK    8  A    between atoms: C_11  and  C_16
REMARK    9  A    between atoms: C_11  and  C_17
REMARK   10  A    between atoms: C_15  and  C_21
REMARK   11  A    between atoms: C_22  and  C_29
REMARK   12  A    between atoms: C_26  and  C_30
REMARK   13  A    between atoms: C_27  and  C_31
REMARK   14  A    between atoms: C_28  and  C_32
REMARK   15  A    between atoms: C_32  and  C_33
REMARK   16  A    between atoms: C_33  and  C_34
REMARK   17  A    between atoms: C_34  and  C_35
REMARK   18  A    between atoms: C_35  and  C_36
REMARK   19  A    between atoms: C_36  and  C_37
REMARK   20  A    between atoms: C_37  and  C_38
REMARK   21  A    between atoms: C_38  and  C_39
REMARK   22  A    between atoms: C_39  and  C_40
REMARK   23  A    between atoms: C_40  and  C_41
REMARK   24  A    between atoms: C_41  and  C_42
REMARK   25  A    between atoms: C_42  and  C_43
REMARK   26  A    between atoms: C_43  and  C_44
REMARK                            x       y       z     vdW  Elec       q    Type
REMARK                         _______ _______ _______ _____ _____    ______ ____
ROOT
ATOM      1  O   UNL     1      23.882 -16.458  -0.948  0.00  0.00    +0.000 OA
ATOM      2  C   UNL     1      23.132 -13.107   5.262  0.00  0.00    +0.000 C 
ATOM      3  C   UNL     1      21.952 -12.178   5.481  0.00  0.00    +0.000 C 
ATOM      4  C   UNL     1      23.390 -11.614   5.295  0.00  0.00    +0.000 C 
ATOM      5  C   UNL     1      23.142 -14.080   4.122  0.00  0.00    +0.000 C 
ATOM      6  C   UNL     1      20.868 -12.152   4.389  0.00  0.00    +0.000 C 
ATOM      7  C   UNL     1      22.103 -13.857   2.930  0.00  0.00    +0.000 C 
ATOM      8  C   UNL     1      20.743 -13.540   3.668  0.00  0.00    +0.000 C 
ATOM      9  C   UNL     1      24.178 -11.144   6.506  0.00  0.00    +0.000 C 
ATOM     10  C   UNL     1      23.803 -10.868   4.050  0.00  0.00    +0.000 C 
ATOM     11  C   UNL     1      22.170 -15.128   1.940  0.00  0.00    +0.000 C 
ATOM     12  C   UNL     1      24.537 -14.434   3.642  0.00  0.00    +0.000 C 
ATOM     13  C   UNL     1      23.553 -15.309   1.171  0.00  0.00    +0.000 C 
ATOM     14  C   UNL     1      19.486 -13.575   2.798  0.00  0.00    +0.000 C 
ATOM     15  C   UNL     1      24.758 -15.735   3.355  0.00  0.00    +0.000 C 
ATOM     16  C   UNL     1      24.642 -16.133   1.894  0.00  0.00    +0.000 C 
ATOM     17  C   UNL     1      21.202 -15.224   0.768  0.00  0.00    +0.000 C 
ATOM     18  C   UNL     1      23.126 -15.953  -0.131  0.00  0.00    +0.000 C 
ATOM     19  C   UNL     1      21.693 -15.746  -0.364  0.00  0.00    +0.000 C 
ATOM     20  C   UNL     1      21.030 -16.064  -1.646  0.00  0.00    +0.000 C 
ENDROOT
BRANCH   7  21
ATOM     21  O   UNL     1      22.414 -12.692   2.153  0.00  0.00    +0.000 OA
ATOM     22  H   UNL     1      21.602 -12.428   1.666  0.00  0.00    +0.000 HD
ENDBRANCH   7  21
BRANCH  13  23
ATOM     23  O   UNL     1      24.098 -14.034   0.751  0.00  0.00    +0.000 OA
ATOM     24  H   UNL     1      24.868 -14.243   0.183  0.00  0.00    +0.000 HD
ENDBRANCH  13  23
BRANCH   3  25
ATOM     25  O   UNL     1      21.440 -12.350   6.828  0.00  0.00    +0.000 OA
BRANCH  25  27
ATOM     26  O   UNL     1      20.413 -14.334   7.058  0.00  0.00    +0.000 OA
ATOM     27  C   UNL     1      21.272 -13.545   7.449  0.00  0.00    +0.000 C 
ATOM     28  C   UNL     1      22.204 -13.918   8.562  0.00  0.00    +0.000 C 
ENDBRANCH  25  27
ENDBRANCH   3  25
BRANCH  15  29
ATOM     29  C   UNL     1      24.536 -16.852   4.341  0.00  0.00    +0.000 C 
BRANCH  29  30
ATOM     30  O   UNL     1      25.663 -16.918   5.197  0.00  0.00    +0.000 OA
ATOM     31  H   UNL     1      25.690 -16.078   5.689  0.00  0.00    +0.000 HD
ENDBRANCH  29  30
ENDBRANCH  15  29
BRANCH   6  32
ATOM     32  O   UNL     1      19.605 -11.806   5.021  0.00  0.00    +0.000 OA
BRANCH  32  34
ATOM     33  O   UNL     1      19.273  -9.604   5.220  0.00  0.00    +0.000 OA
ATOM     34  C   UNL     1      18.887 -10.685   4.782  0.00  0.00    +0.000 C 
BRANCH  34  35
ATOM     35  C   UNL     1      17.615 -10.777   3.977  0.00  0.00    +0.000 C 
BRANCH  35  36
ATOM     36  C   UNL     1      17.658  -9.873   2.751  0.00  0.00    +0.000 C 
BRANCH  36  37
ATOM     37  C   UNL     1      18.380 -10.483   1.545  0.00  0.00    +0.000 C 
BRANCH  37  38
ATOM     38  C   UNL     1      19.889 -10.211   1.505  0.00  0.00    +0.000 C 
BRANCH  38  39
ATOM     39  C   UNL     1      20.484 -10.408   0.107  0.00  0.00    +0.000 C 
BRANCH  39  40
ATOM     40  C   UNL     1      20.223 -11.799  -0.478  0.00  0.00    +0.000 C 
BRANCH  40  41
ATOM     41  C   UNL     1      20.174 -11.807  -2.008  0.00  0.00    +0.000 C 
BRANCH  41  42
ATOM     42  C   UNL     1      20.633 -10.488  -2.636  0.00  0.00    +0.000 C 
BRANCH  42  43
ATOM     43  C   UNL     1      19.557  -9.695  -3.383  0.00  0.00    +0.000 C 
BRANCH  43  44
ATOM     44  C   UNL     1      18.236  -9.502  -2.632  0.00  0.00    +0.000 C 
BRANCH  44  45
ATOM     45  C   UNL     1      18.114  -8.203  -1.831  0.00  0.00    +0.000 C 
BRANCH  45  46
ATOM     46  C   UNL     1      19.276  -7.218  -1.979  0.00  0.00    +0.000 C 
ATOM     47  C   UNL     1      19.917  -6.834  -0.654  0.00  0.00    +0.000 C 
ENDBRANCH  45  46
ENDBRANCH  44  45
ENDBRANCH  43  44
ENDBRANCH  42  43
ENDBRANCH  41  42
ENDBRANCH  40  41
ENDBRANCH  39  40
ENDBRANCH  38  39
ENDBRANCH  37  38
ENDBRANCH  36  37
ENDBRANCH  35  36
ENDBRANCH  34  35
ENDBRANCH  32  34
ENDBRANCH   6  32
TORSDOF 20
ENDMDL
MODEL 7
REMARK VINA RESULT:      -4.5      3.845      5.877
REMARK  Name = 27924_Phorbol.pdbqt.pdb
REMARK  26 active torsions:
REMARK  status: ('A' for Active; 'I' for Inactive)
REMARK    1  A    between atoms: O_1  and  C_10
REMARK    2  A    between atoms: O_1  and  C_26
REMARK    3  A    between atoms: O_2  and  C_13
REMARK    4  A    between atoms: O_2  and  C_28
REMARK    5  A    between atoms: O_3  and  C_14
REMARK    6  A    between atoms: O_4  and  C_20
REMARK    7  A    between atoms: O_7  and  C_29
REMARK    8  A    between atoms: C_11  and  C_16
REMARK    9  A    between atoms: C_11  and  C_17
REMARK   10  A    between atoms: C_15  and  C_21
REMARK   11  A    between atoms: C_22  and  C_29
REMARK   12  A    between atoms: C_26  and  C_30
REMARK   13  A    between atoms: C_27  and  C_31
REMARK   14  A    between atoms: C_28  and  C_32
REMARK   15  A    between atoms: C_32  and  C_33
REMARK   16  A    between atoms: C_33  and  C_34
REMARK   17  A    between atoms: C_34  and  C_35
REMARK   18  A    between atoms: C_35  and  C_36
REMARK   19  A    between atoms: C_36  and  C_37
REMARK   20  A    between atoms: C_37  and  C_38
REMARK   21  A    between atoms: C_38  and  C_39
REMARK   22  A    between atoms: C_39  and  C_40
REMARK   23  A    between atoms: C_40  and  C_41
REMARK   24  A    between atoms: C_41  and  C_42
REMARK   25  A    between atoms: C_42  and  C_43
REMARK   26  A    between atoms: C_43  and  C_44
REMARK                            x       y       z     vdW  Elec       q    Type
REMARK                         _______ _______ _______ _____ _____    ______ ____
ROOT
ATOM      1  O   UNL     1      35.774 -14.835  36.504  0.00  0.00    +0.000 OA
ATOM      2  C   UNL     1      34.809 -12.752  43.219  0.00  0.00    +0.000 C 
ATOM      3  C   UNL     1      35.381 -11.427  43.688  0.00  0.00    +0.000 C 
ATOM      4  C   UNL     1      36.009 -12.774  44.145  0.00  0.00    +0.000 C 
ATOM      5  C   UNL     1      34.691 -13.063  41.757  0.00  0.00    +0.000 C 
ATOM      6  C   UNL     1      35.996 -10.509  42.616  0.00  0.00    +0.000 C 
ATOM      7  C   UNL     1      35.526 -12.174  40.726  0.00  0.00    +0.000 C 
ATOM      8  C   UNL     1      35.290 -10.694  41.226  0.00  0.00    +0.000 C 
ATOM      9  C   UNL     1      35.713 -13.311  45.536  0.00  0.00    +0.000 C 
ATOM     10  C   UNL     1      37.360 -13.235  43.657  0.00  0.00    +0.000 C 
ATOM     11  C   UNL     1      35.081 -12.566  39.227  0.00  0.00    +0.000 C 
ATOM     12  C   UNL     1      34.747 -14.548  41.450  0.00  0.00    +0.000 C 
ATOM     13  C   UNL     1      35.446 -14.051  38.784  0.00  0.00    +0.000 C 
ATOM     14  C   UNL     1      35.718  -9.587  40.263  0.00  0.00    +0.000 C 
ATOM     15  C   UNL     1      33.873 -14.999  40.525  0.00  0.00    +0.000 C 
ATOM     16  C   UNL     1      34.403 -15.144  39.109  0.00  0.00    +0.000 C 
ATOM     17  C   UNL     1      35.649 -11.791  38.044  0.00  0.00    +0.000 C 
ATOM     18  C   UNL     1      35.670 -13.908  37.294  0.00  0.00    +0.000 C 
ATOM     19  C   UNL     1      35.912 -12.504  36.941  0.00  0.00    +0.000 C 
ATOM     20  C   UNL     1      36.378 -12.077  35.605  0.00  0.00    +0.000 C 
ENDROOT
BRANCH   7  21
ATOM     21  O   UNL     1      36.937 -12.408  40.830  0.00  0.00    +0.000 OA
ATOM     22  H   UNL     1      37.245 -12.027  41.682  0.00  0.00    +0.000 HD
ENDBRANCH   7  21
BRANCH  13  23
ATOM     23  O   UNL     1      36.747 -14.449  39.281  0.00  0.00    +0.000 OA
ATOM     24  H   UNL     1      37.282 -14.672  38.492  0.00  0.00    +0.000 HD
ENDBRANCH  13  23
BRANCH   3  25
ATOM     25  O   UNL     1      34.430 -10.768  44.564  0.00  0.00    +0.000 OA
BRANCH  25  27
ATOM     26  O   UNL     1      32.571 -11.660  45.454  0.00  0.00    +0.000 OA
ATOM     27  C   UNL     1      33.091 -10.990  44.564  0.00  0.00    +0.000 C 
ATOM     28  C   UNL     1      32.251 -10.335  43.509  0.00  0.00    +0.000 C 
ENDBRANCH  25  27
ENDBRANCH   3  25
BRANCH  15  29
ATOM     29  C   UNL     1      32.382 -14.817  40.633  0.00  0.00    +0.000 C 
BRANCH  29  30
ATOM     30  O   UNL     1      31.957 -15.362  41.870  0.00  0.00    +0.000 OA
ATOM     31  H   UNL     1      32.490 -14.933  42.563  0.00  0.00    +0.000 HD
ENDBRANCH  29  30
ENDBRANCH  15  29
BRANCH   6  32
ATOM     32  O   UNL     1      35.849  -9.134  43.067  0.00  0.00    +0.000 OA
BRANCH  32  34
ATOM     33  O   UNL     1      37.961  -8.835  43.741  0.00  0.00    +0.000 OA
ATOM     34  C   UNL     1      36.820  -8.388  43.642  0.00  0.00    +0.000 C 
BRANCH  34  35
ATOM     35  C   UNL     1      36.488  -7.010  44.156  0.00  0.00    +0.000 C 
BRANCH  35  36
ATOM     36  C   UNL     1      36.255  -7.011  45.662  0.00  0.00    +0.000 C 
BRANCH  36  37
ATOM     37  C   UNL     1      34.883  -7.548  46.085  0.00  0.00    +0.000 C 
BRANCH  37  38
ATOM     38  C   UNL     1      34.757  -7.859  47.582  0.00  0.00    +0.000 C 
BRANCH  38  39
ATOM     39  C   UNL     1      35.946  -7.332  48.392  0.00  0.00    +0.000 C 
BRANCH  39  40
ATOM     40  C   UNL     1      35.622  -6.077  49.208  0.00  0.00    +0.000 C 
BRANCH  40  41
ATOM     41  C   UNL     1      36.821  -5.138  49.365  0.00  0.00    +0.000 C 
BRANCH  41  42
ATOM     42  C   UNL     1      36.826  -4.380  50.696  0.00  0.00    +0.000 C 
BRANCH  42  43
ATOM     43  C   UNL     1      35.733  -4.777  51.693  0.00  0.00    +0.000 C 
BRANCH  43  44
ATOM     44  C   UNL     1      36.124  -5.858  52.706  0.00  0.00    +0.000 C 
BRANCH  44  45
ATOM     45  C   UNL     1      36.387  -5.365  54.132  0.00  0.00    +0.000 C 
BRANCH  45  46
ATOM     46  C   UNL     1      36.620  -3.860  54.283  0.00  0.00    +0.000 C 
ATOM     47  C   UNL     1      38.090  -3.476  54.323  0.00  0.00    +0.000 C 
ENDBRANCH  45  46
ENDBRANCH  44  45
ENDBRANCH  43  44
ENDBRANCH  42  43
ENDBRANCH  41  42
ENDBRANCH  40  41
ENDBRANCH  39  40
ENDBRANCH  38  39
ENDBRANCH  37  38
ENDBRANCH  36  37
ENDBRANCH  35  36
ENDBRANCH  34  35
ENDBRANCH  32  34
ENDBRANCH   6  32
TORSDOF 20
ENDMDL
MODEL 8
REMARK VINA RESULT:      -4.4     39.006     42.098
REMARK  Name = 27924_Phorbol.pdbqt.pdb
REMARK  26 active torsions:
REMARK  status: ('A' for Active; 'I' for Inactive)
REMARK    1  A    between atoms: O_1  and  C_10
REMARK    2  A    between atoms: O_1  and  C_26
REMARK    3  A    between atoms: O_2  and  C_13
REMARK    4  A    between atoms: O_2  and  C_28
REMARK    5  A    between atoms: O_3  and  C_14
REMARK    6  A    between atoms: O_4  and  C_20
REMARK    7  A    between atoms: O_7  and  C_29
REMARK    8  A    between atoms: C_11  and  C_16
REMARK    9  A    between atoms: C_11  and  C_17
REMARK   10  A    between atoms: C_15  and  C_21
REMARK   11  A    between atoms: C_22  and  C_29
REMARK   12  A    between atoms: C_26  and  C_30
REMARK   13  A    between atoms: C_27  and  C_31
REMARK   14  A    between atoms: C_28  and  C_32
REMARK   15  A    between atoms: C_32  and  C_33
REMARK   16  A    between atoms: C_33  and  C_34
REMARK   17  A    between atoms: C_34  and  C_35
REMARK   18  A    between atoms: C_35  and  C_36
REMARK   19  A    between atoms: C_36  and  C_37
REMARK   20  A    between atoms: C_37  and  C_38
REMARK   21  A    between atoms: C_38  and  C_39
REMARK   22  A    between atoms: C_39  and  C_40
REMARK   23  A    between atoms: C_40  and  C_41
REMARK   24  A    between atoms: C_41  and  C_42
REMARK   25  A    between atoms: C_42  and  C_43
REMARK   26  A    between atoms: C_43  and  C_44
REMARK                            x       y       z     vdW  Elec       q    Type
REMARK                         _______ _______ _______ _____ _____    ______ ____
ROOT
ATOM      1  O   UNL     1      67.254  19.496  37.047  0.00  0.00    +0.000 OA
ATOM      2  C   UNL     1      61.473  20.639  41.001  0.00  0.00    +0.000 C 
ATOM      3  C   UNL     1      61.393  21.870  41.884  0.00  0.00    +0.000 C 
ATOM      4  C   UNL     1      61.595  20.456  42.501  0.00  0.00    +0.000 C 
ATOM      5  C   UNL     1      62.499  20.539  39.913  0.00  0.00    +0.000 C 
ATOM      6  C   UNL     1      62.515  22.914  41.735  0.00  0.00    +0.000 C 
ATOM      7  C   UNL     1      63.741  21.543  39.952  0.00  0.00    +0.000 C 
ATOM      8  C   UNL     1      63.083  22.944  40.273  0.00  0.00    +0.000 C 
ATOM      9  C   UNL     1      60.419  19.738  43.140  0.00  0.00    +0.000 C 
ATOM     10  C   UNL     1      62.901  20.035  43.129  0.00  0.00    +0.000 C 
ATOM     11  C   UNL     1      64.582  21.377  38.587  0.00  0.00    +0.000 C 
ATOM     12  C   UNL     1      62.894  19.111  39.585  0.00  0.00    +0.000 C 
ATOM     13  C   UNL     1      65.284  19.959  38.398  0.00  0.00    +0.000 C 
ATOM     14  C   UNL     1      63.983  24.164  40.078  0.00  0.00    +0.000 C 
ATOM     15  C   UNL     1      63.030  18.816  38.274  0.00  0.00    +0.000 C 
ATOM     16  C   UNL     1      64.442  18.858  37.716  0.00  0.00    +0.000 C 
ATOM     17  C   UNL     1      65.767  22.295  38.313  0.00  0.00    +0.000 C 
ATOM     18  C   UNL     1      66.520  20.305  37.596  0.00  0.00    +0.000 C 
ATOM     19  C   UNL     1      66.819  21.738  37.700  0.00  0.00    +0.000 C 
ATOM     20  C   UNL     1      68.079  22.336  37.211  0.00  0.00    +0.000 C 
ENDROOT
BRANCH   7  21
ATOM     21  O   UNL     1      64.630  21.261  41.040  0.00  0.00    +0.000 OA
ATOM     22  H   UNL     1      64.847  20.303  41.012  0.00  0.00    +0.000 HD
ENDBRANCH   7  21
BRANCH  13  23
ATOM     23  O   UNL     1      65.823  19.463  39.647  0.00  0.00    +0.000 OA
ATOM     24  H   UNL     1      65.838  18.487  39.568  0.00  0.00    +0.000 HD
ENDBRANCH  13  23
BRANCH   3  25
ATOM     25  O   UNL     1      60.052  22.423  41.831  0.00  0.00    +0.000 OA
BRANCH  25  27
ATOM     26  O   UNL     1      58.204  21.724  40.764  0.00  0.00    +0.000 OA
ATOM     27  C   UNL     1      59.240  22.386  40.745  0.00  0.00    +0.000 C 
ATOM     28  C   UNL     1      59.586  23.232  39.556  0.00  0.00    +0.000 C 
ENDBRANCH  25  27
ENDBRANCH   3  25
BRANCH  15  29
ATOM     29  C   UNL     1      61.936  19.018  37.259  0.00  0.00    +0.000 C 
BRANCH  29  30
ATOM     30  O   UNL     1      62.532  19.113  35.977  0.00  0.00    +0.000 OA
ATOM     31  H   UNL     1      61.936  18.657  35.356  0.00  0.00    +0.000 HD
ENDBRANCH  29  30
ENDBRANCH  15  29
BRANCH   6  32
ATOM     32  O   UNL     1      61.964  24.215  42.079  0.00  0.00    +0.000 OA
BRANCH  32  34
ATOM     33  O   UNL     1      63.099  24.759  43.927  0.00  0.00    +0.000 OA
ATOM     34  C   UNL     1      62.050  24.809  43.290  0.00  0.00    +0.000 C 
BRANCH  34  35
ATOM     35  C   UNL     1      60.848  25.531  43.848  0.00  0.00    +0.000 C 
BRANCH  35  36
ATOM     36  C   UNL     1      60.753  26.958  43.319  0.00  0.00    +0.000 C 
BRANCH  36  37
ATOM     37  C   UNL     1      59.319  27.485  43.190  0.00  0.00    +0.000 C 
BRANCH  37  38
ATOM     38  C   UNL     1      58.859  27.725  41.746  0.00  0.00    +0.000 C 
BRANCH  38  39
ATOM     39  C   UNL     1      58.706  26.421  40.956  0.00  0.00    +0.000 C 
BRANCH  39  40
ATOM     40  C   UNL     1      57.418  25.657  41.280  0.00  0.00    +0.000 C 
BRANCH  40  41
ATOM     41  C   UNL     1      56.387  25.713  40.150  0.00  0.00    +0.000 C 
BRANCH  41  42
ATOM     42  C   UNL     1      57.016  25.710  38.755  0.00  0.00    +0.000 C 
BRANCH  42  43
ATOM     43  C   UNL     1      56.605  26.864  37.835  0.00  0.00    +0.000 C 
BRANCH  43  44
ATOM     44  C   UNL     1      56.788  28.269  38.415  0.00  0.00    +0.000 C 
BRANCH  44  45
ATOM     45  C   UNL     1      58.082  28.985  38.018  0.00  0.00    +0.000 C 
BRANCH  45  46
ATOM     46  C   UNL     1      57.908  30.329  37.306  0.00  0.00    +0.000 C 
ATOM     47  C   UNL     1      56.843  30.305  36.221  0.00  0.00    +0.000 C 
ENDBRANCH  45  46
ENDBRANCH  44  45
ENDBRANCH  43  44
ENDBRANCH  42  43
ENDBRANCH  41  42
ENDBRANCH  40  41
ENDBRANCH  39  40
ENDBRANCH  38  39
ENDBRANCH  37  38
ENDBRANCH  36  37
ENDBRANCH  35  36
ENDBRANCH  34  35
ENDBRANCH  32  34
ENDBRANCH   6  32
TORSDOF 20
ENDMDL
MODEL 9
REMARK VINA RESULT:      -4.3     41.286     45.749
REMARK  Name = 27924_Phorbol.pdbqt.pdb
REMARK  26 active torsions:
REMARK  status: ('A' for Active; 'I' for Inactive)
REMARK    1  A    between atoms: O_1  and  C_10
REMARK    2  A    between atoms: O_1  and  C_26
REMARK    3  A    between atoms: O_2  and  C_13
REMARK    4  A    between atoms: O_2  and  C_28
REMARK    5  A    between atoms: O_3  and  C_14
REMARK    6  A    between atoms: O_4  and  C_20
REMARK    7  A    between atoms: O_7  and  C_29
REMARK    8  A    between atoms: C_11  and  C_16
REMARK    9  A    between atoms: C_11  and  C_17
REMARK   10  A    between atoms: C_15  and  C_21
REMARK   11  A    between atoms: C_22  and  C_29
REMARK   12  A    between atoms: C_26  and  C_30
REMARK   13  A    between atoms: C_27  and  C_31
REMARK   14  A    between atoms: C_28  and  C_32
REMARK   15  A    between atoms: C_32  and  C_33
REMARK   16  A    between atoms: C_33  and  C_34
REMARK   17  A    between atoms: C_34  and  C_35
REMARK   18  A    between atoms: C_35  and  C_36
REMARK   19  A    between atoms: C_36  and  C_37
REMARK   20  A    between atoms: C_37  and  C_38
REMARK   21  A    between atoms: C_38  and  C_39
REMARK   22  A    between atoms: C_39  and  C_40
REMARK   23  A    between atoms: C_40  and  C_41
REMARK   24  A    between atoms: C_41  and  C_42
REMARK   25  A    between atoms: C_42  and  C_43
REMARK   26  A    between atoms: C_43  and  C_44
REMARK                            x       y       z     vdW  Elec       q    Type
REMARK                         _______ _______ _______ _____ _____    ______ ____
ROOT
ATOM      1  O   UNL     1      43.265 -27.830  -3.811  0.00  0.00    +0.000 OA
ATOM      2  C   UNL     1      42.267 -28.503   3.183  0.00  0.00    +0.000 C 
ATOM      3  C   UNL     1      41.095 -29.313   3.703  0.00  0.00    +0.000 C 
ATOM      4  C   UNL     1      41.100 -27.761   3.804  0.00  0.00    +0.000 C 
ATOM      5  C   UNL     1      42.708 -28.619   1.754  0.00  0.00    +0.000 C 
ATOM      6  C   UNL     1      40.277 -30.108   2.669  0.00  0.00    +0.000 C 
ATOM      7  C   UNL     1      41.703 -29.286   0.707  0.00  0.00    +0.000 C 
ATOM      8  C   UNL     1      41.166 -30.566   1.460  0.00  0.00    +0.000 C 
ATOM      9  C   UNL     1      41.421 -27.093   5.130  0.00  0.00    +0.000 C 
ATOM     10  C   UNL     1      40.189 -26.901   2.964  0.00  0.00    +0.000 C 
ATOM     11  C   UNL     1      42.473 -29.478  -0.697  0.00  0.00    +0.000 C 
ATOM     12  C   UNL     1      43.380 -27.365   1.225  0.00  0.00    +0.000 C 
ATOM     13  C   UNL     1      42.892 -28.125  -1.426  0.00  0.00    +0.000 C 
ATOM     14  C   UNL     1      40.411 -31.580   0.601  0.00  0.00    +0.000 C 
ATOM     15  C   UNL     1      44.478 -27.554   0.462  0.00  0.00    +0.000 C 
ATOM     16  C   UNL     1      44.266 -27.532  -1.042  0.00  0.00    +0.000 C 
ATOM     17  C   UNL     1      41.776 -30.192  -1.848  0.00  0.00    +0.000 C 
ATOM     18  C   UNL     1      42.827 -28.503  -2.890  0.00  0.00    +0.000 C 
ATOM     19  C   UNL     1      42.018 -29.713  -3.075  0.00  0.00    +0.000 C 
ATOM     20  C   UNL     1      41.590 -30.201  -4.403  0.00  0.00    +0.000 C 
ENDROOT
BRANCH   7  21
ATOM     21  O   UNL     1      40.557 -28.461   0.457  0.00  0.00    +0.000 OA
ATOM     22  H   UNL     1      40.693 -27.607   0.924  0.00  0.00    +0.000 HD
ENDBRANCH   7  21
BRANCH  13  23
ATOM     23  O   UNL     1      41.865 -27.112  -1.295  0.00  0.00    +0.000 OA
ATOM     24  H   UNL     1      42.336 -26.266  -1.148  0.00  0.00    +0.000 HD
ENDBRANCH  13  23
BRANCH   3  25
ATOM     25  O   UNL     1      41.513 -30.088   4.857  0.00  0.00    +0.000 OA
BRANCH  25  27
ATOM     26  O   UNL     1      43.539 -30.099   5.826  0.00  0.00    +0.000 OA
ATOM     27  C   UNL     1      42.752 -30.613   5.033  0.00  0.00    +0.000 C 
ATOM     28  C   UNL     1      43.112 -31.874   4.308  0.00  0.00    +0.000 C 
ENDBRANCH  25  27
ENDBRANCH   3  25
BRANCH  15  29
ATOM     29  C   UNL     1      45.690 -28.318   0.925  0.00  0.00    +0.000 C 
BRANCH  29  30
ATOM     30  O   UNL     1      46.427 -27.487   1.807  0.00  0.00    +0.000 OA
ATOM     31  H   UNL     1      45.907 -26.672   1.923  0.00  0.00    +0.000 HD
ENDBRANCH  29  30
ENDBRANCH  15  29
BRANCH   6  32
ATOM     32  O   UNL     1      39.716 -31.269   3.340  0.00  0.00    +0.000 OA
BRANCH  32  34
ATOM     33  O   UNL     1      37.690 -30.659   4.065  0.00  0.00    +0.000 OA
ATOM     34  C   UNL     1      38.398 -31.508   3.528  0.00  0.00    +0.000 C 
BRANCH  34  35
ATOM     35  C   UNL     1      37.810 -32.820   3.073  0.00  0.00    +0.000 C 
BRANCH  35  36
ATOM     36  C   UNL     1      36.288 -32.765   3.011  0.00  0.00    +0.000 C 
BRANCH  36  37
ATOM     37  C   UNL     1      35.710 -32.958   1.604  0.00  0.00    +0.000 C 
BRANCH  37  38
ATOM     38  C   UNL     1      36.714 -33.490   0.574  0.00  0.00    +0.000 C 
BRANCH  38  39
ATOM     39  C   UNL     1      37.011 -32.475  -0.535  0.00  0.00    +0.000 C 
BRANCH  39  40
ATOM     40  C   UNL     1      35.759 -31.994  -1.275  0.00  0.00    +0.000 C 
BRANCH  40  41
ATOM     41  C   UNL     1      35.573 -30.476  -1.216  0.00  0.00    +0.000 C 
BRANCH  41  42
ATOM     42  C   UNL     1      34.523 -30.033  -0.194  0.00  0.00    +0.000 C 
BRANCH  42  43
ATOM     43  C   UNL     1      35.065 -29.350   1.065  0.00  0.00    +0.000 C 
BRANCH  43  44
ATOM     44  C   UNL     1      36.586 -29.183   1.124  0.00  0.00    +0.000 C 
BRANCH  44  45
ATOM     45  C   UNL     1      37.097 -27.741   1.051  0.00  0.00    +0.000 C 
BRANCH  45  46
ATOM     46  C   UNL     1      36.163 -26.737   0.372  0.00  0.00    +0.000 C 
ATOM     47  C   UNL     1      36.542 -26.437  -1.070  0.00  0.00    +0.000 C 
ENDBRANCH  45  46
ENDBRANCH  44  45
ENDBRANCH  43  44
ENDBRANCH  42  43
ENDBRANCH  41  42
ENDBRANCH  40  41
ENDBRANCH  39  40
ENDBRANCH  38  39
ENDBRANCH  37  38
ENDBRANCH  36  37
ENDBRANCH  35  36
ENDBRANCH  34  35
ENDBRANCH  32  34
ENDBRANCH   6  32
TORSDOF 20
ENDMDL
