MODEL 1
REMARK VINA RESULT:      -4.3      0.000      0.000
REMARK  Name = 2Methylcholine.pdbqt.pdb
REMARK  3 active torsions:
REMARK  status: ('A' for Active; 'I' for Inactive)
REMARK    1  A    between atoms: C_1  and  N_2
REMARK    2  A    between atoms: C_1  and  C_6
REMARK    3  A    between atoms: C_6  and  O_8
REMARK                            x       y       z     vdW  Elec       q    Type
REMARK                         _______ _______ _______ _____ _____    ______ ____
ROOT
ATOM      1  C   UNL     1      34.381   0.557  16.191  0.00  0.00    +0.000 C 
ENDROOT
BRANCH   1   2
ATOM      2  N   UNL     1      34.966   1.810  15.756  0.00  0.00    +0.000 N 
ATOM      3  C   UNL     1      36.292   1.569  15.180  0.00  0.00    +0.000 C 
ATOM      4  C   UNL     1      34.110   2.437  14.745  0.00  0.00    +0.000 C 
ATOM      5  C   UNL     1      35.099   2.718  16.898  0.00  0.00    +0.000 C 
ENDBRANCH   1   2
BRANCH   1   6
ATOM      6  C   UNL     1      33.841  -0.663  16.622  0.00  0.00    +0.000 C 
ATOM      7  C   UNL     1      34.706  -1.773  17.085  0.00  0.00    +0.000 C 
BRANCH   6   8
ATOM      8  O   UNL     1      32.499  -0.894  16.638  0.00  0.00    +0.000 OA
ATOM      9  H   UNL     1      32.162  -0.689  17.531  0.00  0.00    +0.000 HD
ENDBRANCH   6   8
ENDBRANCH   1   6
TORSDOF 3
ENDMDL
MODEL 2
REMARK VINA RESULT:      -4.1     20.803     21.650
REMARK  Name = 2Methylcholine.pdbqt.pdb
REMARK  3 active torsions:
REMARK  status: ('A' for Active; 'I' for Inactive)
REMARK    1  A    between atoms: C_1  and  N_2
REMARK    2  A    between atoms: C_1  and  C_6
REMARK    3  A    between atoms: C_6  and  O_8
REMARK                            x       y       z     vdW  Elec       q    Type
REMARK                         _______ _______ _______ _____ _____    ______ ____
ROOT
ATOM      1  C   UNL     1      39.177  -0.724  36.874  0.00  0.00    +0.000 C 
ENDROOT
BRANCH   1   2
ATOM      2  N   UNL     1      37.968  -0.985  37.629  0.00  0.00    +0.000 N 
ATOM      3  C   UNL     1      38.309  -1.553  38.937  0.00  0.00    +0.000 C 
ATOM      4  C   UNL     1      37.224   0.262  37.827  0.00  0.00    +0.000 C 
ATOM      5  C   UNL     1      37.124  -1.935  36.900  0.00  0.00    +0.000 C 
ENDBRANCH   1   2
BRANCH   1   6
ATOM      6  C   UNL     1      40.332  -0.473  36.119  0.00  0.00    +0.000 C 
ATOM      7  C   UNL     1      40.353   0.556  35.053  0.00  0.00    +0.000 C 
BRANCH   6   8
ATOM      8  O   UNL     1      41.491  -1.157  36.323  0.00  0.00    +0.000 OA
ATOM      9  H   UNL     1      42.042  -1.076  35.520  0.00  0.00    +0.000 HD
ENDBRANCH   6   8
ENDBRANCH   1   6
TORSDOF 3
ENDMDL
MODEL 3
REMARK VINA RESULT:      -4.1     21.598     22.348
REMARK  Name = 2Methylcholine.pdbqt.pdb
REMARK  3 active torsions:
REMARK  status: ('A' for Active; 'I' for Inactive)
REMARK    1  A    between atoms: C_1  and  N_2
REMARK    2  A    between atoms: C_1  and  C_6
REMARK    3  A    between atoms: C_6  and  O_8
REMARK                            x       y       z     vdW  Elec       q    Type
REMARK                         _______ _______ _______ _____ _____    ______ ____
ROOT
ATOM      1  C   UNL     1      38.223   1.474  37.787  0.00  0.00    +0.000 C 
ENDROOT
BRANCH   1   2
ATOM      2  N   UNL     1      37.226   0.893  38.665  0.00  0.00    +0.000 N 
ATOM      3  C   UNL     1      36.765  -0.387  38.119  0.00  0.00    +0.000 C 
ATOM      4  C   UNL     1      37.799   0.671  39.995  0.00  0.00    +0.000 C 
ATOM      5  C   UNL     1      36.082   1.801  38.784  0.00  0.00    +0.000 C 
ENDBRANCH   1   2
BRANCH   1   6
ATOM      6  C   UNL     1      39.169   2.033  36.917  0.00  0.00    +0.000 C 
ATOM      7  C   UNL     1      39.756   1.250  35.804  0.00  0.00    +0.000 C 
BRANCH   6   8
ATOM      8  O   UNL     1      39.599   3.318  37.045  0.00  0.00    +0.000 OA
ATOM      9  H   UNL     1      40.241   3.357  37.779  0.00  0.00    +0.000 HD
ENDBRANCH   6   8
ENDBRANCH   1   6
TORSDOF 3
ENDMDL
MODEL 4
REMARK VINA RESULT:      -4.0      3.411      3.778
REMARK  Name = 2Methylcholine.pdbqt.pdb
REMARK  3 active torsions:
REMARK  status: ('A' for Active; 'I' for Inactive)
REMARK    1  A    between atoms: C_1  and  N_2
REMARK    2  A    between atoms: C_1  and  C_6
REMARK    3  A    between atoms: C_6  and  O_8
REMARK                            x       y       z     vdW  Elec       q    Type
REMARK                         _______ _______ _______ _____ _____    ______ ____
ROOT
ATOM      1  C   UNL     1      37.152  -0.740  14.539  0.00  0.00    +0.000 C 
ENDROOT
BRANCH   1   2
ATOM      2  N   UNL     1      37.105   0.378  13.618  0.00  0.00    +0.000 N 
ATOM      3  C   UNL     1      37.573  -0.044  12.295  0.00  0.00    +0.000 C 
ATOM      4  C   UNL     1      35.731   0.876  13.507  0.00  0.00    +0.000 C 
ATOM      5  C   UNL     1      37.966   1.458  14.107  0.00  0.00    +0.000 C 
ENDBRANCH   1   2
BRANCH   1   6
ATOM      6  C   UNL     1      37.189  -1.839  15.409  0.00  0.00    +0.000 C 
ATOM      7  C   UNL     1      36.129  -2.062  16.420  0.00  0.00    +0.000 C 
BRANCH   6   8
ATOM      8  O   UNL     1      38.194  -2.757  15.373  0.00  0.00    +0.000 OA
ATOM      9  H   UNL     1      38.596  -2.739  14.483  0.00  0.00    +0.000 HD
ENDBRANCH   6   8
ENDBRANCH   1   6
TORSDOF 3
ENDMDL
MODEL 5
REMARK VINA RESULT:      -3.8      2.415      3.665
REMARK  Name = 2Methylcholine.pdbqt.pdb
REMARK  3 active torsions:
REMARK  status: ('A' for Active; 'I' for Inactive)
REMARK    1  A    between atoms: C_1  and  N_2
REMARK    2  A    between atoms: C_1  and  C_6
REMARK    3  A    between atoms: C_6  and  O_8
REMARK                            x       y       z     vdW  Elec       q    Type
REMARK                         _______ _______ _______ _____ _____    ______ ____
ROOT
ATOM      1  C   UNL     1      35.338   0.935  17.153  0.00  0.00    +0.000 C 
ENDROOT
BRANCH   1   2
ATOM      2  N   UNL     1      35.246  -0.406  16.610  0.00  0.00    +0.000 N 
ATOM      3  C   UNL     1      36.308  -1.246  17.171  0.00  0.00    +0.000 C 
ATOM      4  C   UNL     1      33.944  -0.991  16.943  0.00  0.00    +0.000 C 
ATOM      5  C   UNL     1      35.390  -0.360  15.153  0.00  0.00    +0.000 C 
ENDBRANCH   1   2
BRANCH   1   6
ATOM      6  C   UNL     1      35.439   2.222  17.702  0.00  0.00    +0.000 C 
ATOM      7  C   UNL     1      36.381   2.521  18.806  0.00  0.00    +0.000 C 
BRANCH   6   8
ATOM      8  O   UNL     1      34.682   3.260  17.255  0.00  0.00    +0.000 OA
ATOM      9  H   UNL     1      34.675   3.238  16.278  0.00  0.00    +0.000 HD
ENDBRANCH   6   8
ENDBRANCH   1   6
TORSDOF 3
ENDMDL
MODEL 6
REMARK VINA RESULT:      -3.7      2.792      3.836
REMARK  Name = 2Methylcholine.pdbqt.pdb
REMARK  3 active torsions:
REMARK  status: ('A' for Active; 'I' for Inactive)
REMARK    1  A    between atoms: C_1  and  N_2
REMARK    2  A    between atoms: C_1  and  C_6
REMARK    3  A    between atoms: C_6  and  O_8
REMARK                            x       y       z     vdW  Elec       q    Type
REMARK                         _______ _______ _______ _____ _____    ______ ____
ROOT
ATOM      1  C   UNL     1      36.061  -0.619  15.248  0.00  0.00    +0.000 C 
ENDROOT
BRANCH   1   2
ATOM      2  N   UNL     1      34.830  -0.317  15.952  0.00  0.00    +0.000 N 
ATOM      3  C   UNL     1      33.714  -0.260  15.003  0.00  0.00    +0.000 C 
ATOM      4  C   UNL     1      34.559  -1.353  16.952  0.00  0.00    +0.000 C 
ATOM      5  C   UNL     1      34.951   0.978  16.626  0.00  0.00    +0.000 C 
ENDBRANCH   1   2
BRANCH   1   6
ATOM      6  C   UNL     1      37.243  -0.938  14.565  0.00  0.00    +0.000 C 
ATOM      7  C   UNL     1      37.799  -0.046  13.520  0.00  0.00    +0.000 C 
BRANCH   6   8
ATOM      8  O   UNL     1      37.942  -2.078  14.821  0.00  0.00    +0.000 OA
ATOM      9  H   UNL     1      38.222  -2.465  13.970  0.00  0.00    +0.000 HD
ENDBRANCH   6   8
ENDBRANCH   1   6
TORSDOF 3
ENDMDL
MODEL 7
REMARK VINA RESULT:      -3.5     21.298     22.162
REMARK  Name = 2Methylcholine.pdbqt.pdb
REMARK  3 active torsions:
REMARK  status: ('A' for Active; 'I' for Inactive)
REMARK    1  A    between atoms: C_1  and  N_2
REMARK    2  A    between atoms: C_1  and  C_6
REMARK    3  A    between atoms: C_6  and  O_8
REMARK                            x       y       z     vdW  Elec       q    Type
REMARK                         _______ _______ _______ _____ _____    ______ ____
ROOT
ATOM      1  C   UNL     1      37.805   0.059  37.717  0.00  0.00    +0.000 C 
ENDROOT
BRANCH   1   2
ATOM      2  N   UNL     1      36.893  -1.043  37.950  0.00  0.00    +0.000 N 
ATOM      3  C   UNL     1      37.246  -1.730  39.196  0.00  0.00    +0.000 C 
ATOM      4  C   UNL     1      35.519  -0.542  38.050  0.00  0.00    +0.000 C 
ATOM      5  C   UNL     1      36.974  -1.996  36.840  0.00  0.00    +0.000 C 
ENDBRANCH   1   2
BRANCH   1   6
ATOM      6  C   UNL     1      38.693   1.115  37.466  0.00  0.00    +0.000 C 
ATOM      7  C   UNL     1      38.737   1.793  36.149  0.00  0.00    +0.000 C 
BRANCH   6   8
ATOM      8  O   UNL     1      39.557   1.573  38.412  0.00  0.00    +0.000 OA
ATOM      9  H   UNL     1      39.046   1.803  39.211  0.00  0.00    +0.000 HD
ENDBRANCH   6   8
ENDBRANCH   1   6
TORSDOF 3
ENDMDL
MODEL 8
REMARK VINA RESULT:      -3.3     30.875     32.088
REMARK  Name = 2Methylcholine.pdbqt.pdb
REMARK  3 active torsions:
REMARK  status: ('A' for Active; 'I' for Inactive)
REMARK    1  A    between atoms: C_1  and  N_2
REMARK    2  A    between atoms: C_1  and  C_6
REMARK    3  A    between atoms: C_6  and  O_8
REMARK                            x       y       z     vdW  Elec       q    Type
REMARK                         _______ _______ _______ _____ _____    ______ ____
ROOT
ATOM      1  C   UNL     1      20.298  -8.158  43.043  0.00  0.00    +0.000 C 
ENDROOT
BRANCH   1   2
ATOM      2  N   UNL     1      20.075  -8.863  44.290  0.00  0.00    +0.000 N 
ATOM      3  C   UNL     1      18.639  -8.936  44.572  0.00  0.00    +0.000 C 
ATOM      4  C   UNL     1      20.618 -10.221  44.200  0.00  0.00    +0.000 C 
ATOM      5  C   UNL     1      20.742  -8.153  45.385  0.00  0.00    +0.000 C 
ENDBRANCH   1   2
BRANCH   1   6
ATOM      6  C   UNL     1      20.508  -7.452  41.850  0.00  0.00    +0.000 C 
ATOM      7  C   UNL     1      19.507  -7.462  40.757  0.00  0.00    +0.000 C 
BRANCH   6   8
ATOM      8  O   UNL     1      21.636  -6.723  41.630  0.00  0.00    +0.000 OA
ATOM      9  H   UNL     1      21.422  -5.779  41.755  0.00  0.00    +0.000 HD
ENDBRANCH   6   8
ENDBRANCH   1   6
TORSDOF 3
ENDMDL
MODEL 9
REMARK VINA RESULT:      -3.3      2.657      3.155
REMARK  Name = 2Methylcholine.pdbqt.pdb
REMARK  3 active torsions:
REMARK  status: ('A' for Active; 'I' for Inactive)
REMARK    1  A    between atoms: C_1  and  N_2
REMARK    2  A    between atoms: C_1  and  C_6
REMARK    3  A    between atoms: C_6  and  O_8
REMARK                            x       y       z     vdW  Elec       q    Type
REMARK                         _______ _______ _______ _____ _____    ______ ____
ROOT
ATOM      1  C   UNL     1      35.763   0.210  15.360  0.00  0.00    +0.000 C 
ENDROOT
BRANCH   1   2
ATOM      2  N   UNL     1      34.592   0.820  15.957  0.00  0.00    +0.000 N 
ATOM      3  C   UNL     1      33.986   1.766  15.014  0.00  0.00    +0.000 C 
ATOM      4  C   UNL     1      33.610  -0.213  16.299  0.00  0.00    +0.000 C 
ATOM      5  C   UNL     1      34.974   1.538  17.175  0.00  0.00    +0.000 C 
ENDBRANCH   1   2
BRANCH   1   6
ATOM      6  C   UNL     1      36.906  -0.386  14.808  0.00  0.00    +0.000 C 
ATOM      7  C   UNL     1      37.269  -1.791  15.110  0.00  0.00    +0.000 C 
BRANCH   6   8
ATOM      8  O   UNL     1      37.741   0.287  13.970  0.00  0.00    +0.000 OA
ATOM      9  H   UNL     1      38.580  -0.208  13.907  0.00  0.00    +0.000 HD
ENDBRANCH   6   8
ENDBRANCH   1   6
TORSDOF 3
ENDMDL
