MODEL 1
REMARK VINA RESULT:      -8.8      0.000      0.000
REMARK  Name = 3035817_K252a.pdbqt.pdb
REMARK  3 active torsions:
REMARK  status: ('A' for Active; 'I' for Inactive)
REMARK    1  A    between atoms: C_3  and  O_7
REMARK    2  A    between atoms: C_3  and  C_9
REMARK    3  A    between atoms: C_9  and  O_11
REMARK                            x       y       z     vdW  Elec       q    Type
REMARK                         _______ _______ _______ _____ _____    ______ ____
ROOT
ATOM      1  O   UNL     1      38.592   0.659  12.029  0.00  0.00    +0.000 OA
ATOM      2  C   UNL     1      39.017   1.733  11.117  0.00  0.00    +0.000 C 
ATOM      3  C   UNL     1      37.692   2.118  10.329  0.00  0.00    +0.000 C 
ATOM      4  C   UNL     1      37.303   1.044  12.438  0.00  0.00    +0.000 C 
ATOM      5  C   UNL     1      36.713   1.688  11.324  0.00  0.00    +0.000 C 
ATOM      6  C   UNL     1      40.139   1.098  10.231  0.00  0.00    +0.000 C 
ATOM      7  N   UNL     1      39.531   2.828  11.965  0.00  0.00    +0.000 N 
ATOM      8  C   UNL     1      39.201   3.206  13.241  0.00  0.00    +0.000 A 
ATOM      9  C   UNL     1      38.172   2.695  14.032  0.00  0.00    +0.000 A 
ATOM     10  C   UNL     1      39.884   4.274  13.834  0.00  0.00    +0.000 A 
ATOM     11  N   UNL     1      37.290   1.738  13.636  0.00  0.00    +0.000 N 
ATOM     12  C   UNL     1      37.991   3.327  15.267  0.00  0.00    +0.000 A 
ATOM     13  C   UNL     1      36.386   1.767  14.713  0.00  0.00    +0.000 A 
ATOM     14  C   UNL     1      36.809   2.707  15.728  0.00  0.00    +0.000 A 
ATOM     15  C   UNL     1      35.214   1.010  14.877  0.00  0.00    +0.000 A 
ATOM     16  C   UNL     1      36.003   2.844  16.875  0.00  0.00    +0.000 A 
ATOM     17  C   UNL     1      34.844   2.082  17.021  0.00  0.00    +0.000 A 
ATOM     18  C   UNL     1      34.459   1.183  16.036  0.00  0.00    +0.000 A 
ATOM     19  C   UNL     1      38.683   4.389  15.885  0.00  0.00    +0.000 A 
ATOM     20  C   UNL     1      39.736   4.906  15.076  0.00  0.00    +0.000 A 
ATOM     21  C   UNL     1      38.580   5.133  17.118  0.00  0.00    +0.000 C 
ATOM     22  C   UNL     1      40.334   6.042  15.831  0.00  0.00    +0.000 C 
ATOM     23  N   UNL     1      39.605   6.076  16.968  0.00  0.00    +0.000 N 
ATOM     24  H   UNL     1      39.776   6.755  17.697  0.00  0.00    +0.000 HD
ATOM     25  O   UNL     1      37.849   5.059  18.095  0.00  0.00    +0.000 OA
ATOM     26  C   UNL     1      40.740   4.685  12.797  0.00  0.00    +0.000 A 
ATOM     27  C   UNL     1      40.495   3.823  11.662  0.00  0.00    +0.000 A 
ATOM     28  C   UNL     1      41.684   5.724  12.660  0.00  0.00    +0.000 A 
ATOM     29  C   UNL     1      41.178   4.046  10.455  0.00  0.00    +0.000 A 
ATOM     30  C   UNL     1      42.104   5.086  10.370  0.00  0.00    +0.000 A 
ATOM     31  C   UNL     1      42.359   5.909  11.455  0.00  0.00    +0.000 A 
ENDROOT
BRANCH   3  32
ATOM     32  O   UNL     1      37.522   3.522  10.084  0.00  0.00    +0.000 OA
ATOM     33  H   UNL     1      38.219   3.993  10.590  0.00  0.00    +0.000 HD
ENDBRANCH   3  32
BRANCH   3  34
ATOM     34  C   UNL     1      37.557   1.330   9.028  0.00  0.00    +0.000 C 
ATOM     35  O   UNL     1      38.044   1.762   7.980  0.00  0.00    +0.000 OA
BRANCH  34  36
ATOM     36  O   UNL     1      36.819   0.191   9.200  0.00  0.00    +0.000 OA
ATOM     37  C   UNL     1      37.442  -1.036   8.938  0.00  0.00    +0.000 C 
ENDBRANCH  34  36
ENDBRANCH   3  34
TORSDOF 3
ENDMDL
MODEL 2
REMARK VINA RESULT:      -8.7      1.295      5.101
REMARK  Name = 3035817_K252a.pdbqt.pdb
REMARK  3 active torsions:
REMARK  status: ('A' for Active; 'I' for Inactive)
REMARK    1  A    between atoms: C_3  and  O_7
REMARK    2  A    between atoms: C_3  and  C_9
REMARK    3  A    between atoms: C_9  and  O_11
REMARK                            x       y       z     vdW  Elec       q    Type
REMARK                         _______ _______ _______ _____ _____    ______ ____
ROOT
ATOM      1  O   UNL     1      38.127   3.434  11.207  0.00  0.00    +0.000 OA
ATOM      2  C   UNL     1      37.642   2.174  11.792  0.00  0.00    +0.000 C 
ATOM      3  C   UNL     1      38.844   1.158  11.573  0.00  0.00    +0.000 C 
ATOM      4  C   UNL     1      39.493   3.468  11.542  0.00  0.00    +0.000 C 
ATOM      5  C   UNL     1      39.938   2.124  11.508  0.00  0.00    +0.000 C 
ATOM      6  C   UNL     1      36.342   1.825  10.995  0.00  0.00    +0.000 C 
ATOM      7  N   UNL     1      37.364   2.451  13.216  0.00  0.00    +0.000 N 
ATOM      8  C   UNL     1      37.930   3.350  14.084  0.00  0.00    +0.000 A 
ATOM      9  C   UNL     1      39.033   4.171  13.847  0.00  0.00    +0.000 A 
ATOM     10  C   UNL     1      37.441   3.436  15.392  0.00  0.00    +0.000 A 
ATOM     11  N   UNL     1      39.759   4.183  12.697  0.00  0.00    +0.000 N 
ATOM     12  C   UNL     1      39.465   4.929  14.940  0.00  0.00    +0.000 A 
ATOM     13  C   UNL     1      40.829   5.010  13.082  0.00  0.00    +0.000 A 
ATOM     14  C   UNL     1      40.654   5.496  14.434  0.00  0.00    +0.000 A 
ATOM     15  C   UNL     1      41.948   5.384  12.321  0.00  0.00    +0.000 A 
ATOM     16  C   UNL     1      41.649   6.345  14.961  0.00  0.00    +0.000 A 
ATOM     17  C   UNL     1      42.752   6.707  14.189  0.00  0.00    +0.000 A 
ATOM     18  C   UNL     1      42.896   6.231  12.893  0.00  0.00    +0.000 A 
ATOM     19  C   UNL     1      38.971   5.040  16.256  0.00  0.00    +0.000 A 
ATOM     20  C   UNL     1      37.842   4.203  16.494  0.00  0.00    +0.000 A 
ATOM     21  C   UNL     1      39.335   5.752  17.458  0.00  0.00    +0.000 C 
ATOM     22  C   UNL     1      37.469   4.389  17.923  0.00  0.00    +0.000 C 
ATOM     23  N   UNL     1      38.377   5.285  18.367  0.00  0.00    +0.000 N 
ATOM     24  H   UNL     1      38.383   5.618  19.321  0.00  0.00    +0.000 HD
ATOM     25  O   UNL     1      40.210   6.560  17.733  0.00  0.00    +0.000 OA
ATOM     26  C   UNL     1      36.459   2.428  15.404  0.00  0.00    +0.000 A 
ATOM     27  C   UNL     1      36.444   1.820  14.092  0.00  0.00    +0.000 A 
ATOM     28  C   UNL     1      35.591   1.919  16.390  0.00  0.00    +0.000 A 
ATOM     29  C   UNL     1      35.589   0.735  13.834  0.00  0.00    +0.000 A 
ATOM     30  C   UNL     1      34.747   0.268  14.844  0.00  0.00    +0.000 A 
ATOM     31  C   UNL     1      34.741   0.853  16.100  0.00  0.00    +0.000 A 
ENDROOT
BRANCH   3  32
ATOM     32  O   UNL     1      39.081   0.259  12.667  0.00  0.00    +0.000 OA
ATOM     33  H   UNL     1      38.324   0.348  13.287  0.00  0.00    +0.000 HD
ENDBRANCH   3  32
BRANCH   3  34
ATOM     34  C   UNL     1      38.699   0.382  10.267  0.00  0.00    +0.000 C 
ATOM     35  O   UNL     1      38.990   0.909   9.190  0.00  0.00    +0.000 OA
BRANCH  34  36
ATOM     36  O   UNL     1      38.182  -0.867  10.475  0.00  0.00    +0.000 OA
ATOM     37  C   UNL     1      37.471  -1.462   9.423  0.00  0.00    +0.000 C 
ENDBRANCH  34  36
ENDBRANCH   3  34
TORSDOF 3
ENDMDL
MODEL 3
REMARK VINA RESULT:      -8.6     19.105     22.810
REMARK  Name = 3035817_K252a.pdbqt.pdb
REMARK  3 active torsions:
REMARK  status: ('A' for Active; 'I' for Inactive)
REMARK    1  A    between atoms: C_3  and  O_7
REMARK    2  A    between atoms: C_3  and  C_9
REMARK    3  A    between atoms: C_9  and  O_11
REMARK                            x       y       z     vdW  Elec       q    Type
REMARK                         _______ _______ _______ _____ _____    ______ ____
ROOT
ATOM      1  O   UNL     1      16.693  11.531  20.870  0.00  0.00    +0.000 OA
ATOM      2  C   UNL     1      17.709  12.501  21.306  0.00  0.00    +0.000 C 
ATOM      3  C   UNL     1      18.044  12.067  22.798  0.00  0.00    +0.000 C 
ATOM      4  C   UNL     1      17.100  10.318  21.454  0.00  0.00    +0.000 C 
ATOM      5  C   UNL     1      17.674  10.657  22.704  0.00  0.00    +0.000 C 
ATOM      6  C   UNL     1      17.024  13.901  21.175  0.00  0.00    +0.000 C 
ATOM      7  N   UNL     1      18.855  12.354  20.385  0.00  0.00    +0.000 N 
ATOM      8  C   UNL     1      19.309  11.267  19.683  0.00  0.00    +0.000 A 
ATOM      9  C   UNL     1      18.846   9.954  19.769  0.00  0.00    +0.000 A 
ATOM     10  C   UNL     1      20.412  11.416  18.834  0.00  0.00    +0.000 A 
ATOM     11  N   UNL     1      17.865   9.530  20.611  0.00  0.00    +0.000 N 
ATOM     12  C   UNL     1      19.551   9.016  19.008  0.00  0.00    +0.000 A 
ATOM     13  C   UNL     1      17.958   8.139  20.427  0.00  0.00    +0.000 A 
ATOM     14  C   UNL     1      18.958   7.807  19.436  0.00  0.00    +0.000 A 
ATOM     15  C   UNL     1      17.210   7.133  21.061  0.00  0.00    +0.000 A 
ATOM     16  C   UNL     1      19.164   6.445  19.139  0.00  0.00    +0.000 A 
ATOM     17  C   UNL     1      18.410   5.461  19.777  0.00  0.00    +0.000 A 
ATOM     18  C   UNL     1      17.453   5.803  20.722  0.00  0.00    +0.000 A 
ATOM     19  C   UNL     1      20.650   9.153  18.135  0.00  0.00    +0.000 A 
ATOM     20  C   UNL     1      21.118  10.497  18.047  0.00  0.00    +0.000 A 
ATOM     21  C   UNL     1      21.467   8.278  17.329  0.00  0.00    +0.000 C 
ATOM     22  C   UNL     1      22.299  10.476  17.139  0.00  0.00    +0.000 C 
ATOM     23  N   UNL     1      22.401   9.174  16.793  0.00  0.00    +0.000 N 
ATOM     24  H   UNL     1      23.123   8.838  16.171  0.00  0.00    +0.000 HD
ATOM     25  O   UNL     1      21.451   7.078  17.098  0.00  0.00    +0.000 OA
ATOM     26  C   UNL     1      20.761  12.762  19.042  0.00  0.00    +0.000 A 
ATOM     27  C   UNL     1      19.831  13.310  20.004  0.00  0.00    +0.000 A 
ATOM     28  C   UNL     1      21.791  13.593  18.555  0.00  0.00    +0.000 A 
ATOM     29  C   UNL     1      19.981  14.636  20.445  0.00  0.00    +0.000 A 
ATOM     30  C   UNL     1      21.016  15.418  19.932  0.00  0.00    +0.000 A 
ATOM     31  C   UNL     1      21.903  14.910  18.997  0.00  0.00    +0.000 A 
ENDROOT
BRANCH   3  32
ATOM     32  O   UNL     1      19.430  12.162  23.158  0.00  0.00    +0.000 OA
ATOM     33  H   UNL     1      19.768  11.245  23.265  0.00  0.00    +0.000 HD
ENDBRANCH   3  32
BRANCH   3  34
ATOM     34  C   UNL     1      17.178  12.810  23.812  0.00  0.00    +0.000 C 
ATOM     35  O   UNL     1      15.993  12.506  23.966  0.00  0.00    +0.000 OA
BRANCH  34  36
ATOM     36  O   UNL     1      17.869  13.820  24.424  0.00  0.00    +0.000 OA
ATOM     37  C   UNL     1      17.742  13.948  25.813  0.00  0.00    +0.000 C 
ENDBRANCH  34  36
ENDBRANCH   3  34
TORSDOF 3
ENDMDL
MODEL 4
REMARK VINA RESULT:      -8.4     13.029     16.302
REMARK  Name = 3035817_K252a.pdbqt.pdb
REMARK  3 active torsions:
REMARK  status: ('A' for Active; 'I' for Inactive)
REMARK    1  A    between atoms: C_3  and  O_7
REMARK    2  A    between atoms: C_3  and  C_9
REMARK    3  A    between atoms: C_9  and  O_11
REMARK                            x       y       z     vdW  Elec       q    Type
REMARK                         _______ _______ _______ _____ _____    ______ ____
ROOT
ATOM      1  O   UNL     1      24.855  -1.236   3.689  0.00  0.00    +0.000 OA
ATOM      2  C   UNL     1      23.948  -0.462   4.551  0.00  0.00    +0.000 C 
ATOM      3  C   UNL     1      24.176  -1.073   6.000  0.00  0.00    +0.000 C 
ATOM      4  C   UNL     1      25.998  -1.437   4.483  0.00  0.00    +0.000 C 
ATOM      5  C   UNL     1      25.533  -1.580   5.813  0.00  0.00    +0.000 C 
ATOM      6  C   UNL     1      22.519  -0.701   3.962  0.00  0.00    +0.000 C 
ATOM      7  N   UNL     1      24.366   0.951   4.440  0.00  0.00    +0.000 N 
ATOM      8  C   UNL     1      25.594   1.508   4.190  0.00  0.00    +0.000 A 
ATOM      9  C   UNL     1      26.817   0.843   4.092  0.00  0.00    +0.000 A 
ATOM     10  C   UNL     1      25.706   2.899   4.095  0.00  0.00    +0.000 A 
ATOM     11  N   UNL     1      26.990  -0.495   4.269  0.00  0.00    +0.000 N 
ATOM     12  C   UNL     1      27.937   1.664   3.924  0.00  0.00    +0.000 A 
ATOM     13  C   UNL     1      28.394  -0.570   4.265  0.00  0.00    +0.000 A 
ATOM     14  C   UNL     1      28.988   0.728   4.029  0.00  0.00    +0.000 A 
ATOM     15  C   UNL     1      29.198  -1.709   4.440  0.00  0.00    +0.000 A 
ATOM     16  C   UNL     1      30.394   0.811   3.993  0.00  0.00    +0.000 A 
ATOM     17  C   UNL     1      31.175  -0.331   4.167  0.00  0.00    +0.000 A 
ATOM     18  C   UNL     1      30.584  -1.567   4.388  0.00  0.00    +0.000 A 
ATOM     19  C   UNL     1      28.062   3.064   3.808  0.00  0.00    +0.000 A 
ATOM     20  C   UNL     1      26.811   3.739   3.904  0.00  0.00    +0.000 A 
ATOM     21  C   UNL     1      29.140   4.013   3.660  0.00  0.00    +0.000 C 
ATOM     22  C   UNL     1      27.106   5.196   3.816  0.00  0.00    +0.000 C 
ATOM     23  N   UNL     1      28.450   5.232   3.677  0.00  0.00    +0.000 N 
ATOM     24  H   UNL     1      28.959   6.101   3.590  0.00  0.00    +0.000 HD
ATOM     25  O   UNL     1      30.352   3.909   3.543  0.00  0.00    +0.000 OA
ATOM     26  C   UNL     1      24.391   3.317   4.369  0.00  0.00    +0.000 A 
ATOM     27  C   UNL     1      23.598   2.131   4.606  0.00  0.00    +0.000 A 
ATOM     28  C   UNL     1      23.768   4.576   4.485  0.00  0.00    +0.000 A 
ATOM     29  C   UNL     1      22.244   2.255   4.962  0.00  0.00    +0.000 A 
ATOM     30  C   UNL     1      21.673   3.524   5.063  0.00  0.00    +0.000 A 
ATOM     31  C   UNL     1      22.419   4.667   4.823  0.00  0.00    +0.000 A 
ENDROOT
BRANCH   3  32
ATOM     32  O   UNL     1      24.181  -0.111   7.066  0.00  0.00    +0.000 OA
ATOM     33  H   UNL     1      25.120   0.100   7.264  0.00  0.00    +0.000 HD
ENDBRANCH   3  32
BRANCH   3  34
ATOM     34  C   UNL     1      23.190  -2.198   6.302  0.00  0.00    +0.000 C 
ATOM     35  O   UNL     1      23.252  -3.266   5.688  0.00  0.00    +0.000 OA
BRANCH  34  36
ATOM     36  O   UNL     1      22.272  -1.827   7.246  0.00  0.00    +0.000 OA
ATOM     37  C   UNL     1      20.954  -2.273   7.084  0.00  0.00    +0.000 C 
ENDBRANCH  34  36
ENDBRANCH   3  34
TORSDOF 3
ENDMDL
MODEL 5
REMARK VINA RESULT:      -8.4     13.433     15.680
REMARK  Name = 3035817_K252a.pdbqt.pdb
REMARK  3 active torsions:
REMARK  status: ('A' for Active; 'I' for Inactive)
REMARK    1  A    between atoms: C_3  and  O_7
REMARK    2  A    between atoms: C_3  and  C_9
REMARK    3  A    between atoms: C_9  and  O_11
REMARK                            x       y       z     vdW  Elec       q    Type
REMARK                         _______ _______ _______ _____ _____    ______ ____
ROOT
ATOM      1  O   UNL     1      24.839   0.961   6.315  0.00  0.00    +0.000 OA
ATOM      2  C   UNL     1      25.517  -0.116   5.576  0.00  0.00    +0.000 C 
ATOM      3  C   UNL     1      24.483  -0.513   4.436  0.00  0.00    +0.000 C 
ATOM      4  C   UNL     1      24.170   1.695   5.320  0.00  0.00    +0.000 C 
ATOM      5  C   UNL     1      23.761   0.754   4.344  0.00  0.00    +0.000 C 
ATOM      6  C   UNL     1      25.781  -1.237   6.634  0.00  0.00    +0.000 C 
ATOM      7  N   UNL     1      26.772   0.460   5.051  0.00  0.00    +0.000 N 
ATOM      8  C   UNL     1      27.090   1.744   4.687  0.00  0.00    +0.000 A 
ATOM      9  C   UNL     1      26.225   2.837   4.614  0.00  0.00    +0.000 A 
ATOM     10  C   UNL     1      28.388   2.029   4.254  0.00  0.00    +0.000 A 
ATOM     11  N   UNL     1      24.889   2.788   4.866  0.00  0.00    +0.000 N 
ATOM     12  C   UNL     1      26.789   4.018   4.121  0.00  0.00    +0.000 A 
ATOM     13  C   UNL     1      24.507   4.076   4.448  0.00  0.00    +0.000 A 
ATOM     14  C   UNL     1      25.652   4.848   4.017  0.00  0.00    +0.000 A 
ATOM     15  C   UNL     1      23.216   4.630   4.432  0.00  0.00    +0.000 A 
ATOM     16  C   UNL     1      25.426   6.166   3.572  0.00  0.00    +0.000 A 
ATOM     17  C   UNL     1      24.138   6.700   3.565  0.00  0.00    +0.000 A 
ATOM     18  C   UNL     1      23.055   5.942   3.986  0.00  0.00    +0.000 A 
ATOM     19  C   UNL     1      28.099   4.325   3.699  0.00  0.00    +0.000 A 
ATOM     20  C   UNL     1      28.980   3.208   3.779  0.00  0.00    +0.000 A 
ATOM     21  C   UNL     1      28.786   5.473   3.157  0.00  0.00    +0.000 C 
ATOM     22  C   UNL     1      30.297   3.667   3.258  0.00  0.00    +0.000 C 
ATOM     23  N   UNL     1      30.071   4.960   2.940  0.00  0.00    +0.000 N 
ATOM     24  H   UNL     1      30.792   5.553   2.553  0.00  0.00    +0.000 HD
ATOM     25  O   UNL     1      28.452   6.623   2.910  0.00  0.00    +0.000 OA
ATOM     26  C   UNL     1      28.993   0.760   4.287  0.00  0.00    +0.000 A 
ATOM     27  C   UNL     1      27.997  -0.185   4.741  0.00  0.00    +0.000 A 
ATOM     28  C   UNL     1      30.272   0.275   3.947  0.00  0.00    +0.000 A 
ATOM     29  C   UNL     1      28.313  -1.553   4.815  0.00  0.00    +0.000 A 
ATOM     30  C   UNL     1      29.594  -1.982   4.469  0.00  0.00    +0.000 A 
ATOM     31  C   UNL     1      30.562  -1.084   4.048  0.00  0.00    +0.000 A 
ENDROOT
BRANCH   3  32
ATOM     32  O   UNL     1      25.075  -0.806   3.161  0.00  0.00    +0.000 OA
ATOM     33  H   UNL     1      24.806  -0.090   2.543  0.00  0.00    +0.000 HD
ENDBRANCH   3  32
BRANCH   3  34
ATOM     34  C   UNL     1      23.568  -1.653   4.874  0.00  0.00    +0.000 C 
ATOM     35  O   UNL     1      23.785  -2.809   4.500  0.00  0.00    +0.000 OA
BRANCH  34  36
ATOM     36  O   UNL     1      22.526  -1.202   5.636  0.00  0.00    +0.000 OA
ATOM     37  C   UNL     1      22.149  -1.970   6.745  0.00  0.00    +0.000 C 
ENDBRANCH  34  36
ENDBRANCH   3  34
TORSDOF 3
ENDMDL
MODEL 6
REMARK VINA RESULT:      -8.2     19.209     23.021
REMARK  Name = 3035817_K252a.pdbqt.pdb
REMARK  3 active torsions:
REMARK  status: ('A' for Active; 'I' for Inactive)
REMARK    1  A    between atoms: C_3  and  O_7
REMARK    2  A    between atoms: C_3  and  C_9
REMARK    3  A    between atoms: C_9  and  O_11
REMARK                            x       y       z     vdW  Elec       q    Type
REMARK                         _______ _______ _______ _____ _____    ______ ____
ROOT
ATOM      1  O   UNL     1      17.442  10.121  22.079  0.00  0.00    +0.000 OA
ATOM      2  C   UNL     1      16.782   8.997  21.397  0.00  0.00    +0.000 C 
ATOM      3  C   UNL     1      15.560   9.670  20.636  0.00  0.00    +0.000 C 
ATOM      4  C   UNL     1      17.342  11.186  21.166  0.00  0.00    +0.000 C 
ATOM      5  C   UNL     1      16.102  11.020  20.504  0.00  0.00    +0.000 C 
ATOM      6  C   UNL     1      16.372   8.008  22.538  0.00  0.00    +0.000 C 
ATOM      7  N   UNL     1      17.785   8.410  20.486  0.00  0.00    +0.000 N 
ATOM      8  C   UNL     1      18.850   8.978  19.835  0.00  0.00    +0.000 A 
ATOM      9  C   UNL     1      19.182  10.332  19.786  0.00  0.00    +0.000 A 
ATOM     10  C   UNL     1      19.681   8.171  19.051  0.00  0.00    +0.000 A 
ATOM     11  N   UNL     1      18.461  11.331  20.364  0.00  0.00    +0.000 N 
ATOM     12  C   UNL     1      20.271  10.656  18.969  0.00  0.00    +0.000 A 
ATOM     13  C   UNL     1      19.117  12.456  19.834  0.00  0.00    +0.000 A 
ATOM     14  C   UNL     1      20.237  12.067  19.005  0.00  0.00    +0.000 A 
ATOM     15  C   UNL     1      18.809  13.811  20.039  0.00  0.00    +0.000 A 
ATOM     16  C   UNL     1      20.997  13.090  18.404  0.00  0.00    +0.000 A 
ATOM     17  C   UNL     1      20.677  14.430  18.621  0.00  0.00    +0.000 A 
ATOM     18  C   UNL     1      19.600  14.780  19.424  0.00  0.00    +0.000 A 
ATOM     19  C   UNL     1      21.128   9.852  18.190  0.00  0.00    +0.000 A 
ATOM     20  C   UNL     1      20.788   8.469  18.246  0.00  0.00    +0.000 A 
ATOM     21  C   UNL     1      22.246  10.063  17.302  0.00  0.00    +0.000 C 
ATOM     22  C   UNL     1      21.738   7.761  17.343  0.00  0.00    +0.000 C 
ATOM     23  N   UNL     1      22.516   8.758  16.868  0.00  0.00    +0.000 N 
ATOM     24  H   UNL     1      23.270   8.589  16.217  0.00  0.00    +0.000 HD
ATOM     25  O   UNL     1      22.872  11.050  16.946  0.00  0.00    +0.000 OA
ATOM     26  C   UNL     1      19.053   6.916  19.157  0.00  0.00    +0.000 A 
ATOM     27  C   UNL     1      17.892   7.081  20.002  0.00  0.00    +0.000 A 
ATOM     28  C   UNL     1      19.306   5.645  18.603  0.00  0.00    +0.000 A 
ATOM     29  C   UNL     1      17.037   5.990  20.235  0.00  0.00    +0.000 A 
ATOM     30  C   UNL     1      17.332   4.751  19.665  0.00  0.00    +0.000 A 
ATOM     31  C   UNL     1      18.451   4.577  18.867  0.00  0.00    +0.000 A 
ENDROOT
BRANCH   3  32
ATOM     32  O   UNL     1      15.300   9.142  19.327  0.00  0.00    +0.000 OA
ATOM     33  H   UNL     1      14.325   9.130  19.205  0.00  0.00    +0.000 HD
ENDBRANCH   3  32
BRANCH   3  34
ATOM     34  C   UNL     1      14.288   9.653  21.480  0.00  0.00    +0.000 C 
ATOM     35  O   UNL     1      14.135  10.463  22.398  0.00  0.00    +0.000 OA
BRANCH  34  36
ATOM     36  O   UNL     1      13.450   8.637  21.111  0.00  0.00    +0.000 OA
ATOM     37  C   UNL     1      12.597   8.108  22.089  0.00  0.00    +0.000 C 
ENDBRANCH  34  36
ENDBRANCH   3  34
TORSDOF 3
ENDMDL
MODEL 7
REMARK VINA RESULT:      -8.0     12.714     14.200
REMARK  Name = 3035817_K252a.pdbqt.pdb
REMARK  3 active torsions:
REMARK  status: ('A' for Active; 'I' for Inactive)
REMARK    1  A    between atoms: C_3  and  O_7
REMARK    2  A    between atoms: C_3  and  C_9
REMARK    3  A    between atoms: C_9  and  O_11
REMARK                            x       y       z     vdW  Elec       q    Type
REMARK                         _______ _______ _______ _____ _____    ______ ____
ROOT
ATOM      1  O   UNL     1      32.976   3.265   2.565  0.00  0.00    +0.000 OA
ATOM      2  C   UNL     1      31.787   4.039   2.175  0.00  0.00    +0.000 C 
ATOM      3  C   UNL     1      31.727   3.886   0.594  0.00  0.00    +0.000 C 
ATOM      4  C   UNL     1      32.964   2.155   1.703  0.00  0.00    +0.000 C 
ATOM      5  C   UNL     1      32.446   2.620   0.470  0.00  0.00    +0.000 C 
ATOM      6  C   UNL     1      32.062   5.495   2.678  0.00  0.00    +0.000 C 
ATOM      7  N   UNL     1      30.637   3.420   2.865  0.00  0.00    +0.000 N 
ATOM      8  C   UNL     1      30.419   2.127   3.267  0.00  0.00    +0.000 A 
ATOM      9  C   UNL     1      31.220   1.016   3.000  0.00  0.00    +0.000 A 
ATOM     10  C   UNL     1      29.239   1.814   3.950  0.00  0.00    +0.000 A 
ATOM     11  N   UNL     1      32.356   1.039   2.251  0.00  0.00    +0.000 N 
ATOM     12  C   UNL     1      30.717  -0.210   3.449  0.00  0.00    +0.000 A 
ATOM     13  C   UNL     1      32.616  -0.339   2.147  0.00  0.00    +0.000 A 
ATOM     14  C   UNL     1      31.647  -1.114   2.891  0.00  0.00    +0.000 A 
ATOM     15  C   UNL     1      33.662  -0.969   1.452  0.00  0.00    +0.000 A 
ATOM     16  C   UNL     1      31.781  -2.517   2.884  0.00  0.00    +0.000 A 
ATOM     17  C   UNL     1      32.827  -3.124   2.190  0.00  0.00    +0.000 A 
ATOM     18  C   UNL     1      33.748  -2.361   1.486  0.00  0.00    +0.000 A 
ATOM     19  C   UNL     1      29.541  -0.538   4.154  0.00  0.00    +0.000 A 
ATOM     20  C   UNL     1      28.727   0.600   4.428  0.00  0.00    +0.000 A 
ATOM     21  C   UNL     1      28.909  -1.741   4.641  0.00  0.00    +0.000 C 
ATOM     22  C   UNL     1      27.511   0.096   5.124  0.00  0.00    +0.000 C 
ATOM     23  N   UNL     1      27.724  -1.237   5.192  0.00  0.00    +0.000 N 
ATOM     24  H   UNL     1      27.059  -1.867   5.620  0.00  0.00    +0.000 HD
ATOM     25  O   UNL     1      29.219  -2.923   4.636  0.00  0.00    +0.000 OA
ATOM     26  C   UNL     1      28.569   3.050   3.956  0.00  0.00    +0.000 A 
ATOM     27  C   UNL     1      29.410   4.005   3.270  0.00  0.00    +0.000 A 
ATOM     28  C   UNL     1      27.313   3.481   4.431  0.00  0.00    +0.000 A 
ATOM     29  C   UNL     1      28.959   5.322   3.076  0.00  0.00    +0.000 A 
ATOM     30  C   UNL     1      27.709   5.700   3.567  0.00  0.00    +0.000 A 
ATOM     31  C   UNL     1      26.900   4.798   4.240  0.00  0.00    +0.000 A 
ENDROOT
BRANCH   3  32
ATOM     32  O   UNL     1      30.407   3.728   0.053  0.00  0.00    +0.000 OA
ATOM     33  H   UNL     1      29.952   4.595   0.135  0.00  0.00    +0.000 HD
ENDBRANCH   3  32
BRANCH   3  34
ATOM     34  C   UNL     1      32.461   5.023  -0.113  0.00  0.00    +0.000 C 
ATOM     35  O   UNL     1      31.848   6.027  -0.485  0.00  0.00    +0.000 OA
BRANCH  34  36
ATOM     36  O   UNL     1      33.785   4.734  -0.298  0.00  0.00    +0.000 OA
ATOM     37  C   UNL     1      34.725   5.681   0.129  0.00  0.00    +0.000 C 
ENDBRANCH  34  36
ENDBRANCH   3  34
TORSDOF 3
ENDMDL
MODEL 8
REMARK VINA RESULT:      -8.0     19.909     22.963
REMARK  Name = 3035817_K252a.pdbqt.pdb
REMARK  3 active torsions:
REMARK  status: ('A' for Active; 'I' for Inactive)
REMARK    1  A    between atoms: C_3  and  O_7
REMARK    2  A    between atoms: C_3  and  C_9
REMARK    3  A    between atoms: C_9  and  O_11
REMARK                            x       y       z     vdW  Elec       q    Type
REMARK                         _______ _______ _______ _____ _____    ______ ____
ROOT
ATOM      1  O   UNL     1      19.490  10.876  22.304  0.00  0.00    +0.000 OA
ATOM      2  C   UNL     1      19.372  10.332  20.941  0.00  0.00    +0.000 C 
ATOM      3  C   UNL     1      17.806  10.175  20.722  0.00  0.00    +0.000 C 
ATOM      4  C   UNL     1      18.405  11.763  22.417  0.00  0.00    +0.000 C 
ATOM      5  C   UNL     1      17.349  11.191  21.667  0.00  0.00    +0.000 C 
ATOM      6  C   UNL     1      20.164   8.984  20.968  0.00  0.00    +0.000 C 
ATOM      7  N   UNL     1      19.992  11.323  20.038  0.00  0.00    +0.000 N 
ATOM      8  C   UNL     1      20.110  12.686  20.144  0.00  0.00    +0.000 A 
ATOM      9  C   UNL     1      19.544  13.508  21.119  0.00  0.00    +0.000 A 
ATOM     10  C   UNL     1      20.793  13.391  19.148  0.00  0.00    +0.000 A 
ATOM     11  N   UNL     1      18.736  13.076  22.125  0.00  0.00    +0.000 N 
ATOM     12  C   UNL     1      19.745  14.880  20.940  0.00  0.00    +0.000 A 
ATOM     13  C   UNL     1      18.308  14.308  22.651  0.00  0.00    +0.000 A 
ATOM     14  C   UNL     1      18.931  15.417  21.962  0.00  0.00    +0.000 A 
ATOM     15  C   UNL     1      17.414  14.530  23.711  0.00  0.00    +0.000 A 
ATOM     16  C   UNL     1      18.602  16.721  22.382  0.00  0.00    +0.000 A 
ATOM     17  C   UNL     1      17.714  16.921  23.439  0.00  0.00    +0.000 A 
ATOM     18  C   UNL     1      17.131  15.842  24.088  0.00  0.00    +0.000 A 
ATOM     19  C   UNL     1      20.445  15.603  19.953  0.00  0.00    +0.000 A 
ATOM     20  C   UNL     1      21.026  14.760  18.961  0.00  0.00    +0.000 A 
ATOM     21  C   UNL     1      20.699  16.991  19.649  0.00  0.00    +0.000 C 
ATOM     22  C   UNL     1      21.681  15.659  17.970  0.00  0.00    +0.000 C 
ATOM     23  N   UNL     1      21.435  16.893  18.461  0.00  0.00    +0.000 N 
ATOM     24  H   UNL     1      21.761  17.731  17.999  0.00  0.00    +0.000 HD
ATOM     25  O   UNL     1      20.408  18.045  20.194  0.00  0.00    +0.000 OA
ATOM     26  C   UNL     1      21.124  12.368  18.241  0.00  0.00    +0.000 A 
ATOM     27  C   UNL     1      20.608  11.128  18.776  0.00  0.00    +0.000 A 
ATOM     28  C   UNL     1      21.777  12.341  16.991  0.00  0.00    +0.000 A 
ATOM     29  C   UNL     1      20.746   9.938  18.041  0.00  0.00    +0.000 A 
ATOM     30  C   UNL     1      21.401   9.963  16.809  0.00  0.00    +0.000 A 
ATOM     31  C   UNL     1      21.915  11.142  16.294  0.00  0.00    +0.000 A 
ENDROOT
BRANCH   3  32
ATOM     32  O   UNL     1      17.344  10.519  19.407  0.00  0.00    +0.000 OA
ATOM     33  H   UNL     1      17.936  10.073  18.763  0.00  0.00    +0.000 HD
ENDBRANCH   3  32
BRANCH   3  34
ATOM     34  C   UNL     1      17.317   8.783  21.111  0.00  0.00    +0.000 C 
ATOM     35  O   UNL     1      17.214   8.464  22.299  0.00  0.00    +0.000 OA
BRANCH  34  36
ATOM     36  O   UNL     1      17.088   8.001  20.013  0.00  0.00    +0.000 OA
ATOM     37  C   UNL     1      17.293   6.621  20.140  0.00  0.00    +0.000 C 
ENDBRANCH  34  36
ENDBRANCH   3  34
TORSDOF 3
ENDMDL
MODEL 9
REMARK VINA RESULT:      -7.8     21.653     26.904
REMARK  Name = 3035817_K252a.pdbqt.pdb
REMARK  3 active torsions:
REMARK  status: ('A' for Active; 'I' for Inactive)
REMARK    1  A    between atoms: C_3  and  O_7
REMARK    2  A    between atoms: C_3  and  C_9
REMARK    3  A    between atoms: C_9  and  O_11
REMARK                            x       y       z     vdW  Elec       q    Type
REMARK                         _______ _______ _______ _____ _____    ______ ____
ROOT
ATOM      1  O   UNL     1      42.738 -15.634  -1.482  0.00  0.00    +0.000 OA
ATOM      2  C   UNL     1      41.504 -16.172  -2.075  0.00  0.00    +0.000 C 
ATOM      3  C   UNL     1      40.656 -14.878  -2.441  0.00  0.00    +0.000 C 
ATOM      4  C   UNL     1      43.013 -14.482  -2.241  0.00  0.00    +0.000 C 
ATOM      5  C   UNL     1      41.756 -13.928  -2.583  0.00  0.00    +0.000 C 
ATOM      6  C   UNL     1      40.871 -17.070  -0.962  0.00  0.00    +0.000 C 
ATOM      7  N   UNL     1      41.912 -16.956  -3.258  0.00  0.00    +0.000 N 
ATOM      8  C   UNL     1      42.985 -16.819  -4.101  0.00  0.00    +0.000 A 
ATOM      9  C   UNL     1      43.923 -15.786  -4.110  0.00  0.00    +0.000 A 
ATOM     10  C   UNL     1      43.160 -17.742  -5.138  0.00  0.00    +0.000 A 
ATOM     11  N   UNL     1      43.898 -14.707  -3.282  0.00  0.00    +0.000 N 
ATOM     12  C   UNL     1      44.866 -15.839  -5.142  0.00  0.00    +0.000 A 
ATOM     13  C   UNL     1      44.915 -13.924  -3.857  0.00  0.00    +0.000 A 
ATOM     14  C   UNL     1      45.534 -14.607  -4.972  0.00  0.00    +0.000 A 
ATOM     15  C   UNL     1      45.351 -12.650  -3.460  0.00  0.00    +0.000 A 
ATOM     16  C   UNL     1      46.578 -13.946  -5.650  0.00  0.00    +0.000 A 
ATOM     17  C   UNL     1      46.999 -12.682  -5.239  0.00  0.00    +0.000 A 
ATOM     18  C   UNL     1      46.393 -12.047  -4.165  0.00  0.00    +0.000 A 
ATOM     19  C   UNL     1      45.067 -16.771  -6.180  0.00  0.00    +0.000 A 
ATOM     20  C   UNL     1      44.109 -17.827  -6.165  0.00  0.00    +0.000 A 
ATOM     21  C   UNL     1      45.968 -16.921  -7.298  0.00  0.00    +0.000 C 
ATOM     22  C   UNL     1      44.414 -18.694  -7.337  0.00  0.00    +0.000 C 
ATOM     23  N   UNL     1      45.483 -18.089  -7.901  0.00  0.00    +0.000 N 
ATOM     24  H   UNL     1      45.929 -18.450  -8.733  0.00  0.00    +0.000 HD
ATOM     25  O   UNL     1      46.923 -16.279  -7.709  0.00  0.00    +0.000 OA
ATOM     26  C   UNL     1      42.029 -18.564  -4.991  0.00  0.00    +0.000 A 
ATOM     27  C   UNL     1      41.267 -18.061  -3.870  0.00  0.00    +0.000 A 
ATOM     28  C   UNL     1      41.524 -19.672  -5.703  0.00  0.00    +0.000 A 
ATOM     29  C   UNL     1      40.044 -18.664  -3.529  0.00  0.00    +0.000 A 
ATOM     30  C   UNL     1      39.588 -19.759  -4.264  0.00  0.00    +0.000 A 
ATOM     31  C   UNL     1      40.318 -20.260  -5.330  0.00  0.00    +0.000 A 
ENDROOT
BRANCH   3  32
ATOM     32  O   UNL     1      39.944 -14.957  -3.686  0.00  0.00    +0.000 OA
ATOM     33  H   UNL     1      40.176 -14.156  -4.206  0.00  0.00    +0.000 HD
ENDBRANCH   3  32
BRANCH   3  34
ATOM     34  C   UNL     1      39.710 -14.482  -1.310  0.00  0.00    +0.000 C 
ATOM     35  O   UNL     1      38.545 -14.886  -1.298  0.00  0.00    +0.000 OA
BRANCH  34  36
ATOM     36  O   UNL     1      40.310 -13.630  -0.425  0.00  0.00    +0.000 OA
ATOM     37  C   UNL     1      40.133 -13.881   0.943  0.00  0.00    +0.000 C 
ENDBRANCH  34  36
ENDBRANCH   3  34
TORSDOF 3
ENDMDL
