MODEL 1
REMARK VINA RESULT:      -5.0      0.000      0.000
REMARK  Name = 3136_Dimethoxy.pdbqt.pdb
REMARK  2 active torsions:
REMARK  status: ('A' for Active; 'I' for Inactive)
REMARK    1  A    between atoms: C_7  and  O_13
REMARK    2  A    between atoms: C_8  and  O_15
REMARK                            x       y       z     vdW  Elec       q    Type
REMARK                         _______ _______ _______ _____ _____    ______ ____
ROOT
ATOM      1  O   UNL     1      16.969  -9.582  42.395  0.00  0.00    +0.000 OA
ATOM      2  O   UNL     1      21.660  -7.100  41.911  0.00  0.00    +0.000 OA
ATOM      3  C   UNL     1      18.905  -8.804  43.451  0.00  0.00    +0.000 A 
ATOM      4  C   UNL     1      20.138  -8.180  43.321  0.00  0.00    +0.000 A 
ATOM      5  C   UNL     1      18.033  -8.986  42.286  0.00  0.00    +0.000 C 
ATOM      6  C   UNL     1      20.597  -7.696  42.014  0.00  0.00    +0.000 C 
ATOM      7  C   UNL     1      18.488  -8.447  40.981  0.00  0.00    +0.000 C 
ATOM      8  C   UNL     1      19.726  -7.932  40.837  0.00  0.00    +0.000 C 
ATOM      9  C   UNL     1      18.484  -9.265  44.698  0.00  0.00    +0.000 A 
ATOM     10  C   UNL     1      20.956  -8.007  44.437  0.00  0.00    +0.000 A 
ATOM     11  C   UNL     1      19.300  -9.095  45.814  0.00  0.00    +0.000 A 
ATOM     12  C   UNL     1      20.536  -8.466  45.684  0.00  0.00    +0.000 A 
ENDROOT
BRANCH   7  13
ATOM     13  O   UNL     1      17.599  -8.608  39.934  0.00  0.00    +0.000 OA
ATOM     14  C   UNL     1      16.868  -7.421  39.747  0.00  0.00    +0.000 C 
ENDBRANCH   7  13
BRANCH   8  15
ATOM     15  O   UNL     1      20.237  -7.497  39.627  0.00  0.00    +0.000 OA
ATOM     16  C   UNL     1      20.763  -8.591  38.915  0.00  0.00    +0.000 C 
ENDBRANCH   8  15
TORSDOF 2
ENDMDL
MODEL 2
REMARK VINA RESULT:      -4.9     34.769     36.350
REMARK  Name = 3136_Dimethoxy.pdbqt.pdb
REMARK  2 active torsions:
REMARK  status: ('A' for Active; 'I' for Inactive)
REMARK    1  A    between atoms: C_7  and  O_13
REMARK    2  A    between atoms: C_8  and  O_15
REMARK                            x       y       z     vdW  Elec       q    Type
REMARK                         _______ _______ _______ _____ _____    ______ ____
ROOT
ATOM      1  O   UNL     1      27.082  23.838  27.844  0.00  0.00    +0.000 OA
ATOM      2  O   UNL     1      31.998  22.904  29.677  0.00  0.00    +0.000 OA
ATOM      3  C   UNL     1      29.363  24.337  27.711  0.00  0.00    +0.000 A 
ATOM      4  C   UNL     1      30.640  24.112  28.206  0.00  0.00    +0.000 A 
ATOM      5  C   UNL     1      28.213  23.600  28.247  0.00  0.00    +0.000 C 
ATOM      6  C   UNL     1      30.865  23.138  29.279  0.00  0.00    +0.000 C 
ATOM      7  C   UNL     1      28.463  22.583  29.297  0.00  0.00    +0.000 C 
ATOM      8  C   UNL     1      29.687  22.438  29.845  0.00  0.00    +0.000 C 
ATOM      9  C   UNL     1      29.162  25.270  26.694  0.00  0.00    +0.000 A 
ATOM     10  C   UNL     1      31.726  24.815  27.684  0.00  0.00    +0.000 A 
ATOM     11  C   UNL     1      30.245  25.974  26.173  0.00  0.00    +0.000 A 
ATOM     12  C   UNL     1      31.527  25.746  26.667  0.00  0.00    +0.000 A 
ENDROOT
BRANCH   7  13
ATOM     13  O   UNL     1      27.345  21.890  29.726  0.00  0.00    +0.000 OA
ATOM     14  C   UNL     1      26.708  22.610  30.753  0.00  0.00    +0.000 C 
ENDBRANCH   7  13
BRANCH   8  15
ATOM     15  O   UNL     1      29.960  21.571  30.888  0.00  0.00    +0.000 OA
ATOM     16  C   UNL     1      29.749  22.225  32.116  0.00  0.00    +0.000 C 
ENDBRANCH   8  15
TORSDOF 2
ENDMDL
MODEL 3
REMARK VINA RESULT:      -4.7     32.612     34.072
REMARK  Name = 3136_Dimethoxy.pdbqt.pdb
REMARK  2 active torsions:
REMARK  status: ('A' for Active; 'I' for Inactive)
REMARK    1  A    between atoms: C_7  and  O_13
REMARK    2  A    between atoms: C_8  and  O_15
REMARK                            x       y       z     vdW  Elec       q    Type
REMARK                         _______ _______ _______ _____ _____    ______ ____
ROOT
ATOM      1  O   UNL     1      25.405  22.789  29.845  0.00  0.00    +0.000 OA
ATOM      2  O   UNL     1      30.014  21.625  32.254  0.00  0.00    +0.000 OA
ATOM      3  C   UNL     1      27.741  22.823  29.751  0.00  0.00    +0.000 A 
ATOM      4  C   UNL     1      28.941  22.542  30.389  0.00  0.00    +0.000 A 
ATOM      5  C   UNL     1      26.461  22.495  30.388  0.00  0.00    +0.000 C 
ATOM      6  C   UNL     1      28.955  21.918  31.716  0.00  0.00    +0.000 C 
ATOM      7  C   UNL     1      26.491  21.819  31.708  0.00  0.00    +0.000 C 
ATOM      8  C   UNL     1      27.653  21.639  32.369  0.00  0.00    +0.000 C 
ATOM      9  C   UNL     1      27.743  23.422  28.491  0.00  0.00    +0.000 A 
ATOM     10  C   UNL     1      30.152  22.854  29.770  0.00  0.00    +0.000 A 
ATOM     11  C   UNL     1      28.950  23.735  27.872  0.00  0.00    +0.000 A 
ATOM     12  C   UNL     1      30.155  23.451  28.511  0.00  0.00    +0.000 A 
ENDROOT
BRANCH   7  13
ATOM     13  O   UNL     1      25.254  21.494  32.233  0.00  0.00    +0.000 OA
ATOM     14  C   UNL     1      24.711  22.612  32.894  0.00  0.00    +0.000 C 
ENDBRANCH   7  13
BRANCH   8  15
ATOM     15  O   UNL     1      27.734  21.097  33.640  0.00  0.00    +0.000 OA
ATOM     16  C   UNL     1      27.769  22.131  34.594  0.00  0.00    +0.000 C 
ENDBRANCH   8  15
TORSDOF 2
ENDMDL
MODEL 4
REMARK VINA RESULT:      -4.7     35.756     37.934
REMARK  Name = 3136_Dimethoxy.pdbqt.pdb
REMARK  2 active torsions:
REMARK  status: ('A' for Active; 'I' for Inactive)
REMARK    1  A    between atoms: C_7  and  O_13
REMARK    2  A    between atoms: C_8  and  O_15
REMARK                            x       y       z     vdW  Elec       q    Type
REMARK                         _______ _______ _______ _____ _____    ______ ____
ROOT
ATOM      1  O   UNL     1      41.067   1.041  11.903  0.00  0.00    +0.000 OA
ATOM      2  O   UNL     1      36.276  -0.217   9.940  0.00  0.00    +0.000 OA
ATOM      3  C   UNL     1      38.744   1.184  12.132  0.00  0.00    +0.000 A 
ATOM      4  C   UNL     1      37.497   0.877  11.607  0.00  0.00    +0.000 A 
ATOM      5  C   UNL     1      39.969   0.726  11.466  0.00  0.00    +0.000 C 
ATOM      6  C   UNL     1      37.376   0.096  10.372  0.00  0.00    +0.000 C 
ATOM      7  C   UNL     1      39.831  -0.105  10.245  0.00  0.00    +0.000 C 
ATOM      8  C   UNL     1      38.624  -0.317   9.682  0.00  0.00    +0.000 C 
ATOM      9  C   UNL     1      38.845   1.933  13.304  0.00  0.00    +0.000 A 
ATOM     10  C   UNL     1      36.340   1.314  12.253  0.00  0.00    +0.000 A 
ATOM     11  C   UNL     1      37.690   2.371  13.950  0.00  0.00    +0.000 A 
ATOM     12  C   UNL     1      36.438   2.061  13.425  0.00  0.00    +0.000 A 
ENDROOT
BRANCH   7  13
ATOM     13  O   UNL     1      41.020  -0.545   9.692  0.00  0.00    +0.000 OA
ATOM     14  C   UNL     1      41.257  -1.877  10.077  0.00  0.00    +0.000 C 
ENDBRANCH   7  13
BRANCH   8  15
ATOM     15  O   UNL     1      38.443  -1.008   8.497  0.00  0.00    +0.000 OA
ATOM     16  C   UNL     1      38.509  -0.113   7.413  0.00  0.00    +0.000 C 
ENDBRANCH   8  15
TORSDOF 2
ENDMDL
MODEL 5
REMARK VINA RESULT:      -4.4      3.079      4.908
REMARK  Name = 3136_Dimethoxy.pdbqt.pdb
REMARK  2 active torsions:
REMARK  status: ('A' for Active; 'I' for Inactive)
REMARK    1  A    between atoms: C_7  and  O_13
REMARK    2  A    between atoms: C_8  and  O_15
REMARK                            x       y       z     vdW  Elec       q    Type
REMARK                         _______ _______ _______ _____ _____    ______ ____
ROOT
ATOM      1  O   UNL     1      19.612 -10.924  48.112  0.00  0.00    +0.000 OA
ATOM      2  O   UNL     1      21.856  -8.044  44.230  0.00  0.00    +0.000 OA
ATOM      3  C   UNL     1      21.522  -9.830  47.322  0.00  0.00    +0.000 A 
ATOM      4  C   UNL     1      22.113  -9.102  46.300  0.00  0.00    +0.000 A 
ATOM      5  C   UNL     1      20.116 -10.238  47.232  0.00  0.00    +0.000 C 
ATOM      6  C   UNL     1      21.347  -8.731  45.105  0.00  0.00    +0.000 C 
ATOM      7  C   UNL     1      19.340  -9.813  46.042  0.00  0.00    +0.000 C 
ATOM      8  C   UNL     1      19.941  -9.193  45.006  0.00  0.00    +0.000 C 
ATOM      9  C   UNL     1      22.264 -10.182  48.449  0.00  0.00    +0.000 A 
ATOM     10  C   UNL     1      23.450  -8.715  46.399  0.00  0.00    +0.000 A 
ATOM     11  C   UNL     1      23.599  -9.798  48.550  0.00  0.00    +0.000 A 
ATOM     12  C   UNL     1      24.193  -9.064  47.525  0.00  0.00    +0.000 A 
ENDROOT
BRANCH   7  13
ATOM     13  O   UNL     1      18.009 -10.188  46.040  0.00  0.00    +0.000 OA
ATOM     14  C   UNL     1      17.216  -9.123  46.505  0.00  0.00    +0.000 C 
ENDBRANCH   7  13
BRANCH   8  15
ATOM     15  O   UNL     1      19.289  -8.854  43.834  0.00  0.00    +0.000 OA
ATOM     16  C   UNL     1      19.345  -9.932  42.932  0.00  0.00    +0.000 C 
ENDBRANCH   8  15
TORSDOF 2
ENDMDL
MODEL 6
REMARK VINA RESULT:      -4.4     18.241     20.172
REMARK  Name = 3136_Dimethoxy.pdbqt.pdb
REMARK  2 active torsions:
REMARK  status: ('A' for Active; 'I' for Inactive)
REMARK    1  A    between atoms: C_7  and  O_13
REMARK    2  A    between atoms: C_8  and  O_15
REMARK                            x       y       z     vdW  Elec       q    Type
REMARK                         _______ _______ _______ _____ _____    ______ ____
ROOT
ATOM      1  O   UNL     1      37.347 -15.288  39.602  0.00  0.00    +0.000 OA
ATOM      2  O   UNL     1      37.604 -14.642  34.318  0.00  0.00    +0.000 OA
ATOM      3  C   UNL     1      36.923 -13.907  37.763  0.00  0.00    +0.000 A 
ATOM      4  C   UNL     1      37.013 -13.730  36.389  0.00  0.00    +0.000 A 
ATOM      5  C   UNL     1      37.380 -15.154  38.386  0.00  0.00    +0.000 C 
ATOM      6  C   UNL     1      37.573 -14.781  35.533  0.00  0.00    +0.000 C 
ATOM      7  C   UNL     1      37.899 -16.228  37.503  0.00  0.00    +0.000 C 
ATOM      8  C   UNL     1      38.078 -16.015  36.183  0.00  0.00    +0.000 C 
ATOM      9  C   UNL     1      36.394 -12.897  38.565  0.00  0.00    +0.000 A 
ATOM     10  C   UNL     1      36.570 -12.541  35.808  0.00  0.00    +0.000 A 
ATOM     11  C   UNL     1      35.952 -11.710  37.987  0.00  0.00    +0.000 A 
ATOM     12  C   UNL     1      36.039 -11.532  36.608  0.00  0.00    +0.000 A 
ENDROOT
BRANCH   7  13
ATOM     13  O   UNL     1      38.268 -17.395  38.147  0.00  0.00    +0.000 OA
ATOM     14  C   UNL     1      37.151 -18.243  38.267  0.00  0.00    +0.000 C 
ENDBRANCH   7  13
BRANCH   8  15
ATOM     15  O   UNL     1      38.639 -16.946  35.327  0.00  0.00    +0.000 OA
ATOM     16  C   UNL     1      37.628 -17.767  34.793  0.00  0.00    +0.000 C 
ENDBRANCH   8  15
TORSDOF 2
ENDMDL
MODEL 7
REMARK VINA RESULT:      -4.3     47.811     50.439
REMARK  Name = 3136_Dimethoxy.pdbqt.pdb
REMARK  2 active torsions:
REMARK  status: ('A' for Active; 'I' for Inactive)
REMARK    1  A    between atoms: C_7  and  O_13
REMARK    2  A    between atoms: C_8  and  O_15
REMARK                            x       y       z     vdW  Elec       q    Type
REMARK                         _______ _______ _______ _____ _____    ______ ____
ROOT
ATOM      1  O   UNL     1      41.841 -29.259  -0.033  0.00  0.00    +0.000 OA
ATOM      2  O   UNL     1      43.174 -25.547   3.551  0.00  0.00    +0.000 OA
ATOM      3  C   UNL     1      41.124 -27.767   1.618  0.00  0.00    +0.000 A 
ATOM      4  C   UNL     1      41.474 -26.818   2.568  0.00  0.00    +0.000 A 
ATOM      5  C   UNL     1      42.147 -28.386   0.769  0.00  0.00    +0.000 C 
ATOM      6  C   UNL     1      42.874 -26.421   2.749  0.00  0.00    +0.000 C 
ATOM      7  C   UNL     1      43.552 -27.938   0.927  0.00  0.00    +0.000 C 
ATOM      8  C   UNL     1      43.903 -27.092   1.917  0.00  0.00    +0.000 C 
ATOM      9  C   UNL     1      39.789 -28.140   1.462  0.00  0.00    +0.000 A 
ATOM     10  C   UNL     1      40.491 -26.232   3.367  0.00  0.00    +0.000 A 
ATOM     11  C   UNL     1      38.807 -27.557   2.258  0.00  0.00    +0.000 A 
ATOM     12  C   UNL     1      39.157 -26.602   3.211  0.00  0.00    +0.000 A 
ENDROOT
BRANCH   7  13
ATOM     13  O   UNL     1      44.460 -28.525   0.065  0.00  0.00    +0.000 OA
ATOM     14  C   UNL     1      44.627 -27.712  -1.071  0.00  0.00    +0.000 C 
ENDBRANCH   7  13
BRANCH   8  15
ATOM     15  O   UNL     1      45.208 -26.710   2.170  0.00  0.00    +0.000 OA
ATOM     16  C   UNL     1      45.819 -27.646   3.025  0.00  0.00    +0.000 C 
ENDBRANCH   8  15
TORSDOF 2
ENDMDL
MODEL 8
REMARK VINA RESULT:      -4.2     32.923     34.006
REMARK  Name = 3136_Dimethoxy.pdbqt.pdb
REMARK  2 active torsions:
REMARK  status: ('A' for Active; 'I' for Inactive)
REMARK    1  A    between atoms: C_7  and  O_13
REMARK    2  A    between atoms: C_8  and  O_15
REMARK                            x       y       z     vdW  Elec       q    Type
REMARK                         _______ _______ _______ _____ _____    ______ ____
ROOT
ATOM      1  O   UNL     1      26.185  21.839  32.954  0.00  0.00    +0.000 OA
ATOM      2  O   UNL     1      26.726  22.875  27.755  0.00  0.00    +0.000 OA
ATOM      3  C   UNL     1      27.637  22.152  31.147  0.00  0.00    +0.000 A 
ATOM      4  C   UNL     1      27.776  22.397  29.789  0.00  0.00    +0.000 A 
ATOM      5  C   UNL     1      26.307  22.105  31.766  0.00  0.00    +0.000 C 
ATOM      6  C   UNL     1      26.598  22.608  28.941  0.00  0.00    +0.000 C 
ATOM      7  C   UNL     1      25.127  22.370  30.907  0.00  0.00    +0.000 C 
ATOM      8  C   UNL     1      25.258  22.508  29.571  0.00  0.00    +0.000 C 
ATOM      9  C   UNL     1      28.766  21.946  31.940  0.00  0.00    +0.000 A 
ATOM     10  C   UNL     1      29.047  22.444  29.213  0.00  0.00    +0.000 A 
ATOM     11  C   UNL     1      30.035  21.992  31.367  0.00  0.00    +0.000 A 
ATOM     12  C   UNL     1      30.176  22.241  30.004  0.00  0.00    +0.000 A 
ENDROOT
BRANCH   7  13
ATOM     13  O   UNL     1      23.908  22.359  31.559  0.00  0.00    +0.000 OA
ATOM     14  C   UNL     1      23.638  23.639  32.078  0.00  0.00    +0.000 C 
ENDBRANCH   7  13
BRANCH   8  15
ATOM     15  O   UNL     1      24.187  22.668  28.710  0.00  0.00    +0.000 OA
ATOM     16  C   UNL     1      23.899  24.038  28.562  0.00  0.00    +0.000 C 
ENDBRANCH   8  15
TORSDOF 2
ENDMDL
MODEL 9
REMARK VINA RESULT:      -4.2     26.907     28.981
REMARK  Name = 3136_Dimethoxy.pdbqt.pdb
REMARK  2 active torsions:
REMARK  status: ('A' for Active; 'I' for Inactive)
REMARK    1  A    between atoms: C_7  and  O_13
REMARK    2  A    between atoms: C_8  and  O_15
REMARK                            x       y       z     vdW  Elec       q    Type
REMARK                         _______ _______ _______ _____ _____    ______ ____
ROOT
ATOM      1  O   UNL     1      37.884  15.004  50.855  0.00  0.00    +0.000 OA
ATOM      2  O   UNL     1      36.160  10.763  48.128  0.00  0.00    +0.000 OA
ATOM      3  C   UNL     1      38.074  13.688  48.932  0.00  0.00    +0.000 A 
ATOM      4  C   UNL     1      37.642  12.569  48.234  0.00  0.00    +0.000 A 
ATOM      5  C   UNL     1      37.466  14.047  50.218  0.00  0.00    +0.000 C 
ATOM      6  C   UNL     1      36.574  11.718  48.770  0.00  0.00    +0.000 C 
ATOM      7  C   UNL     1      36.354  13.206  50.724  0.00  0.00    +0.000 C 
ATOM      8  C   UNL     1      36.004  12.065  50.095  0.00  0.00    +0.000 C 
ATOM      9  C   UNL     1      39.095  14.484  48.413  0.00  0.00    +0.000 A 
ATOM     10  C   UNL     1      38.224  12.241  47.009  0.00  0.00    +0.000 A 
ATOM     11  C   UNL     1      39.678  14.158  47.191  0.00  0.00    +0.000 A 
ATOM     12  C   UNL     1      39.243  13.037  46.488  0.00  0.00    +0.000 A 
ENDROOT
BRANCH   7  13
ATOM     13  O   UNL     1      35.792  13.625  51.916  0.00  0.00    +0.000 OA
ATOM     14  C   UNL     1      34.630  14.374  51.655  0.00  0.00    +0.000 C 
ENDBRANCH   7  13
BRANCH   8  15
ATOM     15  O   UNL     1      35.037  11.197  50.567  0.00  0.00    +0.000 OA
ATOM     16  C   UNL     1      35.628  10.252  51.428  0.00  0.00    +0.000 C 
ENDBRANCH   8  15
TORSDOF 2
ENDMDL
