MODEL 1
REMARK VINA RESULT:      -5.6      0.000      0.000
REMARK  Name = 326_Cuminaldehyde.pdb
REMARK  1 active torsions:
REMARK  status: ('A' for Active; 'I' for Inactive)
REMARK    1  A    between atoms: C_1  and  C_7
REMARK                            x       y       z     vdW  Elec       q    Type
REMARK                         _______ _______ _______ _____ _____    ______ ____
ROOT
ATOM      1  C   UNL     1      19.560   7.124  19.572  0.00  0.00    +0.000 C 
ATOM      2  C   UNL     1      19.853   8.466  19.827  0.00  0.00    +0.000 C 
ATOM      3  C   UNL     1      20.109   6.502  18.448  0.00  0.00    +0.000 C 
ATOM      4  C   UNL     1      20.689   9.178  18.969  0.00  0.00    +0.000 C 
ATOM      5  C   UNL     1      20.945   7.214  17.589  0.00  0.00    +0.000 C 
ATOM      6  C   UNL     1      21.234   8.551  17.851  0.00  0.00    +0.000 C 
ATOM      7  O   UNL     1      22.793   9.881  16.248  0.00  0.00    +0.000 OA
ATOM      8  C   UNL     1      22.088   9.280  16.972  0.00  0.00    +0.000 C 
ENDROOT
BRANCH   1   9
ATOM      9  C   UNL     1      18.684   6.378  20.472  0.00  0.00    +0.000 C 
ATOM     10  C   UNL     1      18.170   5.006  20.113  0.00  0.00    +0.000 C 
ATOM     11  C   UNL     1      18.254   6.945  21.801  0.00  0.00    +0.000 C 
ENDBRANCH   1   9
TORSDOF 1
ENDMDL
MODEL 2
REMARK VINA RESULT:      -5.6     16.950     18.671
REMARK  Name = 326_Cuminaldehyde.pdb
REMARK  1 active torsions:
REMARK  status: ('A' for Active; 'I' for Inactive)
REMARK    1  A    between atoms: C_1  and  C_7
REMARK                            x       y       z     vdW  Elec       q    Type
REMARK                         _______ _______ _______ _____ _____    ______ ____
ROOT
ATOM      1  C   UNL     1      36.862   0.441  13.933  0.00  0.00    +0.000 C 
ATOM      2  C   UNL     1      35.650   1.080  13.660  0.00  0.00    +0.000 C 
ATOM      3  C   UNL     1      36.895  -0.603  14.860  0.00  0.00    +0.000 C 
ATOM      4  C   UNL     1      34.483   0.677  14.306  0.00  0.00    +0.000 C 
ATOM      5  C   UNL     1      35.728  -1.006  15.508  0.00  0.00    +0.000 C 
ATOM      6  C   UNL     1      34.523  -0.365  15.229  0.00  0.00    +0.000 C 
ATOM      7  O   UNL     1      32.344  -1.116  16.437  0.00  0.00    +0.000 OA
ATOM      8  C   UNL     1      33.329  -0.776  15.891  0.00  0.00    +0.000 C 
ENDROOT
BRANCH   1   9
ATOM      9  C   UNL     1      38.085   0.862  13.256  0.00  0.00    +0.000 C 
ATOM     10  C   UNL     1      38.796   2.138  13.634  0.00  0.00    +0.000 C 
ATOM     11  C   UNL     1      38.694   0.041  12.147  0.00  0.00    +0.000 C 
ENDBRANCH   1   9
TORSDOF 1
ENDMDL
MODEL 3
REMARK VINA RESULT:      -5.4     16.415     17.629
REMARK  Name = 326_Cuminaldehyde.pdb
REMARK  1 active torsions:
REMARK  status: ('A' for Active; 'I' for Inactive)
REMARK    1  A    between atoms: C_1  and  C_7
REMARK                            x       y       z     vdW  Elec       q    Type
REMARK                         _______ _______ _______ _____ _____    ______ ____
ROOT
ATOM      1  C   UNL     1      35.204  -0.238  15.245  0.00  0.00    +0.000 C 
ATOM      2  C   UNL     1      34.434   0.813  14.742  0.00  0.00    +0.000 C 
ATOM      3  C   UNL     1      36.504  -0.426  14.769  0.00  0.00    +0.000 C 
ATOM      4  C   UNL     1      34.958   1.668  13.774  0.00  0.00    +0.000 C 
ATOM      5  C   UNL     1      37.029   0.427  13.800  0.00  0.00    +0.000 C 
ATOM      6  C   UNL     1      36.254   1.474  13.304  0.00  0.00    +0.000 C 
ATOM      7  O   UNL     1      37.233   3.068  11.495  0.00  0.00    +0.000 OA
ATOM      8  C   UNL     1      36.791   2.347  12.312  0.00  0.00    +0.000 C 
ENDROOT
BRANCH   1   9
ATOM      9  C   UNL     1      34.655  -1.132  16.260  0.00  0.00    +0.000 C 
ATOM     10  C   UNL     1      33.184  -1.139  16.592  0.00  0.00    +0.000 C 
ATOM     11  C   UNL     1      35.534  -2.091  17.024  0.00  0.00    +0.000 C 
ENDBRANCH   1   9
TORSDOF 1
ENDMDL
MODEL 4
REMARK VINA RESULT:      -5.4     16.238     18.080
REMARK  Name = 326_Cuminaldehyde.pdb
REMARK  1 active torsions:
REMARK  status: ('A' for Active; 'I' for Inactive)
REMARK    1  A    between atoms: C_1  and  C_7
REMARK                            x       y       z     vdW  Elec       q    Type
REMARK                         _______ _______ _______ _____ _____    ______ ____
ROOT
ATOM      1  C   UNL     1      36.371   1.499  13.790  0.00  0.00    +0.000 C 
ATOM      2  C   UNL     1      36.640   0.275  14.408  0.00  0.00    +0.000 C 
ATOM      3  C   UNL     1      35.086   2.041  13.870  0.00  0.00    +0.000 C 
ATOM      4  C   UNL     1      35.636  -0.399  15.100  0.00  0.00    +0.000 C 
ATOM      5  C   UNL     1      34.081   1.368  14.561  0.00  0.00    +0.000 C 
ATOM      6  C   UNL     1      34.357   0.148  15.176  0.00  0.00    +0.000 C 
ATOM      7  O   UNL     1      32.480  -1.109  16.467  0.00  0.00    +0.000 OA
ATOM      8  C   UNL     1      33.328  -0.541  15.883  0.00  0.00    +0.000 C 
ENDROOT
BRANCH   1   9
ATOM      9  C   UNL     1      37.424   2.204  13.065  0.00  0.00    +0.000 C 
ATOM     10  C   UNL     1      37.196   2.750  11.678  0.00  0.00    +0.000 C 
ATOM     11  C   UNL     1      38.788   2.419  13.671  0.00  0.00    +0.000 C 
ENDBRANCH   1   9
TORSDOF 1
ENDMDL
MODEL 5
REMARK VINA RESULT:      -5.3      3.793      5.973
REMARK  Name = 326_Cuminaldehyde.pdb
REMARK  1 active torsions:
REMARK  status: ('A' for Active; 'I' for Inactive)
REMARK    1  A    between atoms: C_1  and  C_7
REMARK                            x       y       z     vdW  Elec       q    Type
REMARK                         _______ _______ _______ _____ _____    ______ ____
ROOT
ATOM      1  C   UNL     1      19.167   5.730  19.571  0.00  0.00    +0.000 C 
ATOM      2  C   UNL     1      19.459   4.622  18.771  0.00  0.00    +0.000 C 
ATOM      3  C   UNL     1      18.232   5.606  20.602  0.00  0.00    +0.000 C 
ATOM      4  C   UNL     1      18.823   3.402  19.001  0.00  0.00    +0.000 C 
ATOM      5  C   UNL     1      17.596   4.388  20.832  0.00  0.00    +0.000 C 
ATOM      6  C   UNL     1      17.893   3.287  20.030  0.00  0.00    +0.000 C 
ATOM      7  O   UNL     1      16.705   1.012  20.459  0.00  0.00    +0.000 OA
ATOM      8  C   UNL     1      17.242   2.040  20.265  0.00  0.00    +0.000 C 
ENDROOT
BRANCH   1   9
ATOM      9  C   UNL     1      19.833   7.006  19.331  0.00  0.00    +0.000 C 
ATOM     10  C   UNL     1      19.820   8.108  20.361  0.00  0.00    +0.000 C 
ATOM     11  C   UNL     1      20.565   7.282  18.041  0.00  0.00    +0.000 C 
ENDBRANCH   1   9
TORSDOF 1
ENDMDL
MODEL 6
REMARK VINA RESULT:      -5.0     17.460     19.053
REMARK  Name = 326_Cuminaldehyde.pdb
REMARK  1 active torsions:
REMARK  status: ('A' for Active; 'I' for Inactive)
REMARK    1  A    between atoms: C_1  and  C_7
REMARK                            x       y       z     vdW  Elec       q    Type
REMARK                         _______ _______ _______ _____ _____    ______ ____
ROOT
ATOM      1  C   UNL     1      28.138  -0.426   4.722  0.00  0.00    +0.000 C 
ATOM      2  C   UNL     1      28.941   0.673   4.407  0.00  0.00    +0.000 C 
ATOM      3  C   UNL     1      28.681  -1.712   4.668  0.00  0.00    +0.000 C 
ATOM      4  C   UNL     1      30.274   0.488   4.045  0.00  0.00    +0.000 C 
ATOM      5  C   UNL     1      30.014  -1.898   4.305  0.00  0.00    +0.000 C 
ATOM      6  C   UNL     1      30.809  -0.796   3.994  0.00  0.00    +0.000 C 
ATOM      7  O   UNL     1      33.297  -1.142   3.316  0.00  0.00    +0.000 OA
ATOM      8  C   UNL     1      32.172  -0.986   3.622  0.00  0.00    +0.000 C 
ENDROOT
BRANCH   1   9
ATOM      9  C   UNL     1      26.741  -0.232   5.102  0.00  0.00    +0.000 C 
ATOM     10  C   UNL     1      26.303   0.967   5.905  0.00  0.00    +0.000 C 
ATOM     11  C   UNL     1      25.674  -1.222   4.709  0.00  0.00    +0.000 C 
ENDBRANCH   1   9
TORSDOF 1
ENDMDL
MODEL 7
REMARK VINA RESULT:      -4.9     18.937     20.930
REMARK  Name = 326_Cuminaldehyde.pdb
REMARK  1 active torsions:
REMARK  status: ('A' for Active; 'I' for Inactive)
REMARK    1  A    between atoms: C_1  and  C_7
REMARK                            x       y       z     vdW  Elec       q    Type
REMARK                         _______ _______ _______ _____ _____    ______ ____
ROOT
ATOM      1  C   UNL     1      41.356   7.918  19.809  0.00  0.00    +0.000 C 
ATOM      2  C   UNL     1      40.126   7.731  19.173  0.00  0.00    +0.000 C 
ATOM      3  C   UNL     1      41.460   7.695  21.184  0.00  0.00    +0.000 C 
ATOM      4  C   UNL     1      39.012   7.322  19.905  0.00  0.00    +0.000 C 
ATOM      5  C   UNL     1      40.347   7.288  21.917  0.00  0.00    +0.000 C 
ATOM      6  C   UNL     1      39.124   7.102  21.276  0.00  0.00    +0.000 C 
ATOM      7  O   UNL     1      37.044   6.342  22.643  0.00  0.00    +0.000 OA
ATOM      8  C   UNL     1      37.984   6.685  22.025  0.00  0.00    +0.000 C 
ENDROOT
BRANCH   1   9
ATOM      9  C   UNL     1      42.523   8.345  19.042  0.00  0.00    +0.000 C 
ATOM     10  C   UNL     1      43.288   9.594  19.400  0.00  0.00    +0.000 C 
ATOM     11  C   UNL     1      43.017   7.555  17.856  0.00  0.00    +0.000 C 
ENDBRANCH   1   9
TORSDOF 1
ENDMDL
MODEL 8
REMARK VINA RESULT:      -4.9      2.727      3.854
REMARK  Name = 326_Cuminaldehyde.pdb
REMARK  1 active torsions:
REMARK  status: ('A' for Active; 'I' for Inactive)
REMARK    1  A    between atoms: C_1  and  C_7
REMARK                            x       y       z     vdW  Elec       q    Type
REMARK                         _______ _______ _______ _____ _____    ______ ____
ROOT
ATOM      1  C   UNL     1      18.381   5.083  20.031  0.00  0.00    +0.000 C 
ATOM      2  C   UNL     1      17.923   5.599  21.245  0.00  0.00    +0.000 C 
ATOM      3  C   UNL     1      19.315   5.806  19.285  0.00  0.00    +0.000 C 
ATOM      4  C   UNL     1      18.394   6.826  21.710  0.00  0.00    +0.000 C 
ATOM      5  C   UNL     1      19.786   7.034  19.749  0.00  0.00    +0.000 C 
ATOM      6  C   UNL     1      19.325   7.542  20.962  0.00  0.00    +0.000 C 
ATOM      7  O   UNL     1      20.204   9.832  21.828  0.00  0.00    +0.000 OA
ATOM      8  C   UNL     1      19.807   8.797  21.436  0.00  0.00    +0.000 C 
ENDROOT
BRANCH   1   9
ATOM      9  C   UNL     1      17.888   3.798  19.545  0.00  0.00    +0.000 C 
ATOM     10  C   UNL     1      17.572   2.666  20.491  0.00  0.00    +0.000 C 
ATOM     11  C   UNL     1      17.671   3.543  18.075  0.00  0.00    +0.000 C 
ENDBRANCH   1   9
TORSDOF 1
ENDMDL
MODEL 9
REMARK VINA RESULT:      -4.9     35.445     36.939
REMARK  Name = 326_Cuminaldehyde.pdb
REMARK  1 active torsions:
REMARK  status: ('A' for Active; 'I' for Inactive)
REMARK    1  A    between atoms: C_1  and  C_7
REMARK                            x       y       z     vdW  Elec       q    Type
REMARK                         _______ _______ _______ _____ _____    ______ ____
ROOT
ATOM      1  C   UNL     1      41.438 -16.376  -1.029  0.00  0.00    +0.000 C 
ATOM      2  C   UNL     1      41.740 -15.041  -0.750  0.00  0.00    +0.000 C 
ATOM      3  C   UNL     1      40.109 -16.804  -0.978  0.00  0.00    +0.000 C 
ATOM      4  C   UNL     1      40.724 -14.143  -0.424  0.00  0.00    +0.000 C 
ATOM      5  C   UNL     1      39.093 -15.908  -0.652  0.00  0.00    +0.000 C 
ATOM      6  C   UNL     1      39.403 -14.578  -0.375  0.00  0.00    +0.000 C 
ATOM      7  O   UNL     1      37.506 -12.904   0.233  0.00  0.00    +0.000 OA
ATOM      8  C   UNL     1      38.363 -13.660  -0.042  0.00  0.00    +0.000 C 
ENDROOT
BRANCH   1   9
ATOM      9  C   UNL     1      42.502 -17.315  -1.371  0.00  0.00    +0.000 C 
ATOM     10  C   UNL     1      42.207 -18.763  -1.673  0.00  0.00    +0.000 C 
ATOM     11  C   UNL     1      43.944 -16.880  -1.437  0.00  0.00    +0.000 C 
ENDBRANCH   1   9
TORSDOF 1
ENDMDL
