MODEL 1
REMARK VINA RESULT:      -5.3      0.000      0.000
REMARK  Name = 3363_5FluorouracilDeoxyriboside.pdbqt.pdb
REMARK  4 active torsions:
REMARK  status: ('A' for Active; 'I' for Inactive)
REMARK    1  A    between atoms: N_4  and  C1*_13
REMARK    2  A    between atoms: C3*_12  and  O3*_16
REMARK    3  A    between atoms: C4*_15  and  C5*_18
REMARK    4  A    between atoms: C5*_18  and  O5*_19
REMARK                            x       y       z     vdW  Elec       q    Type
REMARK                         _______ _______ _______ _____ _____    ______ ____
ROOT
ATOM      1  F   UNL     1      49.081   8.753  22.462  0.00  0.00    +0.000 F 
ATOM      2  O   UNL     1      45.198   6.197  19.651  0.00  0.00    +0.000 OA
ATOM      3  O   UNL     1      46.955  10.139  21.212  0.00  0.00    +0.000 OA
ATOM      4  N   UNL     1      47.311   6.121  20.725  0.00  0.00    +0.000 N 
ATOM      5  N   UNL     1      46.163   8.144  20.378  0.00  0.00    +0.000 N 
ATOM      6  C   UNL     1      46.150   6.739  20.200  0.00  0.00    +0.000 C 
ATOM      7  C   UNL     1      48.230   6.925  21.295  0.00  0.00    +0.000 C 
ATOM      8  C   UNL     1      48.329   8.195  21.499  0.00  0.00    +0.000 C 
ATOM      9  C   UNL     1      47.115   8.939  21.030  0.00  0.00    +0.000 C 
ATOM     10  H   UNL     1      45.335   8.624  20.055  0.00  0.00    +0.000 HD
ENDROOT
BRANCH   4  13
ATOM     11  O4* UNL     1      46.976   3.903  21.632  0.00  0.00    +0.000 OA
ATOM     12  C3* UNL     1      48.255   2.682  20.134  0.00  0.00    +0.000 A 
ATOM     13  C1* UNL     1      47.541   4.775  20.692  0.00  0.00    +0.000 A 
ATOM     14  C2* UNL     1      48.314   4.040  19.772  0.00  0.00    +0.000 A 
ATOM     15  C4* UNL     1      47.408   2.614  21.300  0.00  0.00    +0.000 A 
BRANCH  12  16
ATOM     16  O3* UNL     1      48.333   1.657  19.234  0.00  0.00    +0.000 OA
ATOM     17  H3* UNL     1      47.856   1.857  18.408  0.00  0.00    +0.000 HD
ENDBRANCH  12  16
BRANCH  15  18
ATOM     18  C5* UNL     1      46.881   1.459  21.911  0.00  0.00    +0.000 C 
BRANCH  18  19
ATOM     19  O5* UNL     1      46.402   0.360  22.484  0.00  0.00    +0.000 OA
ATOM     20  H5* UNL     1      47.106  -0.301  22.602  0.00  0.00    +0.000 HD
ENDBRANCH  18  19
ENDBRANCH  15  18
ENDBRANCH   4  13
TORSDOF 4
ENDMDL
MODEL 2
REMARK VINA RESULT:      -4.9      3.053      5.606
REMARK  Name = 3363_5FluorouracilDeoxyriboside.pdbqt.pdb
REMARK  4 active torsions:
REMARK  status: ('A' for Active; 'I' for Inactive)
REMARK    1  A    between atoms: N_4  and  C1*_13
REMARK    2  A    between atoms: C3*_12  and  O3*_16
REMARK    3  A    between atoms: C4*_15  and  C5*_18
REMARK    4  A    between atoms: C5*_18  and  O5*_19
REMARK                            x       y       z     vdW  Elec       q    Type
REMARK                         _______ _______ _______ _____ _____    ______ ____
ROOT
ATOM      1  F   UNL     1      47.576   9.494  22.025  0.00  0.00    +0.000 F 
ATOM      2  O   UNL     1      45.357   4.721  20.682  0.00  0.00    +0.000 OA
ATOM      3  O   UNL     1      48.536   7.037  23.047  0.00  0.00    +0.000 OA
ATOM      4  N   UNL     1      45.235   7.089  20.680  0.00  0.00    +0.000 N 
ATOM      5  N   UNL     1      46.868   5.929  21.911  0.00  0.00    +0.000 N 
ATOM      6  C   UNL     1      45.756   5.823  21.041  0.00  0.00    +0.000 C 
ATOM      7  C   UNL     1      45.846   8.175  21.196  0.00  0.00    +0.000 C 
ATOM      8  C   UNL     1      46.847   8.367  21.986  0.00  0.00    +0.000 C 
ATOM      9  C   UNL     1      47.509   7.082  22.382  0.00  0.00    +0.000 C 
ATOM     10  H   UNL     1      47.298   5.051  22.165  0.00  0.00    +0.000 HD
ENDROOT
BRANCH   4  13
ATOM     11  O4* UNL     1      44.278   7.083  18.458  0.00  0.00    +0.000 OA
ATOM     12  C3* UNL     1      42.101   7.681  18.979  0.00  0.00    +0.000 A 
ATOM     13  C1* UNL     1      44.170   7.266  19.842  0.00  0.00    +0.000 A 
ATOM     14  C2* UNL     1      42.848   7.622  20.169  0.00  0.00    +0.000 A 
ATOM     15  C4* UNL     1      43.012   7.335  17.916  0.00  0.00    +0.000 A 
BRANCH  12  16
ATOM     16  O3* UNL     1      40.766   7.396  18.911  0.00  0.00    +0.000 OA
ATOM     17  H3* UNL     1      40.568   6.727  18.231  0.00  0.00    +0.000 HD
ENDBRANCH  12  16
BRANCH  15  18
ATOM     18  C5* UNL     1      42.696   7.057  16.571  0.00  0.00    +0.000 C 
BRANCH  18  19
ATOM     19  O5* UNL     1      42.377   6.795  15.308  0.00  0.00    +0.000 OA
ATOM     20  H5* UNL     1      41.584   7.293  15.043  0.00  0.00    +0.000 HD
ENDBRANCH  18  19
ENDBRANCH  15  18
ENDBRANCH   4  13
TORSDOF 4
ENDMDL
MODEL 3
REMARK VINA RESULT:      -4.8     25.902     27.413
REMARK  Name = 3363_5FluorouracilDeoxyriboside.pdbqt.pdb
REMARK  4 active torsions:
REMARK  status: ('A' for Active; 'I' for Inactive)
REMARK    1  A    between atoms: N_4  and  C1*_13
REMARK    2  A    between atoms: C3*_12  and  O3*_16
REMARK    3  A    between atoms: C4*_15  and  C5*_18
REMARK    4  A    between atoms: C5*_18  and  O5*_19
REMARK                            x       y       z     vdW  Elec       q    Type
REMARK                         _______ _______ _______ _____ _____    ______ ____
ROOT
ATOM      1  F   UNL     1      28.646  26.326  27.102  0.00  0.00    +0.000 F 
ATOM      2  O   UNL     1      31.923  22.855  29.696  0.00  0.00    +0.000 OA
ATOM      3  O   UNL     1      31.426  26.203  26.596  0.00  0.00    +0.000 OA
ATOM      4  N   UNL     1      29.802  23.901  29.524  0.00  0.00    +0.000 N 
ATOM      5  N   UNL     1      31.637  24.588  28.224  0.00  0.00    +0.000 N 
ATOM      6  C   UNL     1      31.168  23.692  29.216  0.00  0.00    +0.000 C 
ATOM      7  C   UNL     1      29.166  24.886  28.857  0.00  0.00    +0.000 C 
ATOM      8  C   UNL     1      29.505  25.741  27.953  0.00  0.00    +0.000 C 
ATOM      9  C   UNL     1      30.926  25.563  27.513  0.00  0.00    +0.000 C 
ATOM     10  H   UNL     1      32.597  24.450  27.942  0.00  0.00    +0.000 HD
ENDROOT
BRANCH   4  13
ATOM     11  O4* UNL     1      27.705  23.102  30.425  0.00  0.00    +0.000 OA
ATOM     12  C3* UNL     1      28.510  21.795  32.162  0.00  0.00    +0.000 A 
ATOM     13  C1* UNL     1      29.104  23.165  30.438  0.00  0.00    +0.000 A 
ATOM     14  C2* UNL     1      29.602  22.367  31.486  0.00  0.00    +0.000 A 
ATOM     15  C4* UNL     1      27.327  22.263  31.481  0.00  0.00    +0.000 A 
BRANCH  12  16
ATOM     16  O3* UNL     1      28.557  20.576  32.777  0.00  0.00    +0.000 OA
ATOM     17  H3* UNL     1      27.674  20.265  33.044  0.00  0.00    +0.000 HD
ENDBRANCH  12  16
BRANCH  15  18
ATOM     18  C5* UNL     1      26.003  21.811  31.651  0.00  0.00    +0.000 C 
BRANCH  18  19
ATOM     19  O5* UNL     1      24.762  21.370  31.824  0.00  0.00    +0.000 OA
ATOM     20  H5* UNL     1      24.579  21.219  32.768  0.00  0.00    +0.000 HD
ENDBRANCH  18  19
ENDBRANCH  15  18
ENDBRANCH   4  13
TORSDOF 4
ENDMDL
MODEL 4
REMARK VINA RESULT:      -4.7     29.019     30.190
REMARK  Name = 3363_5FluorouracilDeoxyriboside.pdbqt.pdb
REMARK  4 active torsions:
REMARK  status: ('A' for Active; 'I' for Inactive)
REMARK    1  A    between atoms: N_4  and  C1*_13
REMARK    2  A    between atoms: C3*_12  and  O3*_16
REMARK    3  A    between atoms: C4*_15  and  C5*_18
REMARK    4  A    between atoms: C5*_18  and  O5*_19
REMARK                            x       y       z     vdW  Elec       q    Type
REMARK                         _______ _______ _______ _____ _____    ______ ____
ROOT
ATOM      1  F   UNL     1      20.421  -0.863   6.401  0.00  0.00    +0.000 F 
ATOM      2  O   UNL     1      22.521  -0.962  11.410  0.00  0.00    +0.000 OA
ATOM      3  O   UNL     1      23.201  -0.658   6.881  0.00  0.00    +0.000 OA
ATOM      4  N   UNL     1      20.614  -0.790  10.011  0.00  0.00    +0.000 N 
ATOM      5  N   UNL     1      22.800  -0.725   9.148  0.00  0.00    +0.000 N 
ATOM      6  C   UNL     1      21.997  -0.836  10.309  0.00  0.00    +0.000 C 
ATOM      7  C   UNL     1      20.269  -0.651   8.715  0.00  0.00    +0.000 C 
ATOM      8  C   UNL     1      20.919  -0.542   7.606  0.00  0.00    +0.000 C 
ATOM      9  C   UNL     1      22.401  -0.639   7.808  0.00  0.00    +0.000 C 
ATOM     10  H   UNL     1      23.795  -0.793   9.307  0.00  0.00    +0.000 HD
ENDROOT
BRANCH   4  13
ATOM     11  O4* UNL     1      19.323  -2.098  11.585  0.00  0.00    +0.000 OA
ATOM     12  C3* UNL     1      17.930  -0.439  12.406  0.00  0.00    +0.000 A 
ATOM     13  C1* UNL     1      19.627  -0.887  10.950  0.00  0.00    +0.000 A 
ATOM     14  C2* UNL     1      18.790   0.130  11.450  0.00  0.00    +0.000 A 
ATOM     15  C4* UNL     1      18.281  -1.836  12.482  0.00  0.00    +0.000 A 
BRANCH  12  16
ATOM     16  O3* UNL     1      17.443   0.245  13.484  0.00  0.00    +0.000 OA
ATOM     17  H3* UNL     1      18.113   0.356  14.182  0.00  0.00    +0.000 HD
ENDBRANCH  12  16
BRANCH  15  18
ATOM     18  C5* UNL     1      17.849  -2.779  13.435  0.00  0.00    +0.000 C 
BRANCH  18  19
ATOM     19  O5* UNL     1      17.421  -3.661  14.332  0.00  0.00    +0.000 OA
ATOM     20  H5* UNL     1      16.840  -4.321  13.915  0.00  0.00    +0.000 HD
ENDBRANCH  18  19
ENDBRANCH  15  18
ENDBRANCH   4  13
TORSDOF 4
ENDMDL
MODEL 5
REMARK VINA RESULT:      -4.5     29.132     30.178
REMARK  Name = 3363_5FluorouracilDeoxyriboside.pdbqt.pdb
REMARK  4 active torsions:
REMARK  status: ('A' for Active; 'I' for Inactive)
REMARK    1  A    between atoms: N_4  and  C1*_13
REMARK    2  A    between atoms: C3*_12  and  O3*_16
REMARK    3  A    between atoms: C4*_15  and  C5*_18
REMARK    4  A    between atoms: C5*_18  and  O5*_19
REMARK                            x       y       z     vdW  Elec       q    Type
REMARK                         _______ _______ _______ _____ _____    ______ ____
ROOT
ATOM      1  F   UNL     1      20.461  -1.221   6.510  0.00  0.00    +0.000 F 
ATOM      2  O   UNL     1      22.575  -1.131  11.513  0.00  0.00    +0.000 OA
ATOM      3  O   UNL     1      22.573   0.518   7.230  0.00  0.00    +0.000 OA
ATOM      4  N   UNL     1      20.853  -1.848  10.049  0.00  0.00    +0.000 N 
ATOM      5  N   UNL     1      22.475  -0.279   9.389  0.00  0.00    +0.000 N 
ATOM      6  C   UNL     1      21.998  -1.109  10.432  0.00  0.00    +0.000 C 
ATOM      7  C   UNL     1      20.394  -1.665   8.795  0.00  0.00    +0.000 C 
ATOM      8  C   UNL     1      20.755  -0.941   7.790  0.00  0.00    +0.000 C 
ATOM      9  C   UNL     1      22.001  -0.159   8.075  0.00  0.00    +0.000 C 
ATOM     10  H   UNL     1      23.315   0.238   9.603  0.00  0.00    +0.000 HD
ENDROOT
BRANCH   4  13
ATOM     11  O4* UNL     1      19.296  -2.304  11.844  0.00  0.00    +0.000 OA
ATOM     12  C3* UNL     1      19.439  -4.617  11.893  0.00  0.00    +0.000 A 
ATOM     13  C1* UNL     1      20.205  -2.730  10.867  0.00  0.00    +0.000 A 
ATOM     14  C2* UNL     1      20.291  -4.135  10.884  0.00  0.00    +0.000 A 
ATOM     15  C4* UNL     1      18.818  -3.455  12.482  0.00  0.00    +0.000 A 
BRANCH  12  16
ATOM     16  O3* UNL     1      18.803  -5.825  11.831  0.00  0.00    +0.000 OA
ATOM     17  H3* UNL     1      18.526  -6.048  10.924  0.00  0.00    +0.000 HD
ENDBRANCH  12  16
BRANCH  15  18
ATOM     18  C5* UNL     1      17.740  -3.425  13.388  0.00  0.00    +0.000 C 
BRANCH  18  19
ATOM     19  O5* UNL     1      16.732  -3.412  14.254  0.00  0.00    +0.000 OA
ATOM     20  H5* UNL     1      16.949  -3.940  15.042  0.00  0.00    +0.000 HD
ENDBRANCH  18  19
ENDBRANCH  15  18
ENDBRANCH   4  13
TORSDOF 4
ENDMDL
MODEL 6
REMARK VINA RESULT:      -4.3     25.918     27.328
REMARK  Name = 3363_5FluorouracilDeoxyriboside.pdbqt.pdb
REMARK  4 active torsions:
REMARK  status: ('A' for Active; 'I' for Inactive)
REMARK    1  A    between atoms: N_4  and  C1*_13
REMARK    2  A    between atoms: C3*_12  and  O3*_16
REMARK    3  A    between atoms: C4*_15  and  C5*_18
REMARK    4  A    between atoms: C5*_18  and  O5*_19
REMARK                            x       y       z     vdW  Elec       q    Type
REMARK                         _______ _______ _______ _____ _____    ______ ____
ROOT
ATOM      1  F   UNL     1      29.571  26.744  25.843  0.00  0.00    +0.000 F 
ATOM      2  O   UNL     1      31.696  23.118  29.285  0.00  0.00    +0.000 OA
ATOM      3  O   UNL     1      32.357  26.522  26.279  0.00  0.00    +0.000 OA
ATOM      4  N   UNL     1      29.786  24.246  28.449  0.00  0.00    +0.000 N 
ATOM      5  N   UNL     1      31.968  24.879  27.844  0.00  0.00    +0.000 N 
ATOM      6  C   UNL     1      31.169  23.989  28.603  0.00  0.00    +0.000 C 
ATOM      7  C   UNL     1      29.436  25.263  27.635  0.00  0.00    +0.000 C 
ATOM      8  C   UNL     1      30.082  26.116  26.915  0.00  0.00    +0.000 C 
ATOM      9  C   UNL     1      31.563  25.890  26.963  0.00  0.00    +0.000 C 
ATOM     10  H   UNL     1      32.962  24.708  27.891  0.00  0.00    +0.000 HD
ENDROOT
BRANCH   4  13
ATOM     11  O4* UNL     1      28.933  23.064  30.380  0.00  0.00    +0.000 OA
ATOM     12  C3* UNL     1      26.870  22.415  29.549  0.00  0.00    +0.000 A 
ATOM     13  C1* UNL     1      28.802  23.525  29.064  0.00  0.00    +0.000 A 
ATOM     14  C2* UNL     1      27.547  23.142  28.553  0.00  0.00    +0.000 A 
ATOM     15  C4* UNL     1      27.751  22.380  30.690  0.00  0.00    +0.000 A 
BRANCH  12  16
ATOM     16  O3* UNL     1      25.510  22.407  29.683  0.00  0.00    +0.000 OA
ATOM     17  H3* UNL     1      25.061  22.778  28.902  0.00  0.00    +0.000 HD
ENDBRANCH  12  16
BRANCH  15  18
ATOM     18  C5* UNL     1      27.448  21.948  31.996  0.00  0.00    +0.000 C 
BRANCH  18  19
ATOM     19  O5* UNL     1      27.182  21.539  33.232  0.00  0.00    +0.000 OA
ATOM     20  H5* UNL     1      27.996  21.254  33.682  0.00  0.00    +0.000 HD
ENDBRANCH  18  19
ENDBRANCH  15  18
ENDBRANCH   4  13
TORSDOF 4
ENDMDL
MODEL 7
REMARK VINA RESULT:      -4.1     34.660     36.278
REMARK  Name = 3363_5FluorouracilDeoxyriboside.pdbqt.pdb
REMARK  4 active torsions:
REMARK  status: ('A' for Active; 'I' for Inactive)
REMARK    1  A    between atoms: N_4  and  C1*_13
REMARK    2  A    between atoms: C3*_12  and  O3*_16
REMARK    3  A    between atoms: C4*_15  and  C5*_18
REMARK    4  A    between atoms: C5*_18  and  O5*_19
REMARK                            x       y       z     vdW  Elec       q    Type
REMARK                         _______ _______ _______ _____ _____    ______ ____
ROOT
ATOM      1  F   UNL     1      29.937 -21.747   9.161  0.00  0.00    +0.000 F 
ATOM      2  O   UNL     1      26.266 -20.362   5.404  0.00  0.00    +0.000 OA
ATOM      3  O   UNL     1      27.600 -20.284   9.794  0.00  0.00    +0.000 OA
ATOM      4  N   UNL     1      28.420 -21.204   5.923  0.00  0.00    +0.000 N 
ATOM      5  N   UNL     1      27.019 -20.274   7.566  0.00  0.00    +0.000 N 
ATOM      6  C   UNL     1      27.169 -20.601   6.196  0.00  0.00    +0.000 C 
ATOM      7  C   UNL     1      29.261 -21.374   6.963  0.00  0.00    +0.000 C 
ATOM      8  C   UNL     1      29.213 -21.110   8.225  0.00  0.00    +0.000 C 
ATOM      9  C   UNL     1      27.897 -20.519   8.630  0.00  0.00    +0.000 C 
ATOM     10  H   UNL     1      26.124 -19.877   7.816  0.00  0.00    +0.000 HD
ENDROOT
BRANCH   4  13
ATOM     11  O4* UNL     1      29.323 -20.737   3.727  0.00  0.00    +0.000 OA
ATOM     12  C3* UNL     1      29.300 -22.879   2.843  0.00  0.00    +0.000 A 
ATOM     13  C1* UNL     1      28.812 -21.624   4.683  0.00  0.00    +0.000 A 
ATOM     14  C2* UNL     1      28.802 -22.930   4.157  0.00  0.00    +0.000 A 
ATOM     15  C4* UNL     1      29.627 -21.497   2.591  0.00  0.00    +0.000 A 
BRANCH  12  16
ATOM     16  O3* UNL     1      29.987 -23.904   2.256  0.00  0.00    +0.000 OA
ATOM     17  H3* UNL     1      30.398 -24.494   2.914  0.00  0.00    +0.000 HD
ENDBRANCH  12  16
BRANCH  15  18
ATOM     18  C5* UNL     1      30.344 -20.969   1.499  0.00  0.00    +0.000 C 
BRANCH  18  19
ATOM     19  O5* UNL     1      31.006 -20.456   0.468  0.00  0.00    +0.000 OA
ATOM     20  H5* UNL     1      31.467 -21.155  -0.027  0.00  0.00    +0.000 HD
ENDBRANCH  18  19
ENDBRANCH  15  18
ENDBRANCH   4  13
TORSDOF 4
ENDMDL
MODEL 8
REMARK VINA RESULT:      -4.1     33.680     34.195
REMARK  Name = 3363_5FluorouracilDeoxyriboside.pdbqt.pdb
REMARK  4 active torsions:
REMARK  status: ('A' for Active; 'I' for Inactive)
REMARK    1  A    between atoms: N_4  and  C1*_13
REMARK    2  A    between atoms: C3*_12  and  O3*_16
REMARK    3  A    between atoms: C4*_15  and  C5*_18
REMARK    4  A    between atoms: C5*_18  and  O5*_19
REMARK                            x       y       z     vdW  Elec       q    Type
REMARK                         _______ _______ _______ _____ _____    ______ ____
ROOT
ATOM      1  F   UNL     1      29.239 -21.590   8.634  0.00  0.00    +0.000 F 
ATOM      2  O   UNL     1      26.100 -17.178   9.070  0.00  0.00    +0.000 OA
ATOM      3  O   UNL     1      28.952 -19.723   6.529  0.00  0.00    +0.000 OA
ATOM      4  N   UNL     1      26.781 -19.278   9.934  0.00  0.00    +0.000 N 
ATOM      5  N   UNL     1      27.458 -18.528   7.811  0.00  0.00    +0.000 N 
ATOM      6  C   UNL     1      26.709 -18.238   8.977  0.00  0.00    +0.000 C 
ATOM      7  C   UNL     1      27.523 -20.357   9.614  0.00  0.00    +0.000 C 
ATOM      8  C   UNL     1      28.228 -20.707   8.592  0.00  0.00    +0.000 C 
ATOM      9  C   UNL     1      28.264 -19.641   7.539  0.00  0.00    +0.000 C 
ATOM     10  H   UNL     1      27.468 -17.796   7.115  0.00  0.00    +0.000 HD
ENDROOT
BRANCH   4  13
ATOM     11  O4* UNL     1      26.341 -20.251  12.105  0.00  0.00    +0.000 OA
ATOM     12  C3* UNL     1      24.900 -18.648  12.955  0.00  0.00    +0.000 A 
ATOM     13  C1* UNL     1      26.158 -19.243  11.149  0.00  0.00    +0.000 A 
ATOM     14  C2* UNL     1      25.290 -18.260  11.661  0.00  0.00    +0.000 A 
ATOM     15  C4* UNL     1      25.572 -19.896  13.220  0.00  0.00    +0.000 A 
BRANCH  12  16
ATOM     16  O3* UNL     1      24.601 -17.761  13.951  0.00  0.00    +0.000 OA
ATOM     17  H3* UNL     1      24.702 -16.836  13.662  0.00  0.00    +0.000 HD
ENDBRANCH  12  16
BRANCH  15  18
ATOM     18  C5* UNL     1      25.665 -20.578  14.450  0.00  0.00    +0.000 C 
BRANCH  18  19
ATOM     19  O5* UNL     1      25.732 -21.216  15.613  0.00  0.00    +0.000 OA
ATOM     20  H5* UNL     1      26.163 -20.660  16.286  0.00  0.00    +0.000 HD
ENDBRANCH  18  19
ENDBRANCH  15  18
ENDBRANCH   4  13
TORSDOF 4
ENDMDL
MODEL 9
REMARK VINA RESULT:      -4.1     31.313     32.329
REMARK  Name = 3363_5FluorouracilDeoxyriboside.pdbqt.pdb
REMARK  4 active torsions:
REMARK  status: ('A' for Active; 'I' for Inactive)
REMARK    1  A    between atoms: N_4  and  C1*_13
REMARK    2  A    between atoms: C3*_12  and  O3*_16
REMARK    3  A    between atoms: C4*_15  and  C5*_18
REMARK    4  A    between atoms: C5*_18  and  O5*_19
REMARK                            x       y       z     vdW  Elec       q    Type
REMARK                         _______ _______ _______ _____ _____    ______ ____
ROOT
ATOM      1  F   UNL     1      19.102   9.902  33.434  0.00  0.00    +0.000 F 
ATOM      2  O   UNL     1      19.829   7.332  38.164  0.00  0.00    +0.000 OA
ATOM      3  O   UNL     1      18.831   7.098  33.690  0.00  0.00    +0.000 OA
ATOM      4  N   UNL     1      20.041   9.310  36.875  0.00  0.00    +0.000 N 
ATOM      5  N   UNL     1      19.423   7.258  35.910  0.00  0.00    +0.000 N 
ATOM      6  C   UNL     1      19.781   7.937  37.100  0.00  0.00    +0.000 C 
ATOM      7  C   UNL     1      19.918   9.761  35.610  0.00  0.00    +0.000 C 
ATOM      8  C   UNL     1      19.604   9.225  34.480  0.00  0.00    +0.000 C 
ATOM      9  C   UNL     1      19.252   7.776  34.619  0.00  0.00    +0.000 C 
ATOM     10  H   UNL     1      19.190   6.282  36.027  0.00  0.00    +0.000 HD
ENDROOT
BRANCH   4  13
ATOM     11  O4* UNL     1      21.720  10.608  38.038  0.00  0.00    +0.000 OA
ATOM     12  C3* UNL     1      20.374  11.652  39.609  0.00  0.00    +0.000 A 
ATOM     13  C1* UNL     1      20.394  10.191  37.858  0.00  0.00    +0.000 A 
ATOM     14  C2* UNL     1      19.568  10.828  38.804  0.00  0.00    +0.000 A 
ATOM     15  C4* UNL     1      21.720  11.506  39.112  0.00  0.00    +0.000 A 
BRANCH  12  16
ATOM     16  O3* UNL     1      19.934  12.814  40.178  0.00  0.00    +0.000 OA
ATOM     17  H3* UNL     1      19.986  12.789  41.151  0.00  0.00    +0.000 HD
ENDBRANCH  12  16
BRANCH  15  18
ATOM     18  C5* UNL     1      22.850  12.277  39.452  0.00  0.00    +0.000 C 
BRANCH  18  19
ATOM     19  O5* UNL     1      23.903  13.014  39.788  0.00  0.00    +0.000 OA
ATOM     20  H5* UNL     1      24.506  12.509  40.361  0.00  0.00    +0.000 HD
ENDBRANCH  18  19
ENDBRANCH  15  18
ENDBRANCH   4  13
TORSDOF 4
ENDMDL
