MODEL 1
REMARK VINA RESULT:      -5.8      0.000      0.000
REMARK  Name = 3385_5Fluorouracil.pdbqt.pdb
REMARK  0 active torsions:
REMARK  status: ('A' for Active; 'I' for Inactive)
REMARK                            x       y       z     vdW  Elec       q    Type
REMARK                         _______ _______ _______ _____ _____    ______ ____
ROOT
ATOM      1  F   UNL     1      36.550   0.891  37.784  0.00  0.00    +0.000 F 
ATOM      2  O   UNL     1      38.173   2.297  35.936  0.00  0.00    +0.000 OA
ATOM      3  O   UNL     1      41.377  -1.012  36.189  0.00  0.00    +0.000 OA
ATOM      4  N   UNL     1      39.797   0.676  36.120  0.00  0.00    +0.000 N 
ATOM      5  N   UNL     1      39.546  -1.109  37.583  0.00  0.00    +0.000 N 
ATOM      6  C   UNL     1      38.590   1.287  36.491  0.00  0.00    +0.000 C 
ATOM      7  C   UNL     1      40.333  -0.527  36.600  0.00  0.00    +0.000 C 
ATOM      8  C   UNL     1      37.848   0.599  37.602  0.00  0.00    +0.000 C 
ATOM      9  C   UNL     1      38.413  -0.502  37.966  0.00  0.00    +0.000 C 
ATOM     10  H   UNL     1      40.312   1.123  35.377  0.00  0.00    +0.000 HD
ATOM     11  H   UNL     1      39.843  -1.986  37.991  0.00  0.00    +0.000 HD
ENDROOT
TORSDOF 0
ENDMDL
MODEL 2
REMARK VINA RESULT:      -5.2      2.102      2.849
REMARK  Name = 3385_5Fluorouracil.pdbqt.pdb
REMARK  0 active torsions:
REMARK  status: ('A' for Active; 'I' for Inactive)
REMARK                            x       y       z     vdW  Elec       q    Type
REMARK                         _______ _______ _______ _____ _____    ______ ____
ROOT
ATOM      1  F   UNL     1      39.281   1.986  35.861  0.00  0.00    +0.000 F 
ATOM      2  O   UNL     1      40.855  -0.367  35.776  0.00  0.00    +0.000 OA
ATOM      3  O   UNL     1      38.529  -2.090  39.367  0.00  0.00    +0.000 OA
ATOM      4  N   UNL     1      39.736  -1.190  37.611  0.00  0.00    +0.000 N 
ATOM      5  N   UNL     1      38.110   0.070  38.685  0.00  0.00    +0.000 N 
ATOM      6  C   UNL     1      40.051  -0.188  36.682  0.00  0.00    +0.000 C 
ATOM      7  C   UNL     1      38.769  -1.149  38.625  0.00  0.00    +0.000 C 
ATOM      8  C   UNL     1      39.316   1.108  36.877  0.00  0.00    +0.000 C 
ATOM      9  C   UNL     1      38.441   1.043  37.824  0.00  0.00    +0.000 C 
ATOM     10  H   UNL     1      40.221  -2.068  37.499  0.00  0.00    +0.000 HD
ATOM     11  H   UNL     1      37.387   0.201  39.381  0.00  0.00    +0.000 HD
ENDROOT
TORSDOF 0
ENDMDL
MODEL 3
REMARK VINA RESULT:      -4.0     18.303     19.048
REMARK  Name = 3385_5Fluorouracil.pdbqt.pdb
REMARK  0 active torsions:
REMARK  status: ('A' for Active; 'I' for Inactive)
REMARK                            x       y       z     vdW  Elec       q    Type
REMARK                         _______ _______ _______ _____ _____    ______ ____
ROOT
ATOM      1  F   UNL     1      47.702   5.638  19.104  0.00  0.00    +0.000 F 
ATOM      2  O   UNL     1      49.157   3.228  18.789  0.00  0.00    +0.000 OA
ATOM      3  O   UNL     1      46.327   1.100  21.745  0.00  0.00    +0.000 OA
ATOM      4  N   UNL     1      47.783   2.192  20.318  0.00  0.00    +0.000 N 
ATOM      5  N   UNL     1      46.102   3.367  21.405  0.00  0.00    +0.000 N 
ATOM      6  C   UNL     1      48.258   3.310  19.617  0.00  0.00    +0.000 C 
ATOM      7  C   UNL     1      46.702   2.132  21.208  0.00  0.00    +0.000 C 
ATOM      8  C   UNL     1      47.569   4.604  19.950  0.00  0.00    +0.000 C 
ATOM      9  C   UNL     1      46.584   4.444  20.767  0.00  0.00    +0.000 C 
ATOM     10  H   UNL     1      48.233   1.313  20.110  0.00  0.00    +0.000 HD
ATOM     11  H   UNL     1      45.307   3.430  22.028  0.00  0.00    +0.000 HD
ENDROOT
TORSDOF 0
ENDMDL
MODEL 4
REMARK VINA RESULT:      -4.0     20.704     21.435
REMARK  Name = 3385_5Fluorouracil.pdbqt.pdb
REMARK  0 active torsions:
REMARK  status: ('A' for Active; 'I' for Inactive)
REMARK                            x       y       z     vdW  Elec       q    Type
REMARK                         _______ _______ _______ _____ _____    ______ ____
ROOT
ATOM      1  F   UNL     1      20.509  -9.841  41.899  0.00  0.00    +0.000 F 
ATOM      2  O   UNL     1      21.332  -7.146  42.186  0.00  0.00    +0.000 OA
ATOM      3  O   UNL     1      18.193  -5.825  39.074  0.00  0.00    +0.000 OA
ATOM      4  N   UNL     1      19.811  -6.504  40.582  0.00  0.00    +0.000 N 
ATOM      5  N   UNL     1      18.503  -8.072  39.477  0.00  0.00    +0.000 N 
ATOM      6  C   UNL     1      20.512  -7.460  41.332  0.00  0.00    +0.000 C 
ATOM      7  C   UNL     1      18.783  -6.725  39.655  0.00  0.00    +0.000 C 
ATOM      8  C   UNL     1      20.166  -8.888  41.017  0.00  0.00    +0.000 C 
ATOM      9  C   UNL     1      19.203  -8.987  40.163  0.00  0.00    +0.000 C 
ATOM     10  H   UNL     1      20.030  -5.538  40.776  0.00  0.00    +0.000 HD
ATOM     11  H   UNL     1      17.771  -8.338  38.831  0.00  0.00    +0.000 HD
ENDROOT
TORSDOF 0
ENDMDL
MODEL 5
REMARK VINA RESULT:      -3.9     18.037     18.719
REMARK  Name = 3385_5Fluorouracil.pdbqt.pdb
REMARK  0 active torsions:
REMARK  status: ('A' for Active; 'I' for Inactive)
REMARK                            x       y       z     vdW  Elec       q    Type
REMARK                         _______ _______ _______ _____ _____    ______ ____
ROOT
ATOM      1  F   UNL     1      44.160   9.973  19.715  0.00  0.00    +0.000 F 
ATOM      2  O   UNL     1      43.166   7.348  20.097  0.00  0.00    +0.000 OA
ATOM      3  O   UNL     1      46.489   6.510  23.185  0.00  0.00    +0.000 OA
ATOM      4  N   UNL     1      44.868   6.915  21.585  0.00  0.00    +0.000 N 
ATOM      5  N   UNL     1      46.506   8.499  22.025  0.00  0.00    +0.000 N 
ATOM      6  C   UNL     1      44.210   7.704  20.631  0.00  0.00    +0.000 C 
ATOM      7  C   UNL     1      46.003   7.245  22.338  0.00  0.00    +0.000 C 
ATOM      8  C   UNL     1      44.875   9.018  20.331  0.00  0.00    +0.000 C 
ATOM      9  C   UNL     1      45.902   9.236  21.082  0.00  0.00    +0.000 C 
ATOM     10  H   UNL     1      44.439   6.027  21.800  0.00  0.00    +0.000 HD
ATOM     11  H   UNL     1      47.324   8.835  22.518  0.00  0.00    +0.000 HD
ENDROOT
TORSDOF 0
ENDMDL
MODEL 6
REMARK VINA RESULT:      -3.8     17.541     18.455
REMARK  Name = 3385_5Fluorouracil.pdbqt.pdb
REMARK  0 active torsions:
REMARK  status: ('A' for Active; 'I' for Inactive)
REMARK                            x       y       z     vdW  Elec       q    Type
REMARK                         _______ _______ _______ _____ _____    ______ ____
ROOT
ATOM      1  F   UNL     1      42.911   7.548  18.532  0.00  0.00    +0.000 F 
ATOM      2  O   UNL     1      43.250   7.391  21.339  0.00  0.00    +0.000 OA
ATOM      3  O   UNL     1      38.683   7.083  21.903  0.00  0.00    +0.000 OA
ATOM      4  N   UNL     1      40.967   7.308  21.616  0.00  0.00    +0.000 N 
ATOM      5  N   UNL     1      39.534   7.466  19.797  0.00  0.00    +0.000 N 
ATOM      6  C   UNL     1      42.130   7.470  20.850  0.00  0.00    +0.000 C 
ATOM      7  C   UNL     1      39.640   7.273  21.167  0.00  0.00    +0.000 C 
ATOM      8  C   UNL     1      41.893   7.727  19.389  0.00  0.00    +0.000 C 
ATOM      9  C   UNL     1      40.644   7.663  19.071  0.00  0.00    +0.000 C 
ATOM     10  H   UNL     1      41.104   7.135  22.601  0.00  0.00    +0.000 HD
ATOM     11  H   UNL     1      38.616   7.453  19.371  0.00  0.00    +0.000 HD
ENDROOT
TORSDOF 0
ENDMDL
MODEL 7
REMARK VINA RESULT:      -3.7     20.864     21.699
REMARK  Name = 3385_5Fluorouracil.pdbqt.pdb
REMARK  0 active torsions:
REMARK  status: ('A' for Active; 'I' for Inactive)
REMARK                            x       y       z     vdW  Elec       q    Type
REMARK                         _______ _______ _______ _____ _____    ______ ____
ROOT
ATOM      1  F   UNL     1      15.823   3.318  32.614  0.00  0.00    +0.000 F 
ATOM      2  O   UNL     1      17.444   4.107  30.429  0.00  0.00    +0.000 OA
ATOM      3  O   UNL     1      20.748   5.482  33.339  0.00  0.00    +0.000 OA
ATOM      4  N   UNL     1      19.059   4.855  31.889  0.00  0.00    +0.000 N 
ATOM      5  N   UNL     1      18.726   4.774  34.185  0.00  0.00    +0.000 N 
ATOM      6  C   UNL     1      17.788   4.348  31.580  0.00  0.00    +0.000 C 
ATOM      7  C   UNL     1      19.609   5.076  33.159  0.00  0.00    +0.000 C 
ATOM      8  C   UNL     1      16.897   4.110  32.766  0.00  0.00    +0.000 C 
ATOM      9  C   UNL     1      17.496   4.330  33.887  0.00  0.00    +0.000 C 
ATOM     10  H   UNL     1      19.673   5.023  31.106  0.00  0.00    +0.000 HD
ATOM     11  H   UNL     1      19.030   4.895  35.143  0.00  0.00    +0.000 HD
ENDROOT
TORSDOF 0
ENDMDL
MODEL 8
REMARK VINA RESULT:      -3.6     24.214     24.430
REMARK  Name = 3385_5Fluorouracil.pdbqt.pdb
REMARK  0 active torsions:
REMARK  status: ('A' for Active; 'I' for Inactive)
REMARK                            x       y       z     vdW  Elec       q    Type
REMARK                         _______ _______ _______ _____ _____    ______ ____
ROOT
ATOM      1  F   UNL     1      50.535  -3.775  16.171  0.00  0.00    +0.000 F 
ATOM      2  O   UNL     1      48.501  -2.130  15.085  0.00  0.00    +0.000 OA
ATOM      3  O   UNL     1      45.954  -5.856  14.136  0.00  0.00    +0.000 OA
ATOM      4  N   UNL     1      47.267  -3.998  14.551  0.00  0.00    +0.000 N 
ATOM      5  N   UNL     1      48.090  -6.131  14.953  0.00  0.00    +0.000 N 
ATOM      6  C   UNL     1      48.424  -3.350  15.008  0.00  0.00    +0.000 C 
ATOM      7  C   UNL     1      47.013  -5.376  14.511  0.00  0.00    +0.000 C 
ATOM      8  C   UNL     1      49.545  -4.267  15.409  0.00  0.00    +0.000 C 
ATOM      9  C   UNL     1      49.211  -5.512  15.349  0.00  0.00    +0.000 C 
ATOM     10  H   UNL     1      46.502  -3.400  14.275  0.00  0.00    +0.000 HD
ATOM     11  H   UNL     1      48.005  -7.139  14.968  0.00  0.00    +0.000 HD
ENDROOT
TORSDOF 0
ENDMDL
MODEL 9
REMARK VINA RESULT:      -3.6     18.210     18.600
REMARK  Name = 3385_5Fluorouracil.pdbqt.pdb
REMARK  0 active torsions:
REMARK  status: ('A' for Active; 'I' for Inactive)
REMARK                            x       y       z     vdW  Elec       q    Type
REMARK                         _______ _______ _______ _____ _____    ______ ____
ROOT
ATOM      1  F   UNL     1      48.344   6.149  21.085  0.00  0.00    +0.000 F 
ATOM      2  O   UNL     1      46.420   4.230  20.287  0.00  0.00    +0.000 OA
ATOM      3  O   UNL     1      43.029   7.249  21.100  0.00  0.00    +0.000 OA
ATOM      4  N   UNL     1      44.729   5.718  20.761  0.00  0.00    +0.000 N 
ATOM      5  N   UNL     1      45.193   7.810  21.654  0.00  0.00    +0.000 N 
ATOM      6  C   UNL     1      46.070   5.306  20.756  0.00  0.00    +0.000 C 
ATOM      7  C   UNL     1      44.213   6.955  21.171  0.00  0.00    +0.000 C 
ATOM      8  C   UNL     1      47.036   6.289  21.354  0.00  0.00    +0.000 C 
ATOM      9  C   UNL     1      46.468   7.399  21.689  0.00  0.00    +0.000 C 
ATOM     10  H   UNL     1      44.063   5.071  20.365  0.00  0.00    +0.000 HD
ATOM     11  H   UNL     1      44.923   8.733  21.971  0.00  0.00    +0.000 HD
ENDROOT
TORSDOF 0
ENDMDL
