MODEL 1
REMARK VINA RESULT:      -7.8      0.000      0.000
REMARK  Name = 342374_SipholenolA.pdbqt.pdb
REMARK  5 active torsions:
REMARK  status: ('A' for Active; 'I' for Inactive)
REMARK    1  A    between atoms: C_3  and  C_20
REMARK    2  A    between atoms: C_4  and  O_16
REMARK    3  A    between atoms: C_13  and  O_18
REMARK    4  A    between atoms: C_21  and  C_25
REMARK    5  A    between atoms: C_26  and  O_36
REMARK                            x       y       z     vdW  Elec       q    Type
REMARK                         _______ _______ _______ _____ _____    ______ ____
ROOT
ATOM      1  O   UNL     1      11.650   9.755  16.895  0.00  0.00    +0.000 OA
ATOM      2  C   UNL     1      13.718   9.095  18.347  0.00  0.00    +0.000 C 
ATOM      3  C   UNL     1      14.450   7.913  18.989  0.00  0.00    +0.000 C 
ATOM      4  C   UNL     1      13.656   6.823  19.689  0.00  0.00    +0.000 C 
ATOM      5  C   UNL     1      12.302   8.799  17.682  0.00  0.00    +0.000 C 
ATOM      6  C   UNL     1      14.479   9.600  17.194  0.00  0.00    +0.000 C 
ATOM      7  C   UNL     1      12.285   6.869  19.222  0.00  0.00    +0.000 C 
ATOM      8  C   UNL     1      11.559   7.755  18.267  0.00  0.00    +0.000 C 
ATOM      9  C   UNL     1      13.522  10.218  19.403  0.00  0.00    +0.000 C 
ATOM     10  C   UNL     1      14.288  10.105  15.785  0.00  0.00    +0.000 C 
ATOM     11  C   UNL     1      11.795   9.697  15.438  0.00  0.00    +0.000 C 
ATOM     12  C   UNL     1      14.285   5.442  19.449  0.00  0.00    +0.000 C 
ATOM     13  C   UNL     1      13.161  10.263  14.949  0.00  0.00    +0.000 C 
ATOM     14  C   UNL     1      11.641   8.246  14.894  0.00  0.00    +0.000 C 
ATOM     15  C   UNL     1      10.680  10.600  14.832  0.00  0.00    +0.000 C 
ENDROOT
BRANCH   4  16
ATOM     16  O   UNL     1      13.695   7.022  21.080  0.00  0.00    +0.000 OA
ATOM     17  H   UNL     1      14.651   6.969  21.253  0.00  0.00    +0.000 HD
ENDBRANCH   4  16
BRANCH  13  18
ATOM     18  O   UNL     1      13.310  10.926  13.735  0.00  0.00    +0.000 OA
ATOM     19  H   UNL     1      13.548  11.868  13.868  0.00  0.00    +0.000 HD
ENDBRANCH  13  18
BRANCH   3  20
ATOM     20  C   UNL     1      15.882   7.956  19.136  0.00  0.00    +0.000 C 
ATOM     21  C   UNL     1      17.406   8.009  19.276  0.00  0.00    +0.000 C 
BRANCH  21  25
ATOM     22  C   UNL     1      20.208  10.165  18.628  0.00  0.00    +0.000 C 
ATOM     23  C   UNL     1      19.584   9.357  19.798  0.00  0.00    +0.000 C 
ATOM     24  C   UNL     1      21.231   9.644  17.661  0.00  0.00    +0.000 C 
ATOM     25  C   UNL     1      18.835   8.063  19.400  0.00  0.00    +0.000 C 
ATOM     26  C   UNL     1      21.947  10.751  16.897  0.00  0.00    +0.000 C 
ATOM     27  C   UNL     1      20.244  11.586  18.496  0.00  0.00    +0.000 C 
ATOM     28  C   UNL     1      21.289  11.921  17.468  0.00  0.00    +0.000 C 
ATOM     29  C   UNL     1      21.364   8.247  17.558  0.00  0.00    +0.000 C 
ATOM     30  C   UNL     1      19.598   6.887  18.980  0.00  0.00    +0.000 C 
ATOM     31  C   UNL     1      18.574  10.304  20.548  0.00  0.00    +0.000 C 
ATOM     32  C   UNL     1      20.722   9.023  20.822  0.00  0.00    +0.000 C 
ATOM     33  C   UNL     1      20.602   7.115  18.193  0.00  0.00    +0.000 C 
ATOM     34  C   UNL     1      21.812  10.598  15.388  0.00  0.00    +0.000 C 
ATOM     35  C   UNL     1      19.061   5.481  19.015  0.00  0.00    +0.000 C 
BRANCH  26  36
ATOM     36  O   UNL     1      23.318  10.744  17.197  0.00  0.00    +0.000 OA
ATOM     37  H   UNL     1      23.675  11.237  16.437  0.00  0.00    +0.000 HD
ENDBRANCH  26  36
ENDBRANCH  21  25
ENDBRANCH   3  20
TORSDOF 5
ENDMDL
MODEL 2
REMARK VINA RESULT:      -7.2      3.727      7.041
REMARK  Name = 342374_SipholenolA.pdbqt.pdb
REMARK  5 active torsions:
REMARK  status: ('A' for Active; 'I' for Inactive)
REMARK    1  A    between atoms: C_3  and  C_20
REMARK    2  A    between atoms: C_4  and  O_16
REMARK    3  A    between atoms: C_13  and  O_18
REMARK    4  A    between atoms: C_21  and  C_25
REMARK    5  A    between atoms: C_26  and  O_36
REMARK                            x       y       z     vdW  Elec       q    Type
REMARK                         _______ _______ _______ _____ _____    ______ ____
ROOT
ATOM      1  O   UNL     1      16.854  14.784  14.601  0.00  0.00    +0.000 OA
ATOM      2  C   UNL     1      17.776  12.686  15.853  0.00  0.00    +0.000 C 
ATOM      3  C   UNL     1      19.049  12.037  16.404  0.00  0.00    +0.000 C 
ATOM      4  C   UNL     1      20.327  12.064  15.582  0.00  0.00    +0.000 C 
ATOM      5  C   UNL     1      17.953  14.003  14.975  0.00  0.00    +0.000 C 
ATOM      6  C   UNL     1      16.940  13.185  16.956  0.00  0.00    +0.000 C 
ATOM      7  C   UNL     1      20.226  13.118  14.593  0.00  0.00    +0.000 C 
ATOM      8  C   UNL     1      19.152  14.092  14.243  0.00  0.00    +0.000 C 
ATOM      9  C   UNL     1      16.993  11.649  15.002  0.00  0.00    +0.000 C 
ATOM     10  C   UNL     1      16.083  14.364  17.346  0.00  0.00    +0.000 C 
ATOM     11  C   UNL     1      16.508  15.960  15.404  0.00  0.00    +0.000 C 
ATOM     12  C   UNL     1      21.557  12.254  16.483  0.00  0.00    +0.000 C 
ATOM     13  C   UNL     1      15.762  15.587  16.720  0.00  0.00    +0.000 C 
ATOM     14  C   UNL     1      17.764  16.804  15.772  0.00  0.00    +0.000 C 
ATOM     15  C   UNL     1      15.533  16.825  14.552  0.00  0.00    +0.000 C 
ENDROOT
BRANCH   4  16
ATOM     16  O   UNL     1      20.509  10.825  14.944  0.00  0.00    +0.000 OA
ATOM     17  H   UNL     1      21.422  10.608  15.207  0.00  0.00    +0.000 HD
ENDBRANCH   4  16
BRANCH  13  18
ATOM     18  O   UNL     1      14.789  16.402  17.290  0.00  0.00    +0.000 OA
ATOM     19  H   UNL     1      14.301  15.933  17.999  0.00  0.00    +0.000 HD
ENDBRANCH  13  18
BRANCH   3  20
ATOM     20  C   UNL     1      18.975  11.206  17.578  0.00  0.00    +0.000 C 
ATOM     21  C   UNL     1      18.905  10.334  18.835  0.00  0.00    +0.000 C 
BRANCH  21  25
ATOM     22  C   UNL     1      19.027   6.904  19.902  0.00  0.00    +0.000 C 
ATOM     23  C   UNL     1      19.721   8.260  20.200  0.00  0.00    +0.000 C 
ATOM     24  C   UNL     1      17.801   6.386  20.596  0.00  0.00    +0.000 C 
ATOM     25  C   UNL     1      18.845   9.522  20.017  0.00  0.00    +0.000 C 
ATOM     26  C   UNL     1      17.589   4.890  20.394  0.00  0.00    +0.000 C 
ATOM     27  C   UNL     1      19.605   5.774  19.250  0.00  0.00    +0.000 C 
ATOM     28  C   UNL     1      18.743   4.580  19.558  0.00  0.00    +0.000 C 
ATOM     29  C   UNL     1      17.009   7.322  21.286  0.00  0.00    +0.000 C 
ATOM     30  C   UNL     1      17.804   9.827  20.999  0.00  0.00    +0.000 C 
ATOM     31  C   UNL     1      20.968   8.379  19.245  0.00  0.00    +0.000 C 
ATOM     32  C   UNL     1      20.287   8.209  21.661  0.00  0.00    +0.000 C 
ATOM     33  C   UNL     1      17.103   8.819  21.412  0.00  0.00    +0.000 C 
ATOM     34  C   UNL     1      16.233   4.572  19.779  0.00  0.00    +0.000 C 
ATOM     35  C   UNL     1      17.217  11.199  21.202  0.00  0.00    +0.000 C 
BRANCH  26  36
ATOM     36  O   UNL     1      17.659   4.216  21.623  0.00  0.00    +0.000 OA
ATOM     37  H   UNL     1      16.805   3.749  21.627  0.00  0.00    +0.000 HD
ENDBRANCH  26  36
ENDBRANCH  21  25
ENDBRANCH   3  20
TORSDOF 5
ENDMDL
MODEL 3
REMARK VINA RESULT:      -6.6     20.265     23.500
REMARK  Name = 342374_SipholenolA.pdbqt.pdb
REMARK  5 active torsions:
REMARK  status: ('A' for Active; 'I' for Inactive)
REMARK    1  A    between atoms: C_3  and  C_20
REMARK    2  A    between atoms: C_4  and  O_16
REMARK    3  A    between atoms: C_13  and  O_18
REMARK    4  A    between atoms: C_21  and  C_25
REMARK    5  A    between atoms: C_26  and  O_36
REMARK                            x       y       z     vdW  Elec       q    Type
REMARK                         _______ _______ _______ _____ _____    ______ ____
ROOT
ATOM      1  O   UNL     1      25.589   0.685  -4.426  0.00  0.00    +0.000 OA
ATOM      2  C   UNL     1      26.535   1.523  -2.141  0.00  0.00    +0.000 C 
ATOM      3  C   UNL     1      26.154   1.862  -0.697  0.00  0.00    +0.000 C 
ATOM      4  C   UNL     1      24.881   2.641  -0.414  0.00  0.00    +0.000 C 
ATOM      5  C   UNL     1      25.345   1.204  -3.150  0.00  0.00    +0.000 C 
ATOM      6  C   UNL     1      27.296   0.265  -2.186  0.00  0.00    +0.000 C 
ATOM      7  C   UNL     1      24.000   2.531  -1.560  0.00  0.00    +0.000 C 
ATOM      8  C   UNL     1      24.128   1.863  -2.887  0.00  0.00    +0.000 C 
ATOM      9  C   UNL     1      27.370   2.685  -2.744  0.00  0.00    +0.000 C 
ATOM     10  C   UNL     1      27.428  -1.006  -2.989  0.00  0.00    +0.000 C 
ATOM     11  C   UNL     1      25.497  -0.762  -4.637  0.00  0.00    +0.000 C 
ATOM     12  C   UNL     1      24.201   2.137   0.868  0.00  0.00    +0.000 C 
ATOM     13  C   UNL     1      26.754  -1.522  -4.116  0.00  0.00    +0.000 C 
ATOM     14  C   UNL     1      24.236  -1.372  -3.957  0.00  0.00    +0.000 C 
ATOM     15  C   UNL     1      25.424  -0.997  -6.175  0.00  0.00    +0.000 C 
ENDROOT
BRANCH   4  16
ATOM     16  O   UNL     1      25.190   3.991  -0.175  0.00  0.00    +0.000 OA
ATOM     17  H   UNL     1      26.157   3.948  -0.064  0.00  0.00    +0.000 HD
ENDBRANCH   4  16
BRANCH  13  18
ATOM     18  O   UNL     1      27.241  -2.675  -4.723  0.00  0.00    +0.000 OA
ATOM     19  H   UNL     1      26.596  -3.411  -4.663  0.00  0.00    +0.000 HD
ENDBRANCH  13  18
BRANCH   3  20
ATOM     20  C   UNL     1      27.111   1.655   0.360  0.00  0.00    +0.000 C 
ATOM     21  C   UNL     1      28.140   1.430   1.471  0.00  0.00    +0.000 C 
BRANCH  21  25
ATOM     22  C   UNL     1      31.485   0.220   1.987  0.00  0.00    +0.000 C 
ATOM     23  C   UNL     1      30.621   1.473   2.293  0.00  0.00    +0.000 C 
ATOM     24  C   UNL     1      31.622  -0.979   2.881  0.00  0.00    +0.000 C 
ATOM     25  C   UNL     1      29.110   1.216   2.507  0.00  0.00    +0.000 C 
ATOM     26  C   UNL     1      32.823  -1.849   2.530  0.00  0.00    +0.000 C 
ATOM     27  C   UNL     1      32.569   0.135   1.062  0.00  0.00    +0.000 C 
ATOM     28  C   UNL     1      33.362  -1.097   1.402  0.00  0.00    +0.000 C 
ATOM     29  C   UNL     1      30.636  -1.160   3.867  0.00  0.00    +0.000 C 
ATOM     30  C   UNL     1      28.654   0.586   3.746  0.00  0.00    +0.000 C 
ATOM     31  C   UNL     1      30.788   2.474   1.088  0.00  0.00    +0.000 C 
ATOM     32  C   UNL     1      31.225   2.189   3.549  0.00  0.00    +0.000 C 
ATOM     33  C   UNL     1      29.370  -0.406   4.174  0.00  0.00    +0.000 C 
ATOM     34  C   UNL     1      32.430  -3.288   2.227  0.00  0.00    +0.000 C 
ATOM     35  C   UNL     1      27.249   0.695   4.276  0.00  0.00    +0.000 C 
BRANCH  26  36
ATOM     36  O   UNL     1      33.733  -1.880   3.598  0.00  0.00    +0.000 OA
ATOM     37  H   UNL     1      33.283  -1.303   4.240  0.00  0.00    +0.000 HD
ENDBRANCH  26  36
ENDBRANCH  21  25
ENDBRANCH   3  20
TORSDOF 5
ENDMDL
MODEL 4
REMARK VINA RESULT:      -6.5     42.095     44.809
REMARK  Name = 342374_SipholenolA.pdbqt.pdb
REMARK  5 active torsions:
REMARK  status: ('A' for Active; 'I' for Inactive)
REMARK    1  A    between atoms: C_3  and  C_20
REMARK    2  A    between atoms: C_4  and  O_16
REMARK    3  A    between atoms: C_13  and  O_18
REMARK    4  A    between atoms: C_21  and  C_25
REMARK    5  A    between atoms: C_26  and  O_36
REMARK                            x       y       z     vdW  Elec       q    Type
REMARK                         _______ _______ _______ _____ _____    ______ ____
ROOT
ATOM      1  O   UNL     1      48.467 -22.909  21.883  0.00  0.00    +0.000 OA
ATOM      2  C   UNL     1      48.913 -20.978  20.181  0.00  0.00    +0.000 C 
ATOM      3  C   UNL     1      50.012 -20.234  19.417  0.00  0.00    +0.000 C 
ATOM      4  C   UNL     1      51.302 -19.859  20.125  0.00  0.00    +0.000 C 
ATOM      5  C   UNL     1      49.377 -22.033  21.279  0.00  0.00    +0.000 C 
ATOM      6  C   UNL     1      48.145 -21.835  19.264  0.00  0.00    +0.000 C 
ATOM      7  C   UNL     1      51.449 -20.690  21.304  0.00  0.00    +0.000 C 
ATOM      8  C   UNL     1      50.600 -21.751  21.919  0.00  0.00    +0.000 C 
ATOM      9  C   UNL     1      47.978 -19.950  20.876  0.00  0.00    +0.000 C 
ATOM     10  C   UNL     1      47.518 -23.205  19.177  0.00  0.00    +0.000 C 
ATOM     11  C   UNL     1      48.324 -24.266  21.351  0.00  0.00    +0.000 C 
ATOM     12  C   UNL     1      52.508 -20.001  19.184  0.00  0.00    +0.000 C 
ATOM     13  C   UNL     1      47.467 -24.312  20.050  0.00  0.00    +0.000 C 
ATOM     14  C   UNL     1      49.704 -24.924  21.053  0.00  0.00    +0.000 C 
ATOM     15  C   UNL     1      47.571 -25.102  22.427  0.00  0.00    +0.000 C 
ENDROOT
BRANCH   4  16
ATOM     16  O   UNL     1      51.267 -18.504  20.497  0.00  0.00    +0.000 OA
ATOM     17  H   UNL     1      50.909 -18.094  19.689  0.00  0.00    +0.000 HD
ENDBRANCH   4  16
BRANCH  13  18
ATOM     18  O   UNL     1      46.648 -25.389  19.726  0.00  0.00    +0.000 OA
ATOM     19  H   UNL     1      45.816 -25.091  19.303  0.00  0.00    +0.000 HD
ENDBRANCH  13  18
BRANCH   3  20
ATOM     20  C   UNL     1      49.730 -19.687  18.115  0.00  0.00    +0.000 C 
ATOM     21  C   UNL     1      49.435 -19.091  16.736  0.00  0.00    +0.000 C 
BRANCH  21  25
ATOM     22  C   UNL     1      49.698 -19.820  13.226  0.00  0.00    +0.000 C 
ATOM     23  C   UNL     1      48.634 -19.371  14.264  0.00  0.00    +0.000 C 
ATOM     24  C   UNL     1      50.572 -18.899  12.425  0.00  0.00    +0.000 C 
ATOM     25  C   UNL     1      49.159 -18.524  15.447  0.00  0.00    +0.000 C 
ATOM     26  C   UNL     1      51.212 -19.582  11.222  0.00  0.00    +0.000 C 
ATOM     27  C   UNL     1      49.769 -21.085  12.568  0.00  0.00    +0.000 C 
ATOM     28  C   UNL     1      50.667 -20.926  11.372  0.00  0.00    +0.000 C 
ATOM     29  C   UNL     1      50.716 -17.581  12.895  0.00  0.00    +0.000 C 
ATOM     30  C   UNL     1      49.543 -17.130  15.221  0.00  0.00    +0.000 C 
ATOM     31  C   UNL     1      47.957 -20.669  14.846  0.00  0.00    +0.000 C 
ATOM     32  C   UNL     1      47.509 -18.589  13.503  0.00  0.00    +0.000 C 
ATOM     33  C   UNL     1      50.211 -16.895  14.136  0.00  0.00    +0.000 C 
ATOM     34  C   UNL     1      52.732 -19.487  11.240  0.00  0.00    +0.000 C 
ATOM     35  C   UNL     1      49.621 -16.094  16.311  0.00  0.00    +0.000 C 
BRANCH  26  36
ATOM     36  O   UNL     1      50.770 -18.986  10.030  0.00  0.00    +0.000 OA
ATOM     37  H   UNL     1      50.386 -18.158  10.369  0.00  0.00    +0.000 HD
ENDBRANCH  26  36
ENDBRANCH  21  25
ENDBRANCH   3  20
TORSDOF 5
ENDMDL
MODEL 5
REMARK VINA RESULT:      -6.5     42.087     45.330
REMARK  Name = 342374_SipholenolA.pdbqt.pdb
REMARK  5 active torsions:
REMARK  status: ('A' for Active; 'I' for Inactive)
REMARK    1  A    between atoms: C_3  and  C_20
REMARK    2  A    between atoms: C_4  and  O_16
REMARK    3  A    between atoms: C_13  and  O_18
REMARK    4  A    between atoms: C_21  and  C_25
REMARK    5  A    between atoms: C_26  and  O_36
REMARK                            x       y       z     vdW  Elec       q    Type
REMARK                         _______ _______ _______ _____ _____    ______ ____
ROOT
ATOM      1  O   UNL     1      55.110 -17.808  19.830  0.00  0.00    +0.000 OA
ATOM      2  C   UNL     1      53.159 -18.951  18.524  0.00  0.00    +0.000 C 
ATOM      3  C   UNL     1      51.793 -19.624  18.684  0.00  0.00    +0.000 C 
ATOM      4  C   UNL     1      51.566 -20.612  19.816  0.00  0.00    +0.000 C 
ATOM      5  C   UNL     1      53.958 -18.603  19.856  0.00  0.00    +0.000 C 
ATOM      6  C   UNL     1      53.002 -17.617  17.924  0.00  0.00    +0.000 C 
ATOM      7  C   UNL     1      52.573 -20.396  20.836  0.00  0.00    +0.000 C 
ATOM      8  C   UNL     1      53.730 -19.463  20.948  0.00  0.00    +0.000 C 
ATOM      9  C   UNL     1      54.074 -19.841  17.639  0.00  0.00    +0.000 C 
ATOM     10  C   UNL     1      53.521 -16.205  18.037  0.00  0.00    +0.000 C 
ATOM     11  C   UNL     1      54.994 -16.375  20.112  0.00  0.00    +0.000 C 
ATOM     12  C   UNL     1      50.147 -20.476  20.389  0.00  0.00    +0.000 C 
ATOM     13  C   UNL     1      54.442 -15.569  18.898  0.00  0.00    +0.000 C 
ATOM     14  C   UNL     1      54.082 -16.095  21.343  0.00  0.00    +0.000 C 
ATOM     15  C   UNL     1      56.431 -15.847  20.398  0.00  0.00    +0.000 C 
ENDROOT
BRANCH   4  16
ATOM     16  O   UNL     1      51.654 -21.927  19.326  0.00  0.00    +0.000 OA
ATOM     17  H   UNL     1      51.045 -22.395  19.925  0.00  0.00    +0.000 HD
ENDBRANCH   4  16
BRANCH  13  18
ATOM     18  O   UNL     1      54.829 -14.262  18.624  0.00  0.00    +0.000 OA
ATOM     19  H   UNL     1      55.395 -14.216  17.824  0.00  0.00    +0.000 HD
ENDBRANCH  13  18
BRANCH   3  20
ATOM     20  C   UNL     1      50.811 -19.504  17.637  0.00  0.00    +0.000 C 
ATOM     21  C   UNL     1      49.776 -19.388  16.515  0.00  0.00    +0.000 C 
BRANCH  21  25
ATOM     22  C   UNL     1      48.474 -21.214  13.705  0.00  0.00    +0.000 C 
ATOM     23  C   UNL     1      47.968 -20.494  14.985  0.00  0.00    +0.000 C 
ATOM     24  C   UNL     1      48.652 -20.570  12.361  0.00  0.00    +0.000 C 
ATOM     25  C   UNL     1      48.810 -19.286  15.458  0.00  0.00    +0.000 C 
ATOM     26  C   UNL     1      48.763 -21.582  11.227  0.00  0.00    +0.000 C 
ATOM     27  C   UNL     1      48.476 -22.620  13.461  0.00  0.00    +0.000 C 
ATOM     28  C   UNL     1      48.641 -22.824  11.981  0.00  0.00    +0.000 C 
ATOM     29  C   UNL     1      48.732 -19.166  12.327  0.00  0.00    +0.000 C 
ATOM     30  C   UNL     1      48.749 -18.028  14.713  0.00  0.00    +0.000 C 
ATOM     31  C   UNL     1      47.930 -21.557  16.147  0.00  0.00    +0.000 C 
ATOM     32  C   UNL     1      46.485 -20.051  14.742  0.00  0.00    +0.000 C 
ATOM     33  C   UNL     1      48.754 -18.133  13.422  0.00  0.00    +0.000 C 
ATOM     34  C   UNL     1      50.052 -21.425  10.431  0.00  0.00    +0.000 C 
ATOM     35  C   UNL     1      49.125 -16.690  15.292  0.00  0.00    +0.000 C 
BRANCH  26  36
ATOM     36  O   UNL     1      47.696 -21.428  10.328  0.00  0.00    +0.000 OA
ATOM     37  H   UNL     1      48.080 -21.808   9.518  0.00  0.00    +0.000 HD
ENDBRANCH  26  36
ENDBRANCH  21  25
ENDBRANCH   3  20
TORSDOF 5
ENDMDL
MODEL 6
REMARK VINA RESULT:      -6.2     20.824     26.695
REMARK  Name = 342374_SipholenolA.pdbqt.pdb
REMARK  5 active torsions:
REMARK  status: ('A' for Active; 'I' for Inactive)
REMARK    1  A    between atoms: C_3  and  C_20
REMARK    2  A    between atoms: C_4  and  O_16
REMARK    3  A    between atoms: C_13  and  O_18
REMARK    4  A    between atoms: C_21  and  C_25
REMARK    5  A    between atoms: C_26  and  O_36
REMARK                            x       y       z     vdW  Elec       q    Type
REMARK                         _______ _______ _______ _____ _____    ______ ____
ROOT
ATOM      1  O   UNL     1      44.729   6.708  12.431  0.00  0.00    +0.000 OA
ATOM      2  C   UNL     1      43.217   4.669  11.817  0.00  0.00    +0.000 C 
ATOM      3  C   UNL     1      43.040   3.160  12.010  0.00  0.00    +0.000 C 
ATOM      4  C   UNL     1      44.248   2.242  11.933  0.00  0.00    +0.000 C 
ATOM      5  C   UNL     1      44.561   5.320  12.371  0.00  0.00    +0.000 C 
ATOM      6  C   UNL     1      42.202   5.404  12.587  0.00  0.00    +0.000 C 
ATOM      7  C   UNL     1      45.448   3.027  12.141  0.00  0.00    +0.000 C 
ATOM      8  C   UNL     1      45.692   4.481  12.370  0.00  0.00    +0.000 C 
ATOM      9  C   UNL     1      43.110   5.014  10.307  0.00  0.00    +0.000 C 
ATOM     10  C   UNL     1      42.038   6.623  13.461  0.00  0.00    +0.000 C 
ATOM     11  C   UNL     1      44.454   7.405  13.690  0.00  0.00    +0.000 C 
ATOM     12  C   UNL     1      44.139   1.101  12.955  0.00  0.00    +0.000 C 
ATOM     13  C   UNL     1      42.930   7.606  13.942  0.00  0.00    +0.000 C 
ATOM     14  C   UNL     1      45.062   6.660  14.914  0.00  0.00    +0.000 C 
ATOM     15  C   UNL     1      45.091   8.822  13.576  0.00  0.00    +0.000 C 
ENDROOT
BRANCH   4  16
ATOM     16  O   UNL     1      44.295   1.621  10.673  0.00  0.00    +0.000 OA
ATOM     17  H   UNL     1      45.237   1.381  10.614  0.00  0.00    +0.000 HD
ENDBRANCH   4  16
BRANCH  13  18
ATOM     18  O   UNL     1      42.416   8.714  14.608  0.00  0.00    +0.000 OA
ATOM     19  H   UNL     1      42.089   8.476  15.500  0.00  0.00    +0.000 HD
ENDBRANCH  13  18
BRANCH   3  20
ATOM     20  C   UNL     1      41.716   2.594  12.028  0.00  0.00    +0.000 C 
ATOM     21  C   UNL     1      40.303   2.004  12.035  0.00  0.00    +0.000 C 
BRANCH  21  25
ATOM     22  C   UNL     1      37.149   2.280  13.738  0.00  0.00    +0.000 C 
ATOM     23  C   UNL     1      37.722   2.328  12.295  0.00  0.00    +0.000 C 
ATOM     24  C   UNL     1      36.669   1.043  14.439  0.00  0.00    +0.000 C 
ATOM     25  C   UNL     1      38.976   1.458  12.037  0.00  0.00    +0.000 C 
ATOM     26  C   UNL     1      35.801   1.346  15.655  0.00  0.00    +0.000 C 
ATOM     27  C   UNL     1      36.616   3.375  14.482  0.00  0.00    +0.000 C 
ATOM     28  C   UNL     1      35.809   2.804  15.616  0.00  0.00    +0.000 C 
ATOM     29  C   UNL     1      37.099  -0.195  13.926  0.00  0.00    +0.000 C 
ATOM     30  C   UNL     1      38.838   0.005  11.945  0.00  0.00    +0.000 C 
ATOM     31  C   UNL     1      38.085   3.828  11.976  0.00  0.00    +0.000 C 
ATOM     32  C   UNL     1      36.579   1.928  11.301  0.00  0.00    +0.000 C 
ATOM     33  C   UNL     1      38.049  -0.546  12.813  0.00  0.00    +0.000 C 
ATOM     34  C   UNL     1      36.351   0.725  16.932  0.00  0.00    +0.000 C 
ATOM     35  C   UNL     1      39.837  -0.891  11.262  0.00  0.00    +0.000 C 
BRANCH  26  36
ATOM     36  O   UNL     1      34.505   0.842  15.469  0.00  0.00    +0.000 OA
ATOM     37  H   UNL     1      34.021   1.656  15.242  0.00  0.00    +0.000 HD
ENDBRANCH  26  36
ENDBRANCH  21  25
ENDBRANCH   3  20
TORSDOF 5
ENDMDL
MODEL 7
REMARK VINA RESULT:      -5.9     37.263     40.477
REMARK  Name = 342374_SipholenolA.pdbqt.pdb
REMARK  5 active torsions:
REMARK  status: ('A' for Active; 'I' for Inactive)
REMARK    1  A    between atoms: C_3  and  C_20
REMARK    2  A    between atoms: C_4  and  O_16
REMARK    3  A    between atoms: C_13  and  O_18
REMARK    4  A    between atoms: C_21  and  C_25
REMARK    5  A    between atoms: C_26  and  O_36
REMARK                            x       y       z     vdW  Elec       q    Type
REMARK                         _______ _______ _______ _____ _____    ______ ____
ROOT
ATOM      1  O   UNL     1      41.518  13.245  46.176  0.00  0.00    +0.000 OA
ATOM      2  C   UNL     1      40.309  12.336  48.305  0.00  0.00    +0.000 C 
ATOM      3  C   UNL     1      40.477  12.076  49.804  0.00  0.00    +0.000 C 
ATOM      4  C   UNL     1      41.770  11.474  50.326  0.00  0.00    +0.000 C 
ATOM      5  C   UNL     1      41.604  12.786  47.495  0.00  0.00    +0.000 C 
ATOM      6  C   UNL     1      39.416  13.484  48.083  0.00  0.00    +0.000 C 
ATOM      7  C   UNL     1      42.813  11.674  49.339  0.00  0.00    +0.000 C 
ATOM      8  C   UNL     1      42.831  12.295  47.983  0.00  0.00    +0.000 C 
ATOM      9  C   UNL     1      39.739  11.064  47.619  0.00  0.00    +0.000 C 
ATOM     10  C   UNL     1      39.267  14.712  47.218  0.00  0.00    +0.000 C 
ATOM     11  C   UNL     1      41.464  14.687  45.925  0.00  0.00    +0.000 C 
ATOM     12  C   UNL     1      42.155  12.086  51.682  0.00  0.00    +0.000 C 
ATOM     13  C   UNL     1      40.053  15.289  46.198  0.00  0.00    +0.000 C 
ATOM     14  C   UNL     1      42.506  15.467  46.779  0.00  0.00    +0.000 C 
ATOM     15  C   UNL     1      41.769  14.900  44.412  0.00  0.00    +0.000 C 
ENDROOT
BRANCH   4  16
ATOM     16  O   UNL     1      41.595  10.100  50.565  0.00  0.00    +0.000 OA
ATOM     17  H   UNL     1      40.722   9.946  50.161  0.00  0.00    +0.000 HD
ENDBRANCH   4  16
BRANCH  13  18
ATOM     18  O   UNL     1      39.537  16.358  45.472  0.00  0.00    +0.000 OA
ATOM     19  H   UNL     1      40.164  17.111  45.450  0.00  0.00    +0.000 HD
ENDBRANCH  13  18
BRANCH   3  20
ATOM     20  C   UNL     1      39.336  12.179  50.678  0.00  0.00    +0.000 C 
ATOM     21  C   UNL     1      38.132  12.300  51.615  0.00  0.00    +0.000 C 
BRANCH  21  25
ATOM     22  C   UNL     1      36.707  10.830  54.569  0.00  0.00    +0.000 C 
ATOM     23  C   UNL     1      37.132  12.222  54.029  0.00  0.00    +0.000 C 
ATOM     24  C   UNL     1      35.347  10.215  54.409  0.00  0.00    +0.000 C 
ATOM     25  C   UNL     1      37.008  12.419  52.499  0.00  0.00    +0.000 C 
ATOM     26  C   UNL     1      35.100   9.057  55.369  0.00  0.00    +0.000 C 
ATOM     27  C   UNL     1      37.345  10.086  55.607  0.00  0.00    +0.000 C 
ATOM     28  C   UNL     1      36.374   9.039  56.079  0.00  0.00    +0.000 C 
ATOM     29  C   UNL     1      34.518  10.742  53.402  0.00  0.00    +0.000 C 
ATOM     30  C   UNL     1      35.683  12.579  51.898  0.00  0.00    +0.000 C 
ATOM     31  C   UNL     1      38.635  12.455  54.438  0.00  0.00    +0.000 C 
ATOM     32  C   UNL     1      36.295  13.314  54.780  0.00  0.00    +0.000 C 
ATOM     33  C   UNL     1      34.757  11.794  52.352  0.00  0.00    +0.000 C 
ATOM     34  C   UNL     1      34.738   7.768  54.644  0.00  0.00    +0.000 C 
ATOM     35  C   UNL     1      35.442  13.218  50.557  0.00  0.00    +0.000 C 
BRANCH  26  36
ATOM     36  O   UNL     1      34.040   9.360  56.238  0.00  0.00    +0.000 OA
ATOM     37  H   UNL     1      34.316  10.233  56.568  0.00  0.00    +0.000 HD
ENDBRANCH  26  36
ENDBRANCH  21  25
ENDBRANCH   3  20
TORSDOF 5
ENDMDL
MODEL 8
REMARK VINA RESULT:      -5.8     44.564     47.304
REMARK  Name = 342374_SipholenolA.pdbqt.pdb
REMARK  5 active torsions:
REMARK  status: ('A' for Active; 'I' for Inactive)
REMARK    1  A    between atoms: C_3  and  C_20
REMARK    2  A    between atoms: C_4  and  O_16
REMARK    3  A    between atoms: C_13  and  O_18
REMARK    4  A    between atoms: C_21  and  C_25
REMARK    5  A    between atoms: C_26  and  O_36
REMARK                            x       y       z     vdW  Elec       q    Type
REMARK                         _______ _______ _______ _____ _____    ______ ____
ROOT
ATOM      1  O   UNL     1      37.622 -23.675  -5.885  0.00  0.00    +0.000 OA
ATOM      2  C   UNL     1      38.447 -25.659  -4.401  0.00  0.00    +0.000 C 
ATOM      3  C   UNL     1      39.163 -27.012  -4.435  0.00  0.00    +0.000 C 
ATOM      4  C   UNL     1      38.833 -28.014  -5.528  0.00  0.00    +0.000 C 
ATOM      5  C   UNL     1      38.086 -24.993  -5.801  0.00  0.00    +0.000 C 
ATOM      6  C   UNL     1      39.321 -24.634  -3.810  0.00  0.00    +0.000 C 
ATOM      7  C   UNL     1      38.208 -27.314  -6.633  0.00  0.00    +0.000 C 
ATOM      8  C   UNL     1      37.830 -25.889  -6.857  0.00  0.00    +0.000 C 
ATOM      9  C   UNL     1      37.132 -25.789  -3.584  0.00  0.00    +0.000 C 
ATOM     10  C   UNL     1      39.740 -23.195  -3.989  0.00  0.00    +0.000 C 
ATOM     11  C   UNL     1      38.576 -22.601  -6.178  0.00  0.00    +0.000 C 
ATOM     12  C   UNL     1      40.092 -28.770  -5.981  0.00  0.00    +0.000 C 
ATOM     13  C   UNL     1      39.422 -22.197  -4.934  0.00  0.00    +0.000 C 
ATOM     14  C   UNL     1      39.549 -22.984  -7.332  0.00  0.00    +0.000 C 
ATOM     15  C   UNL     1      37.744 -21.352  -6.594  0.00  0.00    +0.000 C 
ENDROOT
BRANCH   4  16
ATOM     16  O   UNL     1      37.959 -28.995  -5.028  0.00  0.00    +0.000 OA
ATOM     17  H   UNL     1      38.191 -29.759  -5.586  0.00  0.00    +0.000 HD
ENDBRANCH   4  16
BRANCH  13  18
ATOM     18  O   UNL     1      39.862 -20.895  -4.714  0.00  0.00    +0.000 OA
ATOM     19  H   UNL     1      39.353 -20.462  -3.997  0.00  0.00    +0.000 HD
ENDBRANCH  13  18
BRANCH   3  20
ATOM     20  C   UNL     1      39.963 -27.424  -3.310  0.00  0.00    +0.000 C 
ATOM     21  C   UNL     1      40.827 -27.861  -2.124  0.00  0.00    +0.000 C 
BRANCH  21  25
ATOM     22  C   UNL     1      40.985 -27.718   1.464  0.00  0.00    +0.000 C 
ATOM     23  C   UNL     1      41.041 -28.766   0.319  0.00  0.00    +0.000 C 
ATOM     24  C   UNL     1      42.170 -27.002   2.044  0.00  0.00    +0.000 C 
ATOM     25  C   UNL     1      41.644 -28.273  -1.018  0.00  0.00    +0.000 C 
ATOM     26  C   UNL     1      41.875 -26.359   3.394  0.00  0.00    +0.000 C 
ATOM     27  C   UNL     1      39.930 -27.543   2.409  0.00  0.00    +0.000 C 
ATOM     28  C   UNL     1      40.477 -26.739   3.557  0.00  0.00    +0.000 C 
ATOM     29  C   UNL     1      43.348 -26.983   1.274  0.00  0.00    +0.000 C 
ATOM     30  C   UNL     1      43.088 -28.063  -1.125  0.00  0.00    +0.000 C 
ATOM     31  C   UNL     1      39.569 -29.257   0.048  0.00  0.00    +0.000 C 
ATOM     32  C   UNL     1      41.835 -30.014   0.836  0.00  0.00    +0.000 C 
ATOM     33  C   UNL     1      43.654 -27.490  -0.109  0.00  0.00    +0.000 C 
ATOM     34  C   UNL     1      42.150 -24.862   3.397  0.00  0.00    +0.000 C 
ATOM     35  C   UNL     1      43.839 -28.041  -2.429  0.00  0.00    +0.000 C 
BRANCH  26  36
ATOM     36  O   UNL     1      42.676 -26.934   4.394  0.00  0.00    +0.000 OA
ATOM     37  H   UNL     1      43.523 -27.022   3.923  0.00  0.00    +0.000 HD
ENDBRANCH  26  36
ENDBRANCH  21  25
ENDBRANCH   3  20
TORSDOF 5
ENDMDL
MODEL 9
REMARK VINA RESULT:      -5.7     34.975     39.975
REMARK  Name = 342374_SipholenolA.pdbqt.pdb
REMARK  5 active torsions:
REMARK  status: ('A' for Active; 'I' for Inactive)
REMARK    1  A    between atoms: C_3  and  C_20
REMARK    2  A    between atoms: C_4  and  O_16
REMARK    3  A    between atoms: C_13  and  O_18
REMARK    4  A    between atoms: C_21  and  C_25
REMARK    5  A    between atoms: C_26  and  O_36
REMARK                            x       y       z     vdW  Elec       q    Type
REMARK                         _______ _______ _______ _____ _____    ______ ____
ROOT
ATOM      1  O   UNL     1      53.354 -12.681   6.953  0.00  0.00    +0.000 OA
ATOM      2  C   UNL     1      51.800 -11.077   8.307  0.00  0.00    +0.000 C 
ATOM      3  C   UNL     1      51.677 -10.290   9.615  0.00  0.00    +0.000 C 
ATOM      4  C   UNL     1      52.095 -10.933  10.926  0.00  0.00    +0.000 C 
ATOM      5  C   UNL     1      53.034 -12.074   8.173  0.00  0.00    +0.000 C 
ATOM      6  C   UNL     1      52.045 -10.161   7.182  0.00  0.00    +0.000 C 
ATOM      7  C   UNL     1      52.979 -12.045  10.642  0.00  0.00    +0.000 C 
ATOM      8  C   UNL     1      53.489 -12.648   9.376  0.00  0.00    +0.000 C 
ATOM      9  C   UNL     1      50.501 -11.894   8.070  0.00  0.00    +0.000 C 
ATOM     10  C   UNL     1      52.872 -10.031   5.927  0.00  0.00    +0.000 C 
ATOM     11  C   UNL     1      54.385 -12.076   6.105  0.00  0.00    +0.000 C 
ATOM     12  C   UNL     1      52.763  -9.907  11.855  0.00  0.00    +0.000 C 
ATOM     13  C   UNL     1      53.862 -10.835   5.321  0.00  0.00    +0.000 C 
ATOM     14  C   UNL     1      55.637 -11.648   6.925  0.00  0.00    +0.000 C 
ATOM     15  C   UNL     1      54.795 -13.146   5.051  0.00  0.00    +0.000 C 
ENDROOT
BRANCH   4  16
ATOM     16  O   UNL     1      50.959 -11.389  11.618  0.00  0.00    +0.000 OA
ATOM     17  H   UNL     1      50.728 -10.603  12.145  0.00  0.00    +0.000 HD
ENDBRANCH   4  16
BRANCH  13  18
ATOM     18  O   UNL     1      54.319 -10.500   4.051  0.00  0.00    +0.000 OA
ATOM     19  H   UNL     1      55.212 -10.868   3.884  0.00  0.00    +0.000 HD
ENDBRANCH  13  18
BRANCH   3  20
ATOM     20  C   UNL     1      50.951  -9.045   9.632  0.00  0.00    +0.000 C 
ATOM     21  C   UNL     1      50.180  -7.723   9.667  0.00  0.00    +0.000 C 
BRANCH  21  25
ATOM     22  C   UNL     1      48.333  -5.617  11.920  0.00  0.00    +0.000 C 
ATOM     23  C   UNL     1      49.521  -5.528  10.923  0.00  0.00    +0.000 C 
ATOM     24  C   UNL     1      46.891  -5.388  11.574  0.00  0.00    +0.000 C 
ATOM     25  C   UNL     1      49.456  -6.485   9.709  0.00  0.00    +0.000 C 
ATOM     26  C   UNL     1      46.017  -5.142  12.799  0.00  0.00    +0.000 C 
ATOM     27  C   UNL     1      48.406  -5.533  13.343  0.00  0.00    +0.000 C 
ATOM     28  C   UNL     1      47.021  -5.242  13.852  0.00  0.00    +0.000 C 
ATOM     29  C   UNL     1      46.535  -5.467  10.216  0.00  0.00    +0.000 C 
ATOM     30  C   UNL     1      48.511  -6.212   8.625  0.00  0.00    +0.000 C 
ATOM     31  C   UNL     1      50.842  -5.832  11.725  0.00  0.00    +0.000 C 
ATOM     32  C   UNL     1      49.634  -4.044  10.430  0.00  0.00    +0.000 C 
ATOM     33  C   UNL     1      47.329  -5.827   8.988  0.00  0.00    +0.000 C 
ATOM     34  C   UNL     1      44.865  -6.132  12.899  0.00  0.00    +0.000 C 
ATOM     35  C   UNL     1      48.655  -6.759   7.229  0.00  0.00    +0.000 C 
BRANCH  26  36
ATOM     36  O   UNL     1      45.459  -3.855  12.751  0.00  0.00    +0.000 OA
ATOM     37  H   UNL     1      45.063  -3.793  13.638  0.00  0.00    +0.000 HD
ENDBRANCH  26  36
ENDBRANCH  21  25
ENDBRANCH   3  20
TORSDOF 5
ENDMDL
