MODEL 1
REMARK VINA RESULT:      -4.9      0.000      0.000
REMARK  Name = 43806_Diaminocyclohexane.pdbqt.pdb
REMARK  2 active torsions:
REMARK  status: ('A' for Active; 'I' for Inactive)
REMARK    1  A    between atoms: C_1  and  N_7
REMARK    2  A    between atoms: C_2  and  N_10
REMARK                            x       y       z     vdW  Elec       q    Type
REMARK                         _______ _______ _______ _____ _____    ______ ____
ROOT
ATOM      1  C   UNL     1      35.124  -1.330  16.186  0.00  0.00    +0.000 A 
ATOM      2  C   UNL     1      33.757  -0.790  16.016  0.00  0.00    +0.000 A 
ATOM      3  C   UNL     1      36.126  -0.723  15.362  0.00  0.00    +0.000 A 
ATOM      4  C   UNL     1      33.639   0.286  15.076  0.00  0.00    +0.000 A 
ATOM      5  C   UNL     1      36.073   0.418  14.332  0.00  0.00    +0.000 A 
ATOM      6  C   UNL     1      34.663   0.990  14.172  0.00  0.00    +0.000 A 
ENDROOT
BRANCH   1   7
ATOM      7  N   UNL     1      35.441  -2.319  17.146  0.00  0.00    +0.000 N 
ATOM      8  H   UNL     1      35.208  -3.262  16.849  0.00  0.00    +0.000 HD
ATOM      9  H   UNL     1      35.109  -2.117  18.084  0.00  0.00    +0.000 HD
ENDBRANCH   1   7
BRANCH   2  10
ATOM     10  N   UNL     1      32.630  -1.341  16.670  0.00  0.00    +0.000 N 
ATOM     11  H   UNL     1      32.743  -1.419  17.676  0.00  0.00    +0.000 HD
ATOM     12  H   UNL     1      32.279  -2.197  16.254  0.00  0.00    +0.000 HD
ENDBRANCH   2  10
TORSDOF 2
ENDMDL
MODEL 2
REMARK VINA RESULT:      -4.9      0.004      2.286
REMARK  Name = 43806_Diaminocyclohexane.pdbqt.pdb
REMARK  2 active torsions:
REMARK  status: ('A' for Active; 'I' for Inactive)
REMARK    1  A    between atoms: C_1  and  N_7
REMARK    2  A    between atoms: C_2  and  N_10
REMARK                            x       y       z     vdW  Elec       q    Type
REMARK                         _______ _______ _______ _____ _____    ______ ____
ROOT
ATOM      1  C   UNL     1      33.754  -0.791  16.012  0.00  0.00    +0.000 A 
ATOM      2  C   UNL     1      35.122  -1.330  16.184  0.00  0.00    +0.000 A 
ATOM      3  C   UNL     1      33.636   0.284  15.074  0.00  0.00    +0.000 A 
ATOM      4  C   UNL     1      36.124  -0.720  15.361  0.00  0.00    +0.000 A 
ATOM      5  C   UNL     1      34.660   0.992  14.171  0.00  0.00    +0.000 A 
ATOM      6  C   UNL     1      36.070   0.420  14.333  0.00  0.00    +0.000 A 
ENDROOT
BRANCH   1   7
ATOM      7  N   UNL     1      32.627  -1.344  16.665  0.00  0.00    +0.000 N 
ATOM      8  H   UNL     1      32.766  -1.488  17.660  0.00  0.00    +0.000 HD
ATOM      9  H   UNL     1      32.235  -2.161  16.208  0.00  0.00    +0.000 HD
ENDBRANCH   1   7
BRANCH   2  10
ATOM     10  N   UNL     1      35.439  -2.319  17.144  0.00  0.00    +0.000 N 
ATOM     11  H   UNL     1      36.313  -2.147  17.630  0.00  0.00    +0.000 HD
ATOM     12  H   UNL     1      35.366  -3.273  16.806  0.00  0.00    +0.000 HD
ENDBRANCH   2  10
TORSDOF 2
ENDMDL
MODEL 3
REMARK VINA RESULT:      -4.6      1.789      2.759
REMARK  Name = 43806_Diaminocyclohexane.pdbqt.pdb
REMARK  2 active torsions:
REMARK  status: ('A' for Active; 'I' for Inactive)
REMARK    1  A    between atoms: C_1  and  N_7
REMARK    2  A    between atoms: C_2  and  N_10
REMARK                            x       y       z     vdW  Elec       q    Type
REMARK                         _______ _______ _______ _____ _____    ______ ____
ROOT
ATOM      1  C   UNL     1      35.842  -1.468  16.445  0.00  0.00    +0.000 A 
ATOM      2  C   UNL     1      36.035  -0.662  15.220  0.00  0.00    +0.000 A 
ATOM      3  C   UNL     1      34.506  -1.481  16.963  0.00  0.00    +0.000 A 
ATOM      4  C   UNL     1      34.851  -0.038  14.708  0.00  0.00    +0.000 A 
ATOM      5  C   UNL     1      33.199  -0.831  16.478  0.00  0.00    +0.000 A 
ATOM      6  C   UNL     1      33.395  -0.015  15.199  0.00  0.00    +0.000 A 
ENDROOT
BRANCH   1   7
ATOM      7  N   UNL     1      36.878  -2.238  17.026  0.00  0.00    +0.000 N 
ATOM      8  H   UNL     1      36.541  -3.021  17.577  0.00  0.00    +0.000 HD
ATOM      9  H   UNL     1      37.582  -1.695  17.516  0.00  0.00    +0.000 HD
ENDBRANCH   1   7
BRANCH   2  10
ATOM     10  N   UNL     1      37.307  -0.454  14.635  0.00  0.00    +0.000 N 
ATOM     11  H   UNL     1      37.291   0.189  13.849  0.00  0.00    +0.000 HD
ATOM     12  H   UNL     1      37.819  -1.304  14.427  0.00  0.00    +0.000 HD
ENDBRANCH   2  10
TORSDOF 2
ENDMDL
MODEL 4
REMARK VINA RESULT:      -4.5      1.929      2.967
REMARK  Name = 43806_Diaminocyclohexane.pdbqt.pdb
REMARK  2 active torsions:
REMARK  status: ('A' for Active; 'I' for Inactive)
REMARK    1  A    between atoms: C_1  and  N_7
REMARK    2  A    between atoms: C_2  and  N_10
REMARK                            x       y       z     vdW  Elec       q    Type
REMARK                         _______ _______ _______ _____ _____    ______ ____
ROOT
ATOM      1  C   UNL     1      36.214  -1.046  15.189  0.00  0.00    +0.000 A 
ATOM      2  C   UNL     1      36.065  -1.659  16.527  0.00  0.00    +0.000 A 
ATOM      3  C   UNL     1      35.058  -0.353  14.702  0.00  0.00    +0.000 A 
ATOM      4  C   UNL     1      34.796  -1.443  17.158  0.00  0.00    +0.000 A 
ATOM      5  C   UNL     1      33.671  -0.092  15.313  0.00  0.00    +0.000 A 
ATOM      6  C   UNL     1      33.524  -0.708  16.706  0.00  0.00    +0.000 A 
ENDROOT
BRANCH   1   7
ATOM      7  N   UNL     1      37.432  -1.069  14.469  0.00  0.00    +0.000 N 
ATOM      8  H   UNL     1      38.042  -0.286  14.681  0.00  0.00    +0.000 HD
ATOM      9  H   UNL     1      37.328  -1.219  13.470  0.00  0.00    +0.000 HD
ENDBRANCH   1   7
BRANCH   2  10
ATOM     10  N   UNL     1      37.067  -2.467  17.114  0.00  0.00    +0.000 N 
ATOM     11  H   UNL     1      37.414  -3.195  16.497  0.00  0.00    +0.000 HD
ATOM     12  H   UNL     1      36.836  -2.821  18.036  0.00  0.00    +0.000 HD
ENDBRANCH   2  10
TORSDOF 2
ENDMDL
MODEL 5
REMARK VINA RESULT:      -4.5      2.084      2.328
REMARK  Name = 43806_Diaminocyclohexane.pdbqt.pdb
REMARK  2 active torsions:
REMARK  status: ('A' for Active; 'I' for Inactive)
REMARK    1  A    between atoms: C_1  and  N_7
REMARK    2  A    between atoms: C_2  and  N_10
REMARK                            x       y       z     vdW  Elec       q    Type
REMARK                         _______ _______ _______ _____ _____    ______ ____
ROOT
ATOM      1  C   UNL     1      34.283   0.274  16.697  0.00  0.00    +0.000 A 
ATOM      2  C   UNL     1      33.692   0.520  15.364  0.00  0.00    +0.000 A 
ATOM      3  C   UNL     1      35.049   1.358  17.235  0.00  0.00    +0.000 A 
ATOM      4  C   UNL     1      33.943   1.820  14.817  0.00  0.00    +0.000 A 
ATOM      5  C   UNL     1      35.369   2.766  16.705  0.00  0.00    +0.000 A 
ATOM      6  C   UNL     1      34.739   3.028  15.335  0.00  0.00    +0.000 A 
ENDROOT
BRANCH   1   7
ATOM      7  N   UNL     1      34.048  -0.914  17.430  0.00  0.00    +0.000 N 
ATOM      8  H   UNL     1      33.547  -1.622  16.904  0.00  0.00    +0.000 HD
ATOM      9  H   UNL     1      33.655  -0.768  18.354  0.00  0.00    +0.000 HD
ENDBRANCH   1   7
BRANCH   2  10
ATOM     10  N   UNL     1      32.995  -0.477  14.640  0.00  0.00    +0.000 N 
ATOM     11  H   UNL     1      32.265  -0.932  15.178  0.00  0.00    +0.000 HD
ATOM     12  H   UNL     1      33.591  -1.142  14.159  0.00  0.00    +0.000 HD
ENDBRANCH   2  10
TORSDOF 2
ENDMDL
MODEL 6
REMARK VINA RESULT:      -4.5      2.442      3.871
REMARK  Name = 43806_Diaminocyclohexane.pdbqt.pdb
REMARK  2 active torsions:
REMARK  status: ('A' for Active; 'I' for Inactive)
REMARK    1  A    between atoms: C_1  and  N_7
REMARK    2  A    between atoms: C_2  and  N_10
REMARK                            x       y       z     vdW  Elec       q    Type
REMARK                         _______ _______ _______ _____ _____    ______ ____
ROOT
ATOM      1  C   UNL     1      35.712  -0.084  14.792  0.00  0.00    +0.000 A 
ATOM      2  C   UNL     1      36.829  -1.032  15.001  0.00  0.00    +0.000 A 
ATOM      3  C   UNL     1      34.603  -0.242  15.684  0.00  0.00    +0.000 A 
ATOM      4  C   UNL     1      36.653  -1.950  16.087  0.00  0.00    +0.000 A 
ATOM      5  C   UNL     1      34.342  -1.203  16.856  0.00  0.00    +0.000 A 
ATOM      6  C   UNL     1      35.506  -2.169  17.086  0.00  0.00    +0.000 A 
ENDROOT
BRANCH   1   7
ATOM      7  N   UNL     1      35.762   0.956  13.835  0.00  0.00    +0.000 N 
ATOM      8  H   UNL     1      35.223   0.762  12.997  0.00  0.00    +0.000 HD
ATOM      9  H   UNL     1      36.697   1.290  13.624  0.00  0.00    +0.000 HD
ENDBRANCH   1   7
BRANCH   2  10
ATOM     10  N   UNL     1      37.955  -1.088  14.146  0.00  0.00    +0.000 N 
ATOM     11  H   UNL     1      37.882  -1.799  13.425  0.00  0.00    +0.000 HD
ATOM     12  H   UNL     1      38.847  -1.116  14.627  0.00  0.00    +0.000 HD
ENDBRANCH   2  10
TORSDOF 2
ENDMDL
MODEL 7
REMARK VINA RESULT:      -4.5      2.435      3.172
REMARK  Name = 43806_Diaminocyclohexane.pdbqt.pdb
REMARK  2 active torsions:
REMARK  status: ('A' for Active; 'I' for Inactive)
REMARK    1  A    between atoms: C_1  and  N_7
REMARK    2  A    between atoms: C_2  and  N_10
REMARK                            x       y       z     vdW  Elec       q    Type
REMARK                         _______ _______ _______ _____ _____    ______ ____
ROOT
ATOM      1  C   UNL     1      36.816  -1.031  15.000  0.00  0.00    +0.000 A 
ATOM      2  C   UNL     1      35.695  -0.090  14.788  0.00  0.00    +0.000 A 
ATOM      3  C   UNL     1      36.649  -1.944  16.090  0.00  0.00    +0.000 A 
ATOM      4  C   UNL     1      34.588  -0.250  15.684  0.00  0.00    +0.000 A 
ATOM      5  C   UNL     1      35.504  -2.165  17.093  0.00  0.00    +0.000 A 
ATOM      6  C   UNL     1      34.335  -1.206  16.860  0.00  0.00    +0.000 A 
ENDROOT
BRANCH   1   7
ATOM      7  N   UNL     1      37.941  -1.085  14.143  0.00  0.00    +0.000 N 
ATOM      8  H   UNL     1      37.768  -0.694  13.222  0.00  0.00    +0.000 HD
ATOM      9  H   UNL     1      38.394  -1.992  14.099  0.00  0.00    +0.000 HD
ENDBRANCH   1   7
BRANCH   2  10
ATOM     10  N   UNL     1      35.737   0.946  13.825  0.00  0.00    +0.000 N 
ATOM     11  H   UNL     1      36.621   1.003  13.329  0.00  0.00    +0.000 HD
ATOM     12  H   UNL     1      35.427   1.850  14.166  0.00  0.00    +0.000 HD
ENDBRANCH   2  10
TORSDOF 2
ENDMDL
MODEL 8
REMARK VINA RESULT:      -4.5      2.916      3.461
REMARK  Name = 43806_Diaminocyclohexane.pdbqt.pdb
REMARK  2 active torsions:
REMARK  status: ('A' for Active; 'I' for Inactive)
REMARK    1  A    between atoms: C_1  and  N_7
REMARK    2  A    between atoms: C_2  and  N_10
REMARK                            x       y       z     vdW  Elec       q    Type
REMARK                         _______ _______ _______ _____ _____    ______ ____
ROOT
ATOM      1  C   UNL     1      34.852   1.814  16.757  0.00  0.00    +0.000 A 
ATOM      2  C   UNL     1      34.252   1.886  15.406  0.00  0.00    +0.000 A 
ATOM      3  C   UNL     1      34.823   0.520  17.369  0.00  0.00    +0.000 A 
ATOM      4  C   UNL     1      33.758   0.642  14.893  0.00  0.00    +0.000 A 
ATOM      5  C   UNL     1      34.305  -0.846  16.888  0.00  0.00    +0.000 A 
ATOM      6  C   UNL     1      33.703  -0.776  15.482  0.00  0.00    +0.000 A 
ENDROOT
BRANCH   1   7
ATOM      7  N   UNL     1      35.481   2.922  17.373  0.00  0.00    +0.000 N 
ATOM      8  H   UNL     1      35.067   3.179  18.263  0.00  0.00    +0.000 HD
ATOM      9  H   UNL     1      35.616   3.722  16.763  0.00  0.00    +0.000 HD
ENDBRANCH   1   7
BRANCH   2  10
ATOM     10  N   UNL     1      34.100   3.102  14.700  0.00  0.00    +0.000 N 
ATOM     11  H   UNL     1      34.267   3.015  13.703  0.00  0.00    +0.000 HD
ATOM     12  H   UNL     1      34.594   3.889  15.107  0.00  0.00    +0.000 HD
ENDBRANCH   2  10
TORSDOF 2
ENDMDL
MODEL 9
REMARK VINA RESULT:      -4.2     10.538     11.136
REMARK  Name = 43806_Diaminocyclohexane.pdbqt.pdb
REMARK  2 active torsions:
REMARK  status: ('A' for Active; 'I' for Inactive)
REMARK    1  A    between atoms: C_1  and  N_7
REMARK    2  A    between atoms: C_2  and  N_10
REMARK                            x       y       z     vdW  Elec       q    Type
REMARK                         _______ _______ _______ _____ _____    ______ ____
ROOT
ATOM      1  C   UNL     1      38.976   7.525  21.020  0.00  0.00    +0.000 A 
ATOM      2  C   UNL     1      40.414   7.615  21.356  0.00  0.00    +0.000 A 
ATOM      3  C   UNL     1      38.669   7.595  19.623  0.00  0.00    +0.000 A 
ATOM      4  C   UNL     1      41.296   7.726  20.231  0.00  0.00    +0.000 A 
ATOM      5  C   UNL     1      39.554   7.724  18.372  0.00  0.00    +0.000 A 
ATOM      6  C   UNL     1      41.043   7.796  18.717  0.00  0.00    +0.000 A 
ENDROOT
BRANCH   1   7
ATOM      7  N   UNL     1      37.976   7.306  21.997  0.00  0.00    +0.000 N 
ATOM      8  H   UNL     1      38.334   7.288  22.947  0.00  0.00    +0.000 HD
ATOM      9  H   UNL     1      37.361   6.522  21.802  0.00  0.00    +0.000 HD
ENDBRANCH   1   7
BRANCH   2  10
ATOM     10  N   UNL     1      40.887   7.668  22.688  0.00  0.00    +0.000 N 
ATOM     11  H   UNL     1      40.146   7.734  23.379  0.00  0.00    +0.000 HD
ATOM     12  H   UNL     1      41.624   8.347  22.846  0.00  0.00    +0.000 HD
ENDBRANCH   2  10
TORSDOF 2
ENDMDL
