MODEL 1
REMARK VINA RESULT:      -6.8      0.000      0.000
REMARK  Name = 44234954_SipholenolL.pdbqt.pdb
REMARK  5 active torsions:
REMARK  status: ('A' for Active; 'I' for Inactive)
REMARK    1  A    between atoms: C_3  and  C_20
REMARK    2  A    between atoms: C_4  and  O_16
REMARK    3  A    between atoms: C_13  and  O_18
REMARK    4  A    between atoms: C_21  and  C_25
REMARK    5  A    between atoms: C_26  and  O_36
REMARK                            x       y       z     vdW  Elec       q    Type
REMARK                         _______ _______ _______ _____ _____    ______ ____
ROOT
ATOM      1  O   UNL     1      37.909 -15.110  -2.839  0.00  0.00    +0.000 OA
ATOM      2  C   UNL     1      39.750 -16.813  -3.550  0.00  0.00    +0.000 C 
ATOM      3  C   UNL     1      41.113 -17.379  -3.148  0.00  0.00    +0.000 C 
ATOM      4  C   UNL     1      41.354 -17.802  -1.710  0.00  0.00    +0.000 C 
ATOM      5  C   UNL     1      39.050 -15.845  -2.498  0.00  0.00    +0.000 C 
ATOM      6  C   UNL     1      39.869 -15.922  -4.714  0.00  0.00    +0.000 C 
ATOM      7  C   UNL     1      40.445 -17.064  -0.853  0.00  0.00    +0.000 C 
ATOM      8  C   UNL     1      39.334 -16.109  -1.143  0.00  0.00    +0.000 C 
ATOM      9  C   UNL     1      38.773 -17.975  -3.869  0.00  0.00    +0.000 C 
ATOM     10  C   UNL     1      39.378 -14.592  -5.228  0.00  0.00    +0.000 C 
ATOM     11  C   UNL     1      38.044 -13.699  -3.239  0.00  0.00    +0.000 C 
ATOM     12  C   UNL     1      41.284 -19.317  -1.539  0.00  0.00    +0.000 C 
ATOM     13  C   UNL     1      38.572 -13.555  -4.706  0.00  0.00    +0.000 C 
ATOM     14  C   UNL     1      36.612 -13.104  -3.159  0.00  0.00    +0.000 C 
ATOM     15  C   UNL     1      39.011 -12.935  -2.282  0.00  0.00    +0.000 C 
ENDROOT
BRANCH   4  16
ATOM     16  O   UNL     1      42.675 -17.456  -1.350  0.00  0.00    +0.000 OA
ATOM     17  H   UNL     1      42.743 -17.882  -0.474  0.00  0.00    +0.000 HD
ENDBRANCH   4  16
BRANCH  13  18
ATOM     18  O   UNL     1      38.462 -12.364  -5.414  0.00  0.00    +0.000 OA
ATOM     19  H   UNL     1      37.636 -11.889  -5.216  0.00  0.00    +0.000 HD
ENDBRANCH  13  18
BRANCH   3  20
ATOM     20  C   UNL     1      42.148 -17.573  -4.127  0.00  0.00    +0.000 C 
ATOM     21  C   UNL     1      43.231 -17.762  -5.194  0.00  0.00    +0.000 C 
BRANCH  21  25
ATOM     22  C   UNL     1      45.216 -16.755  -6.502  0.00  0.00    +0.000 A 
ATOM     23  C   UNL     1      46.316 -16.947  -7.617  0.00  0.00    +0.000 A 
ATOM     24  C   UNL     1      45.089 -15.406  -5.679  0.00  0.00    +0.000 C 
ATOM     25  C   UNL     1      44.220 -17.901  -6.216  0.00  0.00    +0.000 A 
ATOM     26  C   UNL     1      47.420 -15.954  -8.048  0.00  0.00    +0.000 C 
ATOM     27  C   UNL     1      46.142 -14.537  -6.212  0.00  0.00    +0.000 C 
ATOM     28  C   UNL     1      47.192 -14.751  -7.270  0.00  0.00    +0.000 C 
ATOM     29  C   UNL     1      46.159 -18.207  -8.264  0.00  0.00    +0.000 A 
ATOM     30  C   UNL     1      44.219 -19.180  -6.979  0.00  0.00    +0.000 A 
ATOM     31  C   UNL     1      45.362 -15.682  -4.181  0.00  0.00    +0.000 C 
ATOM     32  C   UNL     1      43.714 -14.756  -5.942  0.00  0.00    +0.000 C 
ATOM     33  C   UNL     1      45.128 -19.235  -7.900  0.00  0.00    +0.000 A 
ATOM     34  C   UNL     1      48.808 -16.547  -7.851  0.00  0.00    +0.000 C 
ATOM     35  C   UNL     1      43.383 -20.389  -6.680  0.00  0.00    +0.000 C 
BRANCH  26  36
ATOM     36  O   UNL     1      47.284 -15.664  -9.415  0.00  0.00    +0.000 OA
ATOM     37  H   UNL     1      47.651 -14.762  -9.451  0.00  0.00    +0.000 HD
ENDBRANCH  26  36
ENDBRANCH  21  25
ENDBRANCH   3  20
TORSDOF 5
ENDMDL
MODEL 2
REMARK VINA RESULT:      -6.7      1.155      2.865
REMARK  Name = 44234954_SipholenolL.pdbqt.pdb
REMARK  5 active torsions:
REMARK  status: ('A' for Active; 'I' for Inactive)
REMARK    1  A    between atoms: C_3  and  C_20
REMARK    2  A    between atoms: C_4  and  O_16
REMARK    3  A    between atoms: C_13  and  O_18
REMARK    4  A    between atoms: C_21  and  C_25
REMARK    5  A    between atoms: C_26  and  O_36
REMARK                            x       y       z     vdW  Elec       q    Type
REMARK                         _______ _______ _______ _____ _____    ______ ____
ROOT
ATOM      1  O   UNL     1      37.913 -15.090  -2.913  0.00  0.00    +0.000 OA
ATOM      2  C   UNL     1      39.938 -16.572  -3.618  0.00  0.00    +0.000 C 
ATOM      3  C   UNL     1      41.331 -17.028  -3.180  0.00  0.00    +0.000 C 
ATOM      4  C   UNL     1      41.549 -17.505  -1.755  0.00  0.00    +0.000 C 
ATOM      5  C   UNL     1      39.103 -15.732  -2.554  0.00  0.00    +0.000 C 
ATOM      6  C   UNL     1      40.022 -15.611  -4.729  0.00  0.00    +0.000 C 
ATOM      7  C   UNL     1      40.536 -16.903  -0.908  0.00  0.00    +0.000 C 
ATOM      8  C   UNL     1      39.353 -16.043  -1.202  0.00  0.00    +0.000 C 
ATOM      9  C   UNL     1      39.093 -17.801  -4.043  0.00  0.00    +0.000 C 
ATOM     10  C   UNL     1      39.428 -14.306  -5.198  0.00  0.00    +0.000 C 
ATOM     11  C   UNL     1      37.928 -13.653  -3.234  0.00  0.00    +0.000 C 
ATOM     12  C   UNL     1      41.617 -19.027  -1.665  0.00  0.00    +0.000 C 
ATOM     13  C   UNL     1      38.503 -13.380  -4.664  0.00  0.00    +0.000 C 
ATOM     14  C   UNL     1      36.444 -13.201  -3.193  0.00  0.00    +0.000 C 
ATOM     15  C   UNL     1      38.774 -12.855  -2.194  0.00  0.00    +0.000 C 
ENDROOT
BRANCH   4  16
ATOM     16  O   UNL     1      42.814 -17.057  -1.314  0.00  0.00    +0.000 OA
ATOM     17  H   UNL     1      42.884 -17.521  -0.459  0.00  0.00    +0.000 HD
ENDBRANCH   4  16
BRANCH  13  18
ATOM     18  O   UNL     1      38.311 -12.167  -5.315  0.00  0.00    +0.000 OA
ATOM     19  H   UNL     1      37.435 -11.783  -5.134  0.00  0.00    +0.000 HD
ENDBRANCH  13  18
BRANCH   3  20
ATOM     20  C   UNL     1      42.422 -17.069  -4.116  0.00  0.00    +0.000 C 
ATOM     21  C   UNL     1      43.563 -17.096  -5.137  0.00  0.00    +0.000 C 
BRANCH  21  25
ATOM     22  C   UNL     1      44.607 -18.107  -7.271  0.00  0.00    +0.000 A 
ATOM     23  C   UNL     1      45.754 -18.051  -8.353  0.00  0.00    +0.000 A 
ATOM     24  C   UNL     1      43.463 -19.203  -7.325  0.00  0.00    +0.000 C 
ATOM     25  C   UNL     1      44.606 -17.084  -6.115  0.00  0.00    +0.000 A 
ATOM     26  C   UNL     1      45.937 -18.951  -9.597  0.00  0.00    +0.000 C 
ATOM     27  C   UNL     1      43.775 -20.018  -8.504  0.00  0.00    +0.000 C 
ATOM     28  C   UNL     1      44.872 -19.933  -9.530  0.00  0.00    +0.000 C 
ATOM     29  C   UNL     1      46.700 -17.036  -8.027  0.00  0.00    +0.000 A 
ATOM     30  C   UNL     1      45.671 -16.058  -5.943  0.00  0.00    +0.000 A 
ATOM     31  C   UNL     1      42.091 -18.515  -7.527  0.00  0.00    +0.000 C 
ATOM     32  C   UNL     1      43.523 -20.091  -6.064  0.00  0.00    +0.000 C 
ATOM     33  C   UNL     1      46.593 -16.110  -6.851  0.00  0.00    +0.000 A 
ATOM     34  C   UNL     1      45.927 -18.133 -10.880  0.00  0.00    +0.000 C 
ATOM     35  C   UNL     1      45.677 -14.946  -4.934  0.00  0.00    +0.000 C 
BRANCH  26  36
ATOM     36  O   UNL     1      47.181 -19.599  -9.530  0.00  0.00    +0.000 OA
ATOM     37  H   UNL     1      46.991 -20.418 -10.024  0.00  0.00    +0.000 HD
ENDBRANCH  26  36
ENDBRANCH  21  25
ENDBRANCH   3  20
TORSDOF 5
ENDMDL
MODEL 3
REMARK VINA RESULT:      -6.6     20.298     23.696
REMARK  Name = 44234954_SipholenolL.pdbqt.pdb
REMARK  5 active torsions:
REMARK  status: ('A' for Active; 'I' for Inactive)
REMARK    1  A    between atoms: C_3  and  C_20
REMARK    2  A    between atoms: C_4  and  O_16
REMARK    3  A    between atoms: C_13  and  O_18
REMARK    4  A    between atoms: C_21  and  C_25
REMARK    5  A    between atoms: C_26  and  O_36
REMARK                            x       y       z     vdW  Elec       q    Type
REMARK                         _______ _______ _______ _____ _____    ______ ____
ROOT
ATOM      1  O   UNL     1      51.298 -18.631  20.565  0.00  0.00    +0.000 OA
ATOM      2  C   UNL     1      49.470 -20.132  19.473  0.00  0.00    +0.000 C 
ATOM      3  C   UNL     1      49.180 -21.558  18.999  0.00  0.00    +0.000 C 
ATOM      4  C   UNL     1      49.529 -22.731  19.898  0.00  0.00    +0.000 C 
ATOM      5  C   UNL     1      50.832 -19.915  20.266  0.00  0.00    +0.000 C 
ATOM      6  C   UNL     1      49.663 -19.225  18.332  0.00  0.00    +0.000 C 
ATOM      7  C   UNL     1      50.595 -22.324  20.794  0.00  0.00    +0.000 C 
ATOM      8  C   UNL     1      51.278 -21.016  21.025  0.00  0.00    +0.000 C 
ATOM      9  C   UNL     1      48.302 -19.627  20.360  0.00  0.00    +0.000 C 
ATOM     10  C   UNL     1      50.560 -18.108  17.860  0.00  0.00    +0.000 C 
ATOM     11  C   UNL     1      52.323 -18.010  19.709  0.00  0.00    +0.000 C 
ATOM     12  C   UNL     1      48.300 -23.298  20.602  0.00  0.00    +0.000 C 
ATOM     13  C   UNL     1      51.719 -17.475  18.367  0.00  0.00    +0.000 C 
ATOM     14  C   UNL     1      52.878 -16.810  20.524  0.00  0.00    +0.000 C 
ATOM     15  C   UNL     1      53.464 -19.021  19.376  0.00  0.00    +0.000 C 
ENDROOT
BRANCH   4  16
ATOM     16  O   UNL     1      50.010 -23.790  19.096  0.00  0.00    +0.000 OA
ATOM     17  H   UNL     1      49.661 -23.530  18.223  0.00  0.00    +0.000 HD
ENDBRANCH   4  16
BRANCH  13  18
ATOM     18  O   UNL     1      52.400 -16.570  17.563  0.00  0.00    +0.000 OA
ATOM     19  H   UNL     1      52.245 -15.646  17.829  0.00  0.00    +0.000 HD
ENDBRANCH  13  18
BRANCH   3  20
ATOM     20  C   UNL     1      48.527 -21.798  17.741  0.00  0.00    +0.000 C 
ATOM     21  C   UNL     1      47.849 -22.084  16.397  0.00  0.00    +0.000 C 
BRANCH  21  25
ATOM     22  C   UNL     1      48.040 -22.325  13.834  0.00  0.00    +0.000 A 
ATOM     23  C   UNL     1      47.341 -22.706  12.472  0.00  0.00    +0.000 A 
ATOM     24  C   UNL     1      49.550 -21.846  13.890  0.00  0.00    +0.000 C 
ATOM     25  C   UNL     1      47.231 -22.399  15.147  0.00  0.00    +0.000 A 
ATOM     26  C   UNL     1      47.960 -22.729  11.055  0.00  0.00    +0.000 C 
ATOM     27  C   UNL     1      50.003 -21.858  12.496  0.00  0.00    +0.000 C 
ATOM     28  C   UNL     1      49.316 -22.241  11.212  0.00  0.00    +0.000 C 
ATOM     29  C   UNL     1      45.965 -23.016  12.685  0.00  0.00    +0.000 A 
ATOM     30  C   UNL     1      45.791 -22.776  15.189  0.00  0.00    +0.000 A 
ATOM     31  C   UNL     1      50.388 -22.856  14.709  0.00  0.00    +0.000 C 
ATOM     32  C   UNL     1      49.625 -20.403  14.435  0.00  0.00    +0.000 C 
ATOM     33  C   UNL     1      45.289 -23.033  14.024  0.00  0.00    +0.000 A 
ATOM     34  C   UNL     1      47.884 -24.119  10.439  0.00  0.00    +0.000 C 
ATOM     35  C   UNL     1      44.970 -23.002  16.425  0.00  0.00    +0.000 C 
BRANCH  26  36
ATOM     36  O   UNL     1      47.241 -21.864  10.214  0.00  0.00    +0.000 OA
ATOM     37  H   UNL     1      46.891 -21.225  10.861  0.00  0.00    +0.000 HD
ENDBRANCH  26  36
ENDBRANCH  21  25
ENDBRANCH   3  20
TORSDOF 5
ENDMDL
MODEL 4
REMARK VINA RESULT:      -6.6     41.853     47.799
REMARK  Name = 44234954_SipholenolL.pdbqt.pdb
REMARK  5 active torsions:
REMARK  status: ('A' for Active; 'I' for Inactive)
REMARK    1  A    between atoms: C_3  and  C_20
REMARK    2  A    between atoms: C_4  and  O_16
REMARK    3  A    between atoms: C_13  and  O_18
REMARK    4  A    between atoms: C_21  and  C_25
REMARK    5  A    between atoms: C_26  and  O_36
REMARK                            x       y       z     vdW  Elec       q    Type
REMARK                         _______ _______ _______ _____ _____    ______ ____
ROOT
ATOM      1  O   UNL     1      20.218  10.194  19.867  0.00  0.00    +0.000 OA
ATOM      2  C   UNL     1      19.851  12.338  21.302  0.00  0.00    +0.000 C 
ATOM      3  C   UNL     1      18.768  13.257  21.874  0.00  0.00    +0.000 C 
ATOM      4  C   UNL     1      17.563  12.651  22.569  0.00  0.00    +0.000 C 
ATOM      5  C   UNL     1      19.344  11.002  20.602  0.00  0.00    +0.000 C 
ATOM      6  C   UNL     1      20.560  12.986  20.188  0.00  0.00    +0.000 C 
ATOM      7  C   UNL     1      17.367  11.305  22.063  0.00  0.00    +0.000 C 
ATOM      8  C   UNL     1      18.154  10.454  21.123  0.00  0.00    +0.000 C 
ATOM      9  C   UNL     1      20.856  11.953  22.419  0.00  0.00    +0.000 C 
ATOM     10  C   UNL     1      21.088  12.694  18.806  0.00  0.00    +0.000 C 
ATOM     11  C   UNL     1      20.259  10.310  18.400  0.00  0.00    +0.000 C 
ATOM     12  C   UNL     1      17.673  12.739  24.088  0.00  0.00    +0.000 C 
ATOM     13  C   UNL     1      21.048  11.581  17.936  0.00  0.00    +0.000 C 
ATOM     14  C   UNL     1      21.007   9.044  17.901  0.00  0.00    +0.000 C 
ATOM     15  C   UNL     1      18.819  10.369  17.801  0.00  0.00    +0.000 C 
ENDROOT
BRANCH   4  16
ATOM     16  O   UNL     1      16.419  13.413  22.242  0.00  0.00    +0.000 OA
ATOM     17  H   UNL     1      16.514  14.160  22.863  0.00  0.00    +0.000 HD
ENDBRANCH   4  16
BRANCH  13  18
ATOM     18  O   UNL     1      21.506  11.726  16.632  0.00  0.00    +0.000 OA
ATOM     19  H   UNL     1      22.377  11.313  16.496  0.00  0.00    +0.000 HD
ENDBRANCH  13  18
BRANCH   3  20
ATOM     20  C   UNL     1      18.909  14.686  21.815  0.00  0.00    +0.000 C 
ATOM     21  C   UNL     1      19.095  16.206  21.750  0.00  0.00    +0.000 C 
BRANCH  21  25
ATOM     22  C   UNL     1      18.381  18.597  22.411  0.00  0.00    +0.000 A 
ATOM     23  C   UNL     1      18.663  20.147  22.327  0.00  0.00    +0.000 A 
ATOM     24  C   UNL     1      17.147  18.017  23.221  0.00  0.00    +0.000 C 
ATOM     25  C   UNL     1      19.314  17.616  21.669  0.00  0.00    +0.000 A 
ATOM     26  C   UNL     1      17.882  21.297  23.005  0.00  0.00    +0.000 C 
ATOM     27  C   UNL     1      16.463  19.194  23.764  0.00  0.00    +0.000 C 
ATOM     28  C   UNL     1      16.764  20.667  23.680  0.00  0.00    +0.000 C 
ATOM     29  C   UNL     1      19.772  20.408  21.470  0.00  0.00    +0.000 A 
ATOM     30  C   UNL     1      20.460  18.068  20.831  0.00  0.00    +0.000 A 
ATOM     31  C   UNL     1      17.657  17.137  24.388  0.00  0.00    +0.000 C 
ATOM     32  C   UNL     1      16.192  17.272  22.264  0.00  0.00    +0.000 C 
ATOM     33  C   UNL     1      20.593  19.355  20.786  0.00  0.00    +0.000 A 
ATOM     34  C   UNL     1      18.777  22.102  23.937  0.00  0.00    +0.000 C 
ATOM     35  C   UNL     1      21.491  17.185  20.190  0.00  0.00    +0.000 C 
BRANCH  26  36
ATOM     36  O   UNL     1      17.404  22.182  22.025  0.00  0.00    +0.000 OA
ATOM     37  H   UNL     1      17.138  22.941  22.575  0.00  0.00    +0.000 HD
ENDBRANCH  26  36
ENDBRANCH  21  25
ENDBRANCH   3  20
TORSDOF 5
ENDMDL
MODEL 5
REMARK VINA RESULT:      -6.5     44.706     48.871
REMARK  Name = 44234954_SipholenolL.pdbqt.pdb
REMARK  5 active torsions:
REMARK  status: ('A' for Active; 'I' for Inactive)
REMARK    1  A    between atoms: C_3  and  C_20
REMARK    2  A    between atoms: C_4  and  O_16
REMARK    3  A    between atoms: C_13  and  O_18
REMARK    4  A    between atoms: C_21  and  C_25
REMARK    5  A    between atoms: C_26  and  O_36
REMARK                            x       y       z     vdW  Elec       q    Type
REMARK                         _______ _______ _______ _____ _____    ______ ____
ROOT
ATOM      1  O   UNL     1      14.460  14.011  26.621  0.00  0.00    +0.000 OA
ATOM      2  C   UNL     1      15.563  13.992  24.261  0.00  0.00    +0.000 C 
ATOM      3  C   UNL     1      16.505  13.193  23.357  0.00  0.00    +0.000 C 
ATOM      4  C   UNL     1      16.320  11.693  23.222  0.00  0.00    +0.000 C 
ATOM      5  C   UNL     1      15.143  13.299  25.630  0.00  0.00    +0.000 C 
ATOM      6  C   UNL     1      16.215  15.215  24.755  0.00  0.00    +0.000 C 
ATOM      7  C   UNL     1      15.651  11.202  24.413  0.00  0.00    +0.000 C 
ATOM      8  C   UNL     1      15.074  11.891  25.605  0.00  0.00    +0.000 C 
ATOM      9  C   UNL     1      14.273  14.357  23.481  0.00  0.00    +0.000 C 
ATOM     10  C   UNL     1      16.383  16.028  26.014  0.00  0.00    +0.000 C 
ATOM     11  C   UNL     1      15.206  14.576  27.758  0.00  0.00    +0.000 C 
ATOM     12  C   UNL     1      15.628  11.316  21.915  0.00  0.00    +0.000 C 
ATOM     13  C   UNL     1      15.980  15.878  27.361  0.00  0.00    +0.000 C 
ATOM     14  C   UNL     1      14.135  14.933  28.825  0.00  0.00    +0.000 C 
ATOM     15  C   UNL     1      16.226  13.543  28.330  0.00  0.00    +0.000 C 
ENDROOT
BRANCH   4  16
ATOM     16  O   UNL     1      17.592  11.083  23.150  0.00  0.00    +0.000 OA
ATOM     17  H   UNL     1      17.700  10.777  24.070  0.00  0.00    +0.000 HD
ENDBRANCH   4  16
BRANCH  13  18
ATOM     18  O   UNL     1      16.469  16.763  28.314  0.00  0.00    +0.000 OA
ATOM     19  H   UNL     1      16.638  16.332  29.170  0.00  0.00    +0.000 HD
ENDBRANCH  13  18
BRANCH   3  20
ATOM     20  C   UNL     1      17.524  13.854  22.587  0.00  0.00    +0.000 C 
ATOM     21  C   UNL     1      18.631  14.531  21.773  0.00  0.00    +0.000 C 
BRANCH  21  25
ATOM     22  C   UNL     1      19.844  16.653  20.940  0.00  0.00    +0.000 A 
ATOM     23  C   UNL     1      21.036  17.272  20.112  0.00  0.00    +0.000 A 
ATOM     24  C   UNL     1      18.785  17.565  21.688  0.00  0.00    +0.000 C 
ATOM     25  C   UNL     1      19.687  15.118  21.008  0.00  0.00    +0.000 A 
ATOM     26  C   UNL     1      21.396  18.765  19.930  0.00  0.00    +0.000 C 
ATOM     27  C   UNL     1      19.200  18.941  21.397  0.00  0.00    +0.000 C 
ATOM     28  C   UNL     1      20.354  19.506  20.614  0.00  0.00    +0.000 C 
ATOM     29  C   UNL     1      21.785  16.245  19.468  0.00  0.00    +0.000 A 
ATOM     30  C   UNL     1      20.592  14.180  20.288  0.00  0.00    +0.000 A 
ATOM     31  C   UNL     1      18.869  17.317  23.213  0.00  0.00    +0.000 C 
ATOM     32  C   UNL     1      17.377  17.326  21.104  0.00  0.00    +0.000 C 
ATOM     33  C   UNL     1      21.515  14.775  19.602  0.00  0.00    +0.000 A 
ATOM     34  C   UNL     1      22.795  19.066  20.451  0.00  0.00    +0.000 C 
ATOM     35  C   UNL     1      20.594  12.684  20.406  0.00  0.00    +0.000 C 
BRANCH  26  36
ATOM     36  O   UNL     1      21.386  19.088  18.563  0.00  0.00    +0.000 OA
ATOM     37  H   UNL     1      21.952  18.380  18.202  0.00  0.00    +0.000 HD
ENDBRANCH  26  36
ENDBRANCH  21  25
ENDBRANCH   3  20
TORSDOF 5
ENDMDL
MODEL 6
REMARK VINA RESULT:      -6.5     45.484     48.283
REMARK  Name = 44234954_SipholenolL.pdbqt.pdb
REMARK  5 active torsions:
REMARK  status: ('A' for Active; 'I' for Inactive)
REMARK    1  A    between atoms: C_3  and  C_20
REMARK    2  A    between atoms: C_4  and  O_16
REMARK    3  A    between atoms: C_13  and  O_18
REMARK    4  A    between atoms: C_21  and  C_25
REMARK    5  A    between atoms: C_26  and  O_36
REMARK                            x       y       z     vdW  Elec       q    Type
REMARK                         _______ _______ _______ _____ _____    ______ ____
ROOT
ATOM      1  O   UNL     1      51.814 -10.014  42.065  0.00  0.00    +0.000 OA
ATOM      2  C   UNL     1      51.268  -7.537  42.660  0.00  0.00    +0.000 C 
ATOM      3  C   UNL     1      50.118  -6.586  43.002  0.00  0.00    +0.000 C 
ATOM      4  C   UNL     1      49.081  -7.004  44.028  0.00  0.00    +0.000 C 
ATOM      5  C   UNL     1      50.901  -9.083  42.568  0.00  0.00    +0.000 C 
ATOM      6  C   UNL     1      51.773  -7.289  41.301  0.00  0.00    +0.000 C 
ATOM      7  C   UNL     1      49.039  -8.454  44.077  0.00  0.00    +0.000 C 
ATOM      8  C   UNL     1      49.855  -9.512  43.410  0.00  0.00    +0.000 C 
ATOM      9  C   UNL     1      52.414  -7.367  43.691  0.00  0.00    +0.000 C 
ATOM     10  C   UNL     1      52.212  -8.025  40.060  0.00  0.00    +0.000 C 
ATOM     11  C   UNL     1      51.707 -10.457  40.664  0.00  0.00    +0.000 C 
ATOM     12  C   UNL     1      49.312  -6.338  45.381  0.00  0.00    +0.000 C 
ATOM     13  C   UNL     1      52.257  -9.382  39.667  0.00  0.00    +0.000 C 
ATOM     14  C   UNL     1      52.583 -11.735  40.561  0.00  0.00    +0.000 C 
ATOM     15  C   UNL     1      50.226 -10.776  40.289  0.00  0.00    +0.000 C 
ENDROOT
BRANCH   4  16
ATOM     16  O   UNL     1      47.814  -6.542  43.606  0.00  0.00    +0.000 OA
ATOM     17  H   UNL     1      47.433  -6.255  44.457  0.00  0.00    +0.000 HD
ENDBRANCH   4  16
BRANCH  13  18
ATOM     18  O   UNL     1      52.571  -9.693  38.350  0.00  0.00    +0.000 OA
ATOM     19  H   UNL     1      51.787  -9.703  37.773  0.00  0.00    +0.000 HD
ENDBRANCH  13  18
BRANCH   3  20
ATOM     20  C   UNL     1      50.044  -5.278  42.410  0.00  0.00    +0.000 C 
ATOM     21  C   UNL     1      49.957  -3.870  41.811  0.00  0.00    +0.000 C 
BRANCH  21  25
ATOM     22  C   UNL     1      50.209  -2.249  39.818  0.00  0.00    +0.000 A 
ATOM     23  C   UNL     1      50.090  -0.773  39.272  0.00  0.00    +0.000 A 
ATOM     24  C   UNL     1      50.677  -3.446  38.890  0.00  0.00    +0.000 C 
ATOM     25  C   UNL     1      49.882  -2.538  41.299  0.00  0.00    +0.000 A 
ATOM     26  C   UNL     1      50.341  -0.265  37.834  0.00  0.00    +0.000 C 
ATOM     27  C   UNL     1      50.933  -2.833  37.583  0.00  0.00    +0.000 C 
ATOM     28  C   UNL     1      50.798  -1.419  37.084  0.00  0.00    +0.000 C 
ATOM     29  C   UNL     1      49.738   0.122  40.324  0.00  0.00    +0.000 A 
ATOM     30  C   UNL     1      49.495  -1.471  42.264  0.00  0.00    +0.000 A 
ATOM     31  C   UNL     1      49.534  -4.480  38.755  0.00  0.00    +0.000 C 
ATOM     32  C   UNL     1      51.990  -4.051  39.432  0.00  0.00    +0.000 C 
ATOM     33  C   UNL     1      49.462  -0.287  41.742  0.00  0.00    +0.000 A 
ATOM     34  C   UNL     1      49.093   0.382  37.249  0.00  0.00    +0.000 C 
ATOM     35  C   UNL     1      49.033  -1.679  43.677  0.00  0.00    +0.000 C 
BRANCH  26  36
ATOM     36  O   UNL     1      51.346   0.716  37.850  0.00  0.00    +0.000 OA
ATOM     37  H   UNL     1      51.315   1.028  36.927  0.00  0.00    +0.000 HD
ENDBRANCH  26  36
ENDBRANCH  21  25
ENDBRANCH   3  20
TORSDOF 5
ENDMDL
MODEL 7
REMARK VINA RESULT:      -6.4     38.500     41.985
REMARK  Name = 44234954_SipholenolL.pdbqt.pdb
REMARK  5 active torsions:
REMARK  status: ('A' for Active; 'I' for Inactive)
REMARK    1  A    between atoms: C_3  and  C_20
REMARK    2  A    between atoms: C_4  and  O_16
REMARK    3  A    between atoms: C_13  and  O_18
REMARK    4  A    between atoms: C_21  and  C_25
REMARK    5  A    between atoms: C_26  and  O_36
REMARK                            x       y       z     vdW  Elec       q    Type
REMARK                         _______ _______ _______ _____ _____    ______ ____
ROOT
ATOM      1  O   UNL     1      52.964 -10.184  39.859  0.00  0.00    +0.000 OA
ATOM      2  C   UNL     1      52.975 -10.737  37.313  0.00  0.00    +0.000 C 
ATOM      3  C   UNL     1      52.890 -10.103  35.923  0.00  0.00    +0.000 C 
ATOM      4  C   UNL     1      53.732  -8.880  35.605  0.00  0.00    +0.000 C 
ATOM      5  C   UNL     1      53.088  -9.732  38.542  0.00  0.00    +0.000 C 
ATOM      6  C   UNL     1      51.731 -11.448  37.647  0.00  0.00    +0.000 C 
ATOM      7  C   UNL     1      54.031  -8.191  36.847  0.00  0.00    +0.000 C 
ATOM      8  C   UNL     1      53.754  -8.518  38.277  0.00  0.00    +0.000 C 
ATOM      9  C   UNL     1      54.177 -11.716  37.370  0.00  0.00    +0.000 C 
ATOM     10  C   UNL     1      50.764 -11.648  38.786  0.00  0.00    +0.000 C 
ATOM     11  C   UNL     1      51.676 -10.047  40.559  0.00  0.00    +0.000 C 
ATOM     12  C   UNL     1      54.961  -9.232  34.773  0.00  0.00    +0.000 C 
ATOM     13  C   UNL     1      50.641 -11.126  40.095  0.00  0.00    +0.000 C 
ATOM     14  C   UNL     1      51.992 -10.267  42.063  0.00  0.00    +0.000 C 
ATOM     15  C   UNL     1      51.060  -8.632  40.329  0.00  0.00    +0.000 C 
ENDROOT
BRANCH   4  16
ATOM     16  O   UNL     1      52.977  -8.008  34.790  0.00  0.00    +0.000 OA
ATOM     17  H   UNL     1      52.729  -7.322  35.438  0.00  0.00    +0.000 HD
ENDBRANCH   4  16
BRANCH  13  18
ATOM     18  O   UNL     1      49.497 -11.413  40.830  0.00  0.00    +0.000 OA
ATOM     19  H   UNL     1      49.578 -12.243  41.333  0.00  0.00    +0.000 HD
ENDBRANCH  13  18
BRANCH   3  20
ATOM     20  C   UNL     1      52.071 -10.686  34.896  0.00  0.00    +0.000 C 
ATOM     21  C   UNL     1      51.221 -11.333  33.797  0.00  0.00    +0.000 C 
BRANCH  21  25
ATOM     22  C   UNL     1      50.047 -13.462  32.930  0.00  0.00    +0.000 A 
ATOM     23  C   UNL     1      49.175 -14.143  31.805  0.00  0.00    +0.000 A 
ATOM     24  C   UNL     1      50.538 -14.266  34.205  0.00  0.00    +0.000 C 
ATOM     25  C   UNL     1      50.454 -11.980  32.780  0.00  0.00    +0.000 A 
ATOM     26  C   UNL     1      48.637 -15.592  31.762  0.00  0.00    +0.000 C 
ATOM     27  C   UNL     1      50.015 -15.623  34.021  0.00  0.00    +0.000 C 
ATOM     28  C   UNL     1      49.171 -16.244  32.941  0.00  0.00    +0.000 C 
ATOM     29  C   UNL     1      48.944 -13.234  30.732  0.00  0.00    +0.000 A 
ATOM     30  C   UNL     1      50.095 -11.161  31.589  0.00  0.00    +0.000 A 
ATOM     31  C   UNL     1      49.918 -13.647  35.482  0.00  0.00    +0.000 C 
ATOM     32  C   UNL     1      52.080 -14.316  34.235  0.00  0.00    +0.000 C 
ATOM     33  C   UNL     1      49.415 -11.810  30.699  0.00  0.00    +0.000 A 
ATOM     34  C   UNL     1      47.116 -15.617  31.691  0.00  0.00    +0.000 C 
ATOM     35  C   UNL     1      50.332  -9.688  31.423  0.00  0.00    +0.000 C 
BRANCH  26  36
ATOM     36  O   UNL     1      49.115 -16.237  30.609  0.00  0.00    +0.000 OA
ATOM     37  H   UNL     1      50.045 -15.945  30.606  0.00  0.00    +0.000 HD
ENDBRANCH  26  36
ENDBRANCH  21  25
ENDBRANCH   3  20
TORSDOF 5
ENDMDL
MODEL 8
REMARK VINA RESULT:      -6.3     49.394     52.691
REMARK  Name = 44234954_SipholenolL.pdbqt.pdb
REMARK  5 active torsions:
REMARK  status: ('A' for Active; 'I' for Inactive)
REMARK    1  A    between atoms: C_3  and  C_20
REMARK    2  A    between atoms: C_4  and  O_16
REMARK    3  A    between atoms: C_13  and  O_18
REMARK    4  A    between atoms: C_21  and  C_25
REMARK    5  A    between atoms: C_26  and  O_36
REMARK                            x       y       z     vdW  Elec       q    Type
REMARK                         _______ _______ _______ _____ _____    ______ ____
ROOT
ATOM      1  O   UNL     1      45.291  -1.739  49.673  0.00  0.00    +0.000 OA
ATOM      2  C   UNL     1      46.711  -0.690  47.756  0.00  0.00    +0.000 C 
ATOM      3  C   UNL     1      46.606   0.018  46.403  0.00  0.00    +0.000 C 
ATOM      4  C   UNL     1      45.627   1.166  46.232  0.00  0.00    +0.000 C 
ATOM      5  C   UNL     1      45.344  -0.927  48.536  0.00  0.00    +0.000 C 
ATOM      6  C   UNL     1      47.183  -2.073  47.593  0.00  0.00    +0.000 C 
ATOM      7  C   UNL     1      44.561   1.011  47.205  0.00  0.00    +0.000 C 
ATOM      8  C   UNL     1      44.343   0.043  48.320  0.00  0.00    +0.000 C 
ATOM      9  C   UNL     1      47.674   0.094  48.685  0.00  0.00    +0.000 C 
ATOM     10  C   UNL     1      46.909  -3.472  48.086  0.00  0.00    +0.000 C 
ATOM     11  C   UNL     1      44.840  -3.136  49.550  0.00  0.00    +0.000 C 
ATOM     12  C   UNL     1      46.322   2.523  46.276  0.00  0.00    +0.000 C 
ATOM     13  C   UNL     1      45.952  -4.058  48.945  0.00  0.00    +0.000 C 
ATOM     14  C   UNL     1      44.531  -3.603  50.998  0.00  0.00    +0.000 C 
ATOM     15  C   UNL     1      43.565  -3.238  48.656  0.00  0.00    +0.000 C 
ENDROOT
BRANCH   4  16
ATOM     16  O   UNL     1      45.058   1.089  44.941  0.00  0.00    +0.000 OA
ATOM     17  H   UNL     1      45.815   1.367  44.392  0.00  0.00    +0.000 HD
ENDBRANCH   4  16
BRANCH  13  18
ATOM     18  O   UNL     1      45.892  -5.443  49.044  0.00  0.00    +0.000 OA
ATOM     19  H   UNL     1      46.765  -5.861  48.938  0.00  0.00    +0.000 HD
ENDBRANCH  13  18
BRANCH   3  20
ATOM     20  C   UNL     1      47.467  -0.348  45.311  0.00  0.00    +0.000 C 
ATOM     21  C   UNL     1      48.357  -0.758  44.133  0.00  0.00    +0.000 C 
BRANCH  21  25
ATOM     22  C   UNL     1      49.671  -2.598  42.888  0.00  0.00    +0.000 A 
ATOM     23  C   UNL     1      50.515  -3.012  41.620  0.00  0.00    +0.000 A 
ATOM     24  C   UNL     1      49.366  -3.623  44.057  0.00  0.00    +0.000 C 
ATOM     25  C   UNL     1      49.146  -1.151  43.008  0.00  0.00    +0.000 A 
ATOM     26  C   UNL     1      51.113  -4.398  41.283  0.00  0.00    +0.000 C 
ATOM     27  C   UNL     1      50.024  -4.869  43.650  0.00  0.00    +0.000 C 
ATOM     28  C   UNL     1      50.813  -5.242  42.424  0.00  0.00    +0.000 C 
ATOM     29  C   UNL     1      50.721  -1.888  40.767  0.00  0.00    +0.000 A 
ATOM     30  C   UNL     1      49.434  -0.099  41.993  0.00  0.00    +0.000 A 
ATOM     31  C   UNL     1      47.839  -3.860  44.157  0.00  0.00    +0.000 C 
ATOM     32  C   UNL     1      49.996  -3.124  45.375  0.00  0.00    +0.000 C 
ATOM     33  C   UNL     1      50.166  -0.515  41.010  0.00  0.00    +0.000 A 
ATOM     34  C   UNL     1      50.562  -4.935  39.970  0.00  0.00    +0.000 C 
ATOM     35  C   UNL     1      48.855   1.285  41.963  0.00  0.00    +0.000 C 
BRANCH  26  36
ATOM     36  O   UNL     1      52.505  -4.285  41.132  0.00  0.00    +0.000 OA
ATOM     37  H   UNL     1      52.639  -4.757  40.290  0.00  0.00    +0.000 HD
ENDBRANCH  26  36
ENDBRANCH  21  25
ENDBRANCH   3  20
TORSDOF 5
ENDMDL
MODEL 9
REMARK VINA RESULT:      -6.3     60.382     64.895
REMARK  Name = 44234954_SipholenolL.pdbqt.pdb
REMARK  5 active torsions:
REMARK  status: ('A' for Active; 'I' for Inactive)
REMARK    1  A    between atoms: C_3  and  C_20
REMARK    2  A    between atoms: C_4  and  O_16
REMARK    3  A    between atoms: C_13  and  O_18
REMARK    4  A    between atoms: C_21  and  C_25
REMARK    5  A    between atoms: C_26  and  O_36
REMARK                            x       y       z     vdW  Elec       q    Type
REMARK                         _______ _______ _______ _____ _____    ______ ____
ROOT
ATOM      1  O   UNL     1      14.338   4.147  55.850  0.00  0.00    +0.000 OA
ATOM      2  C   UNL     1      14.462   2.753  53.652  0.00  0.00    +0.000 C 
ATOM      3  C   UNL     1      15.233   1.626  52.960  0.00  0.00    +0.000 C 
ATOM      4  C   UNL     1      15.539   0.350  53.722  0.00  0.00    +0.000 C 
ATOM      5  C   UNL     1      14.823   3.020  55.179  0.00  0.00    +0.000 C 
ATOM      6  C   UNL     1      14.784   4.058  53.056  0.00  0.00    +0.000 C 
ATOM      7  C   UNL     1      15.551   0.653  55.141  0.00  0.00    +0.000 C 
ATOM      8  C   UNL     1      15.237   1.891  55.914  0.00  0.00    +0.000 C 
ATOM      9  C   UNL     1      12.937   2.484  53.550  0.00  0.00    +0.000 C 
ATOM     10  C   UNL     1      15.099   5.480  53.446  0.00  0.00    +0.000 C 
ATOM     11  C   UNL     1      15.197   5.334  55.996  0.00  0.00    +0.000 C 
ATOM     12  C   UNL     1      14.602  -0.789  53.333  0.00  0.00    +0.000 C 
ATOM     13  C   UNL     1      15.280   6.163  54.671  0.00  0.00    +0.000 C 
ATOM     14  C   UNL     1      14.523   6.204  57.092  0.00  0.00    +0.000 C 
ATOM     15  C   UNL     1      16.642   4.932  56.426  0.00  0.00    +0.000 C 
ENDROOT
BRANCH   4  16
ATOM     16  O   UNL     1      16.829  -0.098  53.358  0.00  0.00    +0.000 OA
ATOM     17  H   UNL     1      16.999   0.456  52.573  0.00  0.00    +0.000 HD
ENDBRANCH   4  16
BRANCH  13  18
ATOM     18  O   UNL     1      15.740   7.474  54.650  0.00  0.00    +0.000 OA
ATOM     19  H   UNL     1      16.049   7.746  53.768  0.00  0.00    +0.000 HD
ENDBRANCH  13  18
BRANCH   3  20
ATOM     20  C   UNL     1      15.616   1.737  51.578  0.00  0.00    +0.000 C 
ATOM     21  C   UNL     1      16.042   1.884  50.114  0.00  0.00    +0.000 C 
BRANCH  21  25
ATOM     22  C   UNL     1      15.800   1.267  47.619  0.00  0.00    +0.000 A 
ATOM     23  C   UNL     1      16.281   1.495  46.134  0.00  0.00    +0.000 A 
ATOM     24  C   UNL     1      14.652   0.233  47.975  0.00  0.00    +0.000 C 
ATOM     25  C   UNL     1      16.477   2.053  48.763  0.00  0.00    +0.000 A 
ATOM     26  C   UNL     1      15.733   0.842  44.843  0.00  0.00    +0.000 C 
ATOM     27  C   UNL     1      14.259  -0.352  46.689  0.00  0.00    +0.000 C 
ATOM     28  C   UNL     1      14.726  -0.105  45.280  0.00  0.00    +0.000 C 
ATOM     29  C   UNL     1      17.378   2.404  46.096  0.00  0.00    +0.000 A 
ATOM     30  C   UNL     1      17.605   2.998  48.537  0.00  0.00    +0.000 A 
ATOM     31  C   UNL     1      13.445   0.985  48.586  0.00  0.00    +0.000 C 
ATOM     32  C   UNL     1      15.209  -0.879  48.889  0.00  0.00    +0.000 C 
ATOM     33  C   UNL     1      17.961   3.093  47.295  0.00  0.00    +0.000 A 
ATOM     34  C   UNL     1      15.201   1.888  43.874  0.00  0.00    +0.000 C 
ATOM     35  C   UNL     1      18.228   3.898  49.564  0.00  0.00    +0.000 C 
BRANCH  26  36
ATOM     36  O   UNL     1      16.770   0.159  44.186  0.00  0.00    +0.000 OA
ATOM     37  H   UNL     1      16.839  -0.644  44.734  0.00  0.00    +0.000 HD
ENDBRANCH  26  36
ENDBRANCH  21  25
ENDBRANCH   3  20
TORSDOF 5
ENDMDL
