MODEL 1
REMARK VINA RESULT:      -6.6      0.000      0.000
REMARK  Name = 442793_6gingerol.pdbqt.pdb
REMARK  7 active torsions:
REMARK  status: ('A' for Active; 'I' for Inactive)
REMARK    1  A    between atoms: C_1  and  C_3
REMARK    2  A    between atoms: C_5  and  O_6
REMARK    3  A    between atoms: C_5  and  C_8
REMARK    4  A    between atoms: C_9  and  C_10
REMARK    5  A    between atoms: C_13  and  C_14
REMARK    6  A    between atoms: C_17  and  O_20
REMARK    7  A    between atoms: C_19  and  O_22
REMARK                            x       y       z     vdW  Elec       q    Type
REMARK                         _______ _______ _______ _____ _____    ______ ____
ROOT
ATOM      1  C   UNL     1      38.296  -0.285  12.230  0.00  0.00    +0.000 C 
ATOM      2  C   UNL     1      37.389  -0.220  13.466  0.00  0.00    +0.000 C 
ENDROOT
BRANCH   2   3
ATOM      3  C   UNL     1      36.547  -0.161  14.613  0.00  0.00    +0.000 A 
ATOM      4  C   UNL     1      35.962   1.049  14.982  0.00  0.00    +0.000 A 
ATOM      5  C   UNL     1      36.310  -1.311  15.360  0.00  0.00    +0.000 A 
ATOM      6  C   UNL     1      35.134   1.123  16.106  0.00  0.00    +0.000 A 
ATOM      7  C   UNL     1      35.486  -1.252  16.481  0.00  0.00    +0.000 A 
ATOM      8  C   UNL     1      34.904  -0.039  16.848  0.00  0.00    +0.000 A 
BRANCH   6   9
ATOM      9  O   UNL     1      34.519   2.272  16.541  0.00  0.00    +0.000 OA
ATOM     10  C   UNL     1      35.378   3.277  17.010  0.00  0.00    +0.000 C 
ENDBRANCH   6   9
BRANCH   8  11
ATOM     11  O   UNL     1      34.096   0.012  17.950  0.00  0.00    +0.000 OA
ATOM     12  H   UNL     1      34.006  -0.889  18.313  0.00  0.00    +0.000 HD
ENDBRANCH   8  11
ENDBRANCH   2   3
BRANCH   1  14
ATOM     13  O   UNL     1      38.713  -0.037   9.969  0.00  0.00    +0.000 OA
ATOM     14  C   UNL     1      39.146  -0.350  11.068  0.00  0.00    +0.000 C 
ATOM     15  C   UNL     1      40.506  -0.788  11.212  0.00  0.00    +0.000 C 
ATOM     16  C   UNL     1      41.844  -1.219  11.347  0.00  0.00    +0.000 C 
BRANCH  16  17
ATOM     17  O   UNL     1      42.354  -1.306  12.619  0.00  0.00    +0.000 OA
ATOM     18  H   UNL     1      41.678  -1.123  13.294  0.00  0.00    +0.000 HD
ENDBRANCH  16  17
BRANCH  16  19
ATOM     19  C   UNL     1      42.672  -1.564  10.251  0.00  0.00    +0.000 C 
ATOM     20  C   UNL     1      43.560  -1.944   9.061  0.00  0.00    +0.000 C 
BRANCH  20  21
ATOM     21  C   UNL     1      44.444  -2.328   7.871  0.00  0.00    +0.000 C 
ATOM     22  C   UNL     1      45.329  -2.710   6.680  0.00  0.00    +0.000 C 
ATOM     23  C   UNL     1      46.215  -3.085   5.488  0.00  0.00    +0.000 C 
ENDBRANCH  20  21
ENDBRANCH  16  19
ENDBRANCH   1  14
TORSDOF 7
ENDMDL
MODEL 2
REMARK VINA RESULT:      -6.1      3.459      4.052
REMARK  Name = 442793_6gingerol.pdbqt.pdb
REMARK  7 active torsions:
REMARK  status: ('A' for Active; 'I' for Inactive)
REMARK    1  A    between atoms: C_1  and  C_3
REMARK    2  A    between atoms: C_5  and  O_6
REMARK    3  A    between atoms: C_5  and  C_8
REMARK    4  A    between atoms: C_9  and  C_10
REMARK    5  A    between atoms: C_13  and  C_14
REMARK    6  A    between atoms: C_17  and  O_20
REMARK    7  A    between atoms: C_19  and  O_22
REMARK                            x       y       z     vdW  Elec       q    Type
REMARK                         _______ _______ _______ _____ _____    ______ ____
ROOT
ATOM      1  C   UNL     1      37.088   1.916  11.518  0.00  0.00    +0.000 C 
ATOM      2  C   UNL     1      36.265   1.418  12.713  0.00  0.00    +0.000 C 
ENDROOT
BRANCH   2   3
ATOM      3  C   UNL     1      35.498   0.957  13.821  0.00  0.00    +0.000 A 
ATOM      4  C   UNL     1      35.893  -0.190  14.507  0.00  0.00    +0.000 A 
ATOM      5  C   UNL     1      34.358   1.652  14.214  0.00  0.00    +0.000 A 
ATOM      6  C   UNL     1      35.150  -0.656  15.596  0.00  0.00    +0.000 A 
ATOM      7  C   UNL     1      33.610   1.200  15.297  0.00  0.00    +0.000 A 
ATOM      8  C   UNL     1      34.007   0.052  15.981  0.00  0.00    +0.000 A 
BRANCH   6   9
ATOM      9  O   UNL     1      35.466  -1.775  16.327  0.00  0.00    +0.000 OA
ATOM     10  C   UNL     1      36.562  -1.644  17.193  0.00  0.00    +0.000 C 
ENDBRANCH   6   9
BRANCH   8  11
ATOM     11  O   UNL     1      33.268  -0.387  17.044  0.00  0.00    +0.000 OA
ATOM     12  H   UNL     1      33.443   0.193  17.808  0.00  0.00    +0.000 HD
ENDBRANCH   8  11
ENDBRANCH   2   3
BRANCH   1  14
ATOM     13  O   UNL     1      37.890   3.574  10.119  0.00  0.00    +0.000 OA
ATOM     14  C   UNL     1      37.858   2.383  10.393  0.00  0.00    +0.000 C 
ATOM     15  C   UNL     1      38.588   1.438   9.595  0.00  0.00    +0.000 C 
ATOM     16  C   UNL     1      39.305   0.513   8.805  0.00  0.00    +0.000 C 
BRANCH  16  17
ATOM     17  O   UNL     1      39.452  -0.760   9.300  0.00  0.00    +0.000 OA
ATOM     18  H   UNL     1      40.305  -0.876   9.753  0.00  0.00    +0.000 HD
ENDBRANCH  16  17
BRANCH  16  19
ATOM     19  C   UNL     1      39.871   0.829   7.546  0.00  0.00    +0.000 C 
ATOM     20  C   UNL     1      40.475   1.177   6.181  0.00  0.00    +0.000 C 
BRANCH  20  21
ATOM     21  C   UNL     1      41.074   1.528   4.816  0.00  0.00    +0.000 C 
ATOM     22  C   UNL     1      41.675   1.879   3.451  0.00  0.00    +0.000 C 
ATOM     23  C   UNL     1      42.282   2.228   2.088  0.00  0.00    +0.000 C 
ENDBRANCH  20  21
ENDBRANCH  16  19
ENDBRANCH   1  14
TORSDOF 7
ENDMDL
MODEL 3
REMARK VINA RESULT:      -5.8     13.658     17.609
REMARK  Name = 442793_6gingerol.pdbqt.pdb
REMARK  7 active torsions:
REMARK  status: ('A' for Active; 'I' for Inactive)
REMARK    1  A    between atoms: C_1  and  C_3
REMARK    2  A    between atoms: C_5  and  O_6
REMARK    3  A    between atoms: C_5  and  C_8
REMARK    4  A    between atoms: C_9  and  C_10
REMARK    5  A    between atoms: C_13  and  C_14
REMARK    6  A    between atoms: C_17  and  O_20
REMARK    7  A    between atoms: C_19  and  O_22
REMARK                            x       y       z     vdW  Elec       q    Type
REMARK                         _______ _______ _______ _____ _____    ______ ____
ROOT
ATOM      1  C   UNL     1      27.196  -0.093   5.150  0.00  0.00    +0.000 C 
ATOM      2  C   UNL     1      28.595  -0.202   4.531  0.00  0.00    +0.000 C 
ENDROOT
BRANCH   2   3
ATOM      3  C   UNL     1      29.893  -0.305   3.954  0.00  0.00    +0.000 A 
ATOM      4  C   UNL     1      30.425  -1.560   3.663  0.00  0.00    +0.000 A 
ATOM      5  C   UNL     1      30.626   0.847   3.684  0.00  0.00    +0.000 A 
ATOM      6  C   UNL     1      31.698  -1.678   3.098  0.00  0.00    +0.000 A 
ATOM      7  C   UNL     1      31.895   0.744   3.121  0.00  0.00    +0.000 A 
ATOM      8  C   UNL     1      32.424  -0.513   2.832  0.00  0.00    +0.000 A 
BRANCH   6   9
ATOM      9  O   UNL     1      32.297  -2.872   2.782  0.00  0.00    +0.000 OA
ATOM     10  C   UNL     1      31.566  -3.708   1.923  0.00  0.00    +0.000 C 
ENDBRANCH   6   9
BRANCH   8  11
ATOM     11  O   UNL     1      33.671  -0.607   2.279  0.00  0.00    +0.000 OA
ATOM     12  H   UNL     1      33.772   0.100   1.614  0.00  0.00    +0.000 HD
ENDBRANCH   8  11
ENDBRANCH   2   3
BRANCH   1  14
ATOM     13  O   UNL     1      25.473   1.076   6.156  0.00  0.00    +0.000 OA
ATOM     14  C   UNL     1      25.881   0.006   5.732  0.00  0.00    +0.000 C 
ATOM     15  C   UNL     1      25.053  -1.166   5.810  0.00  0.00    +0.000 C 
ATOM     16  C   UNL     1      24.236  -2.314   5.892  0.00  0.00    +0.000 C 
BRANCH  16  17
ATOM     17  O   UNL     1      24.626  -3.419   5.175  0.00  0.00    +0.000 OA
ATOM     18  H   UNL     1      25.443  -3.811   5.529  0.00  0.00    +0.000 HD
ENDBRANCH  16  17
BRANCH  16  19
ATOM     19  C   UNL     1      23.053  -2.383   6.669  0.00  0.00    +0.000 C 
ATOM     20  C   UNL     1      21.770  -2.449   7.503  0.00  0.00    +0.000 C 
BRANCH  20  21
ATOM     21  C   UNL     1      20.485  -2.509   8.335  0.00  0.00    +0.000 C 
ATOM     22  C   UNL     1      19.201  -2.572   9.167  0.00  0.00    +0.000 C 
ATOM     23  C   UNL     1      17.919  -2.640  10.004  0.00  0.00    +0.000 C 
ENDBRANCH  20  21
ENDBRANCH  16  19
ENDBRANCH   1  14
TORSDOF 7
ENDMDL
MODEL 4
REMARK VINA RESULT:      -5.8     14.301     17.924
REMARK  Name = 442793_6gingerol.pdbqt.pdb
REMARK  7 active torsions:
REMARK  status: ('A' for Active; 'I' for Inactive)
REMARK    1  A    between atoms: C_1  and  C_3
REMARK    2  A    between atoms: C_5  and  O_6
REMARK    3  A    between atoms: C_5  and  C_8
REMARK    4  A    between atoms: C_9  and  C_10
REMARK    5  A    between atoms: C_13  and  C_14
REMARK    6  A    between atoms: C_17  and  O_20
REMARK    7  A    between atoms: C_19  and  O_22
REMARK                            x       y       z     vdW  Elec       q    Type
REMARK                         _______ _______ _______ _____ _____    ______ ____
ROOT
ATOM      1  C   UNL     1      26.343  -0.115   5.218  0.00  0.00    +0.000 C 
ATOM      2  C   UNL     1      27.815  -0.181   4.791  0.00  0.00    +0.000 C 
ENDROOT
BRANCH   2   3
ATOM      3  C   UNL     1      29.182  -0.240   4.397  0.00  0.00    +0.000 A 
ATOM      4  C   UNL     1      29.902   0.939   4.211  0.00  0.00    +0.000 A 
ATOM      5  C   UNL     1      29.795  -1.474   4.199  0.00  0.00    +0.000 A 
ATOM      6  C   UNL     1      31.244   0.897   3.823  0.00  0.00    +0.000 A 
ATOM      7  C   UNL     1      31.132  -1.531   3.813  0.00  0.00    +0.000 A 
ATOM      8  C   UNL     1      31.848  -0.348   3.627  0.00  0.00    +0.000 A 
BRANCH   6   9
ATOM      9  O   UNL     1      32.025   2.008   3.617  0.00  0.00    +0.000 OA
ATOM     10  C   UNL     1      31.519   2.944   2.702  0.00  0.00    +0.000 C 
ENDBRANCH   6   9
BRANCH   8  11
ATOM     11  O   UNL     1      33.160  -0.411   3.248  0.00  0.00    +0.000 OA
ATOM     12  H   UNL     1      33.221  -0.914   2.415  0.00  0.00    +0.000 HD
ENDBRANCH   8  11
ENDBRANCH   2   3
BRANCH   1  14
ATOM     13  O   UNL     1      24.474   1.007   5.989  0.00  0.00    +0.000 OA
ATOM     14  C   UNL     1      24.961  -0.051   5.620  0.00  0.00    +0.000 C 
ATOM     15  C   UNL     1      24.159  -1.242   5.586  0.00  0.00    +0.000 C 
ATOM     16  C   UNL     1      23.367  -2.411   5.557  0.00  0.00    +0.000 C 
BRANCH  16  17
ATOM     17  O   UNL     1      23.875  -3.502   4.895  0.00  0.00    +0.000 OA
ATOM     18  H   UNL     1      23.768  -4.320   5.411  0.00  0.00    +0.000 HD
ENDBRANCH  16  17
BRANCH  16  19
ATOM     19  C   UNL     1      22.094  -2.512   6.170  0.00  0.00    +0.000 C 
ATOM     20  C   UNL     1      20.719  -2.630   6.836  0.00  0.00    +0.000 C 
BRANCH  20  21
ATOM     21  C   UNL     1      19.345  -2.755   7.501  0.00  0.00    +0.000 C 
ATOM     22  C   UNL     1      17.971  -2.882   8.168  0.00  0.00    +0.000 C 
ATOM     23  C   UNL     1      16.600  -3.015   8.837  0.00  0.00    +0.000 C 
ENDBRANCH  20  21
ENDBRANCH  16  19
ENDBRANCH   1  14
TORSDOF 7
ENDMDL
MODEL 5
REMARK VINA RESULT:      -5.8     14.802     18.531
REMARK  Name = 442793_6gingerol.pdbqt.pdb
REMARK  7 active torsions:
REMARK  status: ('A' for Active; 'I' for Inactive)
REMARK    1  A    between atoms: C_1  and  C_3
REMARK    2  A    between atoms: C_5  and  O_6
REMARK    3  A    between atoms: C_5  and  C_8
REMARK    4  A    between atoms: C_9  and  C_10
REMARK    5  A    between atoms: C_13  and  C_14
REMARK    6  A    between atoms: C_17  and  O_20
REMARK    7  A    between atoms: C_19  and  O_22
REMARK                            x       y       z     vdW  Elec       q    Type
REMARK                         _______ _______ _______ _____ _____    ______ ____
ROOT
ATOM      1  C   UNL     1      25.458  -1.736   5.061  0.00  0.00    +0.000 C 
ATOM      2  C   UNL     1      26.815  -1.058   4.832  0.00  0.00    +0.000 C 
ENDROOT
BRANCH   2   3
ATOM      3  C   UNL     1      28.075  -0.429   4.618  0.00  0.00    +0.000 A 
ATOM      4  C   UNL     1      29.206  -1.207   4.378  0.00  0.00    +0.000 A 
ATOM      5  C   UNL     1      28.172   0.959   4.648  0.00  0.00    +0.000 A 
ATOM      6  C   UNL     1      30.450  -0.605   4.166  0.00  0.00    +0.000 A 
ATOM      7  C   UNL     1      29.405   1.572   4.439  0.00  0.00    +0.000 A 
ATOM      8  C   UNL     1      30.534   0.790   4.200  0.00  0.00    +0.000 A 
BRANCH   6   9
ATOM      9  O   UNL     1      31.613  -1.294   3.925  0.00  0.00    +0.000 OA
ATOM     10  C   UNL     1      31.581  -2.172   2.831  0.00  0.00    +0.000 C 
ENDBRANCH   6   9
BRANCH   8  11
ATOM     11  O   UNL     1      31.741   1.399   3.995  0.00  0.00    +0.000 OA
ATOM     12  H   UNL     1      31.879   2.064   4.695  0.00  0.00    +0.000 HD
ENDBRANCH   8  11
ENDBRANCH   2   3
BRANCH   1  14
ATOM     13  O   UNL     1      23.798  -3.250   4.514  0.00  0.00    +0.000 OA
ATOM     14  C   UNL     1      24.183  -2.372   5.272  0.00  0.00    +0.000 C 
ATOM     15  C   UNL     1      23.365  -1.965   6.380  0.00  0.00    +0.000 C 
ATOM     16  C   UNL     1      22.556  -1.567   7.467  0.00  0.00    +0.000 C 
BRANCH  16  17
ATOM     17  O   UNL     1      23.135  -0.776   8.430  0.00  0.00    +0.000 OA
ATOM     18  H   UNL     1      22.825   0.144   8.376  0.00  0.00    +0.000 HD
ENDBRANCH  16  17
BRANCH  16  19
ATOM     19  C   UNL     1      21.196  -1.936   7.610  0.00  0.00    +0.000 C 
ATOM     20  C   UNL     1      19.726  -2.343   7.758  0.00  0.00    +0.000 C 
BRANCH  20  21
ATOM     21  C   UNL     1      18.258  -2.754   7.901  0.00  0.00    +0.000 C 
ATOM     22  C   UNL     1      16.788  -3.163   8.045  0.00  0.00    +0.000 C 
ATOM     23  C   UNL     1      15.317  -3.566   8.188  0.00  0.00    +0.000 C 
ENDBRANCH  20  21
ENDBRANCH  16  19
ENDBRANCH   1  14
TORSDOF 7
ENDMDL
MODEL 6
REMARK VINA RESULT:      -5.6      2.708      3.109
REMARK  Name = 442793_6gingerol.pdbqt.pdb
REMARK  7 active torsions:
REMARK  status: ('A' for Active; 'I' for Inactive)
REMARK    1  A    between atoms: C_1  and  C_3
REMARK    2  A    between atoms: C_5  and  O_6
REMARK    3  A    between atoms: C_5  and  C_8
REMARK    4  A    between atoms: C_9  and  C_10
REMARK    5  A    between atoms: C_13  and  C_14
REMARK    6  A    between atoms: C_17  and  O_20
REMARK    7  A    between atoms: C_19  and  O_22
REMARK                            x       y       z     vdW  Elec       q    Type
REMARK                         _______ _______ _______ _____ _____    ______ ____
ROOT
ATOM      1  C   UNL     1      37.211   0.896  11.093  0.00  0.00    +0.000 C 
ATOM      2  C   UNL     1      36.627   1.252  12.466  0.00  0.00    +0.000 C 
ENDROOT
BRANCH   2   3
ATOM      3  C   UNL     1      36.084   1.579  13.741  0.00  0.00    +0.000 A 
ATOM      4  C   UNL     1      34.965   0.896  14.214  0.00  0.00    +0.000 A 
ATOM      5  C   UNL     1      36.671   2.580  14.509  0.00  0.00    +0.000 A 
ATOM      6  C   UNL     1      34.420   1.206  15.463  0.00  0.00    +0.000 A 
ATOM      7  C   UNL     1      36.139   2.899  15.756  0.00  0.00    +0.000 A 
ATOM      8  C   UNL     1      35.019   2.214  16.225  0.00  0.00    +0.000 A 
BRANCH   6   9
ATOM      9  O   UNL     1      33.321   0.585  16.005  0.00  0.00    +0.000 OA
ATOM     10  C   UNL     1      33.525  -0.733  16.443  0.00  0.00    +0.000 C 
ENDBRANCH   6   9
BRANCH   8  11
ATOM     11  O   UNL     1      34.501   2.532  17.450  0.00  0.00    +0.000 OA
ATOM     12  H   UNL     1      34.212   3.464  17.434  0.00  0.00    +0.000 HD
ENDBRANCH   8  11
ENDBRANCH   2   3
BRANCH   1  14
ATOM     13  O   UNL     1      37.100  -0.089   9.003  0.00  0.00    +0.000 OA
ATOM     14  C   UNL     1      37.759   0.559   9.803  0.00  0.00    +0.000 C 
ATOM     15  C   UNL     1      39.087   0.989   9.465  0.00  0.00    +0.000 C 
ATOM     16  C   UNL     1      40.393   1.407   9.129  0.00  0.00    +0.000 C 
BRANCH  16  17
ATOM     17  O   UNL     1      40.986   2.343   9.942  0.00  0.00    +0.000 OA
ATOM     18  H   UNL     1      40.928   3.238   9.565  0.00  0.00    +0.000 HD
ENDBRANCH  16  17
BRANCH  16  19
ATOM     19  C   UNL     1      41.112   0.914   8.013  0.00  0.00    +0.000 C 
ATOM     20  C   UNL     1      41.882   0.374   6.803  0.00  0.00    +0.000 C 
BRANCH  20  21
ATOM     21  C   UNL     1      42.649  -0.171   5.594  0.00  0.00    +0.000 C 
ATOM     22  C   UNL     1      43.417  -0.715   4.386  0.00  0.00    +0.000 C 
ATOM     23  C   UNL     1      44.192  -1.257   3.180  0.00  0.00    +0.000 C 
ENDBRANCH  20  21
ENDBRANCH  16  19
ENDBRANCH   1  14
TORSDOF 7
ENDMDL
MODEL 7
REMARK VINA RESULT:      -5.6     22.674     24.213
REMARK  Name = 442793_6gingerol.pdbqt.pdb
REMARK  7 active torsions:
REMARK  status: ('A' for Active; 'I' for Inactive)
REMARK    1  A    between atoms: C_1  and  C_3
REMARK    2  A    between atoms: C_5  and  O_6
REMARK    3  A    between atoms: C_5  and  C_8
REMARK    4  A    between atoms: C_9  and  C_10
REMARK    5  A    between atoms: C_13  and  C_14
REMARK    6  A    between atoms: C_17  and  O_20
REMARK    7  A    between atoms: C_19  and  O_22
REMARK                            x       y       z     vdW  Elec       q    Type
REMARK                         _______ _______ _______ _____ _____    ______ ____
ROOT
ATOM      1  C   UNL     1      19.946  10.140  19.065  0.00  0.00    +0.000 C 
ATOM      2  C   UNL     1      19.458   8.800  19.630  0.00  0.00    +0.000 C 
ENDROOT
BRANCH   2   3
ATOM      3  C   UNL     1      19.006   7.555  20.154  0.00  0.00    +0.000 A 
ATOM      4  C   UNL     1      19.122   6.398  19.387  0.00  0.00    +0.000 A 
ATOM      5  C   UNL     1      18.451   7.499  21.429  0.00  0.00    +0.000 A 
ATOM      6  C   UNL     1      18.683   5.168  19.886  0.00  0.00    +0.000 A 
ATOM      7  C   UNL     1      18.010   6.281  21.939  0.00  0.00    +0.000 A 
ATOM      8  C   UNL     1      18.127   5.125  21.168  0.00  0.00    +0.000 A 
BRANCH   6   9
ATOM      9  O   UNL     1      18.758   3.981  19.199  0.00  0.00    +0.000 OA
ATOM     10  C   UNL     1      17.732   3.754  18.269  0.00  0.00    +0.000 C 
ENDBRANCH   6   9
BRANCH   8  11
ATOM     11  O   UNL     1      17.692   3.932  21.675  0.00  0.00    +0.000 OA
ATOM     12  H   UNL     1      17.926   3.890  22.621  0.00  0.00    +0.000 HD
ENDBRANCH   8  11
ENDBRANCH   2   3
BRANCH   1  14
ATOM     13  O   UNL     1      20.798  11.472  17.377  0.00  0.00    +0.000 OA
ATOM     14  C   UNL     1      20.407  11.397  18.532  0.00  0.00    +0.000 C 
ATOM     15  C   UNL     1      20.405  12.563  19.371  0.00  0.00    +0.000 C 
ATOM     16  C   UNL     1      20.407  13.712  20.192  0.00  0.00    +0.000 C 
BRANCH  16  17
ATOM     17  O   UNL     1      19.722  13.641  21.381  0.00  0.00    +0.000 OA
ATOM     18  H   UNL     1      20.074  12.942  21.960  0.00  0.00    +0.000 HD
ENDBRANCH  16  17
BRANCH  16  19
ATOM     19  C   UNL     1      21.074  14.916  19.856  0.00  0.00    +0.000 C 
ATOM     20  C   UNL     1      21.787  16.223  19.495  0.00  0.00    +0.000 C 
BRANCH  20  21
ATOM     21  C   UNL     1      22.494  17.533  19.135  0.00  0.00    +0.000 C 
ATOM     22  C   UNL     1      23.203  18.843  18.773  0.00  0.00    +0.000 C 
ATOM     23  C   UNL     1      23.911  20.150  18.404  0.00  0.00    +0.000 C 
ENDBRANCH  20  21
ENDBRANCH  16  19
ENDBRANCH   1  14
TORSDOF 7
ENDMDL
MODEL 8
REMARK VINA RESULT:      -5.5     23.913     26.688
REMARK  Name = 442793_6gingerol.pdbqt.pdb
REMARK  7 active torsions:
REMARK  status: ('A' for Active; 'I' for Inactive)
REMARK    1  A    between atoms: C_1  and  C_3
REMARK    2  A    between atoms: C_5  and  O_6
REMARK    3  A    between atoms: C_5  and  C_8
REMARK    4  A    between atoms: C_9  and  C_10
REMARK    5  A    between atoms: C_13  and  C_14
REMARK    6  A    between atoms: C_17  and  O_20
REMARK    7  A    between atoms: C_19  and  O_22
REMARK                            x       y       z     vdW  Elec       q    Type
REMARK                         _______ _______ _______ _____ _____    ______ ____
ROOT
ATOM      1  C   UNL     1      49.319   1.783  34.423  0.00  0.00    +0.000 C 
ATOM      2  C   UNL     1      49.299   2.929  33.404  0.00  0.00    +0.000 C 
ENDROOT
BRANCH   2   3
ATOM      3  C   UNL     1      49.278   3.992  32.456  0.00  0.00    +0.000 A 
ATOM      4  C   UNL     1      49.999   5.158  32.706  0.00  0.00    +0.000 A 
ATOM      5  C   UNL     1      48.538   3.863  31.285  0.00  0.00    +0.000 A 
ATOM      6  C   UNL     1      49.988   6.211  31.786  0.00  0.00    +0.000 A 
ATOM      7  C   UNL     1      48.518   4.903  30.359  0.00  0.00    +0.000 A 
ATOM      8  C   UNL     1      49.240   6.069  30.614  0.00  0.00    +0.000 A 
BRANCH   6   9
ATOM      9  O   UNL     1      50.668   7.393  31.953  0.00  0.00    +0.000 OA
ATOM     10  C   UNL     1      51.325   7.545  33.183  0.00  0.00    +0.000 C 
ENDBRANCH   6   9
BRANCH   8  11
ATOM     11  O   UNL     1      49.216   7.087  29.701  0.00  0.00    +0.000 OA
ATOM     12  H   UNL     1      49.604   7.883  30.110  0.00  0.00    +0.000 HD
ENDBRANCH   8  11
ENDBRANCH   2   3
BRANCH   1  14
ATOM     13  O   UNL     1      48.963  -0.412  35.057  0.00  0.00    +0.000 OA
ATOM     14  C   UNL     1      49.335   0.706  35.380  0.00  0.00    +0.000 C 
ATOM     15  C   UNL     1      49.791   0.957  36.719  0.00  0.00    +0.000 C 
ATOM     16  C   UNL     1      50.235   1.198  38.037  0.00  0.00    +0.000 C 
BRANCH  16  17
ATOM     17  O   UNL     1      50.883   2.386  38.278  0.00  0.00    +0.000 OA
ATOM     18  H   UNL     1      51.692   2.471  37.745  0.00  0.00    +0.000 HD
ENDBRANCH  16  17
BRANCH  16  19
ATOM     19  C   UNL     1      50.047   0.291  39.108  0.00  0.00    +0.000 C 
ATOM     20  C   UNL     1      49.839  -0.699  40.260  0.00  0.00    +0.000 C 
BRANCH  20  21
ATOM     21  C   UNL     1      49.628  -1.691  41.407  0.00  0.00    +0.000 C 
ATOM     22  C   UNL     1      49.415  -2.684  42.555  0.00  0.00    +0.000 C 
ATOM     23  C   UNL     1      49.197  -3.680  43.698  0.00  0.00    +0.000 C 
ENDBRANCH  20  21
ENDBRANCH  16  19
ENDBRANCH   1  14
TORSDOF 7
ENDMDL
MODEL 9
REMARK VINA RESULT:      -5.5     13.013     17.140
REMARK  Name = 442793_6gingerol.pdbqt.pdb
REMARK  7 active torsions:
REMARK  status: ('A' for Active; 'I' for Inactive)
REMARK    1  A    between atoms: C_1  and  C_3
REMARK    2  A    between atoms: C_5  and  O_6
REMARK    3  A    between atoms: C_5  and  C_8
REMARK    4  A    between atoms: C_9  and  C_10
REMARK    5  A    between atoms: C_13  and  C_14
REMARK    6  A    between atoms: C_17  and  O_20
REMARK    7  A    between atoms: C_19  and  O_22
REMARK                            x       y       z     vdW  Elec       q    Type
REMARK                         _______ _______ _______ _____ _____    ______ ____
ROOT
ATOM      1  C   UNL     1      28.280   0.091   4.727  0.00  0.00    +0.000 C 
ATOM      2  C   UNL     1      29.561  -0.327   3.995  0.00  0.00    +0.000 C 
ENDROOT
BRANCH   2   3
ATOM      3  C   UNL     1      30.752  -0.715   3.318  0.00  0.00    +0.000 A 
ATOM      4  C   UNL     1      31.546   0.251   2.703  0.00  0.00    +0.000 A 
ATOM      5  C   UNL     1      31.118  -2.057   3.272  0.00  0.00    +0.000 A 
ATOM      6  C   UNL     1      32.717  -0.115   2.033  0.00  0.00    +0.000 A 
ATOM      7  C   UNL     1      32.283  -2.436   2.608  0.00  0.00    +0.000 A 
ATOM      8  C   UNL     1      33.074  -1.466   1.994  0.00  0.00    +0.000 A 
BRANCH   6   9
ATOM      9  O   UNL     1      33.556   0.770   1.401  0.00  0.00    +0.000 OA
ATOM     10  C   UNL     1      33.185   2.121   1.482  0.00  0.00    +0.000 C 
ENDBRANCH   6   9
BRANCH   8  11
ATOM     11  O   UNL     1      34.217  -1.844   1.344  0.00  0.00    +0.000 OA
ATOM     12  H   UNL     1      34.361  -2.797   1.496  0.00  0.00    +0.000 HD
ENDBRANCH   8  11
ENDBRANCH   2   3
BRANCH   1  14
ATOM     13  O   UNL     1      26.936   1.633   5.806  0.00  0.00    +0.000 OA
ATOM     14  C   UNL     1      27.077   0.483   5.418  0.00  0.00    +0.000 C 
ATOM     15  C   UNL     1      26.046  -0.489   5.650  0.00  0.00    +0.000 C 
ATOM     16  C   UNL     1      25.030  -1.442   5.882  0.00  0.00    +0.000 C 
BRANCH  16  17
ATOM     17  O   UNL     1      25.116  -2.635   5.206  0.00  0.00    +0.000 OA
ATOM     18  H   UNL     1      24.287  -3.141   5.259  0.00  0.00    +0.000 HD
ENDBRANCH  16  17
BRANCH  16  19
ATOM     19  C   UNL     1      23.943  -1.231   6.765  0.00  0.00    +0.000 C 
ATOM     20  C   UNL     1      22.769  -0.993   7.720  0.00  0.00    +0.000 C 
BRANCH  20  21
ATOM     21  C   UNL     1      21.596  -0.749   8.675  0.00  0.00    +0.000 C 
ATOM     22  C   UNL     1      20.425  -0.504   9.632  0.00  0.00    +0.000 C 
ATOM     23  C   UNL     1      19.258  -0.259  10.594  0.00  0.00    +0.000 C 
ENDBRANCH  20  21
ENDBRANCH  16  19
ENDBRANCH   1  14
TORSDOF 7
ENDMDL
