MODEL 1
REMARK VINA RESULT:      -7.4      0.000      0.000
REMARK  Name = 44423609_SipholenoneA.pdbqt.pdb
REMARK  4 active torsions:
REMARK  status: ('A' for Active; 'I' for Inactive)
REMARK    1  A    between atoms: C_3  and  C_19
REMARK    2  A    between atoms: C_5  and  O_17
REMARK    3  A    between atoms: C_20  and  C_24
REMARK    4  A    between atoms: C_25  and  O_35
REMARK                            x       y       z     vdW  Elec       q    Type
REMARK                         _______ _______ _______ _____ _____    ______ ____
ROOT
ATOM      1  O   UNL     1      50.948  -2.993  36.243  0.00  0.00    +0.000 OA
ATOM      2  O   UNL     1      48.478  -5.743  36.056  0.00  0.00    +0.000 OA
ATOM      3  C   UNL     1      50.327  -1.237  39.728  0.00  0.00    +0.000 C 
ATOM      4  C   UNL     1      50.737  -2.340  38.753  0.00  0.00    +0.000 C 
ATOM      5  C   UNL     1      50.636   0.216  39.411  0.00  0.00    +0.000 C 
ATOM      6  C   UNL     1      50.765  -1.995  37.206  0.00  0.00    +0.000 C 
ATOM      7  C   UNL     1      50.967   0.330  38.003  0.00  0.00    +0.000 C 
ATOM      8  C   UNL     1      51.043  -0.652  36.883  0.00  0.00    +0.000 C 
ATOM      9  C   UNL     1      49.761  -3.442  38.775  0.00  0.00    +0.000 C 
ATOM     10  C   UNL     1      52.141  -2.882  39.144  0.00  0.00    +0.000 C 
ATOM     11  C   UNL     1      49.459   1.122  39.787  0.00  0.00    +0.000 C 
ATOM     12  C   UNL     1      49.098  -4.434  37.843  0.00  0.00    +0.000 C 
ATOM     13  C   UNL     1      49.785  -3.584  35.570  0.00  0.00    +0.000 C 
ATOM     14  C   UNL     1      49.060  -4.733  36.431  0.00  0.00    +0.000 C 
ATOM     15  C   UNL     1      50.356  -4.187  34.245  0.00  0.00    +0.000 C 
ATOM     16  C   UNL     1      48.733  -2.469  35.211  0.00  0.00    +0.000 C 
ENDROOT
BRANCH   5  17
ATOM     17  O   UNL     1      51.721   0.650  40.191  0.00  0.00    +0.000 OA
ATOM     18  H   UNL     1      52.380  -0.041  39.999  0.00  0.00    +0.000 HD
ENDBRANCH   5  17
BRANCH   3  19
ATOM     19  C   UNL     1      49.886  -1.597  41.051  0.00  0.00    +0.000 C 
ATOM     20  C   UNL     1      49.406  -1.984  42.452  0.00  0.00    +0.000 C 
BRANCH  20  24
ATOM     21  C   UNL     1      47.084  -1.054  45.082  0.00  0.00    +0.000 C 
ATOM     22  C   UNL     1      48.596  -1.278  44.834  0.00  0.00    +0.000 C 
ATOM     23  C   UNL     1      46.125  -2.071  45.647  0.00  0.00    +0.000 C 
ATOM     24  C   UNL     1      48.948  -2.341  43.765  0.00  0.00    +0.000 C 
ATOM     25  C   UNL     1      44.714  -1.500  45.801  0.00  0.00    +0.000 C 
ATOM     26  C   UNL     1      46.338   0.145  44.894  0.00  0.00    +0.000 C 
ATOM     27  C   UNL     1      44.930  -0.135  45.338  0.00  0.00    +0.000 C 
ATOM     28  C   UNL     1      46.491  -3.416  45.433  0.00  0.00    +0.000 C 
ATOM     29  C   UNL     1      48.726  -3.760  44.051  0.00  0.00    +0.000 C 
ATOM     30  C   UNL     1      49.226   0.103  44.404  0.00  0.00    +0.000 C 
ATOM     31  C   UNL     1      49.272  -1.653  46.196  0.00  0.00    +0.000 C 
ATOM     32  C   UNL     1      47.660  -4.050  44.727  0.00  0.00    +0.000 C 
ATOM     33  C   UNL     1      44.189  -1.651  47.218  0.00  0.00    +0.000 C 
ATOM     34  C   UNL     1      49.371  -4.883  43.281  0.00  0.00    +0.000 C 
BRANCH  25  35
ATOM     35  O   UNL     1      43.816  -2.171  44.952  0.00  0.00    +0.000 OA
ATOM     36  H   UNL     1      43.013  -1.637  45.079  0.00  0.00    +0.000 HD
ENDBRANCH  25  35
ENDBRANCH  20  24
ENDBRANCH   3  19
TORSDOF 4
ENDMDL
MODEL 2
REMARK VINA RESULT:      -7.2     26.208     30.768
REMARK  Name = 44423609_SipholenoneA.pdbqt.pdb
REMARK  4 active torsions:
REMARK  status: ('A' for Active; 'I' for Inactive)
REMARK    1  A    between atoms: C_3  and  C_19
REMARK    2  A    between atoms: C_5  and  O_17
REMARK    3  A    between atoms: C_20  and  C_24
REMARK    4  A    between atoms: C_25  and  O_35
REMARK                            x       y       z     vdW  Elec       q    Type
REMARK                         _______ _______ _______ _____ _____    ______ ____
ROOT
ATOM      1  O   UNL     1      38.973   1.470   9.577  0.00  0.00    +0.000 OA
ATOM      2  O   UNL     1      37.747  -2.018   9.430  0.00  0.00    +0.000 OA
ATOM      3  C   UNL     1      42.614   1.258  11.097  0.00  0.00    +0.000 C 
ATOM      4  C   UNL     1      41.494   1.064  10.076  0.00  0.00    +0.000 C 
ATOM      5  C   UNL     1      42.697   2.543  11.904  0.00  0.00    +0.000 C 
ATOM      6  C   UNL     1      40.095   1.752  10.364  0.00  0.00    +0.000 C 
ATOM      7  C   UNL     1      41.429   3.241  11.807  0.00  0.00    +0.000 C 
ATOM      8  C   UNL     1      40.141   2.942  11.116  0.00  0.00    +0.000 C 
ATOM      9  C   UNL     1      41.098  -0.352  10.003  0.00  0.00    +0.000 C 
ATOM     10  C   UNL     1      41.979   1.540   8.678  0.00  0.00    +0.000 C 
ATOM     11  C   UNL     1      43.069   2.251  13.362  0.00  0.00    +0.000 C 
ATOM     12  C   UNL     1      39.865  -1.212   9.824  0.00  0.00    +0.000 C 
ATOM     13  C   UNL     1      37.997   0.470  10.024  0.00  0.00    +0.000 C 
ATOM     14  C   UNL     1      38.436  -1.044   9.704  0.00  0.00    +0.000 C 
ATOM     15  C   UNL     1      36.684   0.821   9.252  0.00  0.00    +0.000 C 
ATOM     16  C   UNL     1      37.733   0.612  11.570  0.00  0.00    +0.000 C 
ENDROOT
BRANCH   5  17
ATOM     17  O   UNL     1      43.727   3.354  11.399  0.00  0.00    +0.000 OA
ATOM     18  H   UNL     1      43.214   4.068  10.977  0.00  0.00    +0.000 HD
ENDBRANCH   5  17
BRANCH   3  19
ATOM     19  C   UNL     1      43.726   0.342  11.104  0.00  0.00    +0.000 C 
ATOM     20  C   UNL     1      44.899  -0.641  11.114  0.00  0.00    +0.000 C 
BRANCH  20  24
ATOM     21  C   UNL     1      47.721  -1.774  13.096  0.00  0.00    +0.000 C 
ATOM     22  C   UNL     1      47.385  -1.185  11.703  0.00  0.00    +0.000 C 
ATOM     23  C   UNL     1      47.889  -3.237  13.416  0.00  0.00    +0.000 C 
ATOM     24  C   UNL     1      45.997  -1.565  11.133  0.00  0.00    +0.000 C 
ATOM     25  C   UNL     1      48.262  -3.461  14.882  0.00  0.00    +0.000 C 
ATOM     26  C   UNL     1      47.995  -1.062  14.299  0.00  0.00    +0.000 C 
ATOM     27  C   UNL     1      48.326  -2.083  15.351  0.00  0.00    +0.000 C 
ATOM     28  C   UNL     1      47.193  -4.116  12.561  0.00  0.00    +0.000 C 
ATOM     29  C   UNL     1      45.748  -2.934  10.679  0.00  0.00    +0.000 C 
ATOM     30  C   UNL     1      47.481   0.386  11.806  0.00  0.00    +0.000 C 
ATOM     31  C   UNL     1      48.507  -1.619  10.699  0.00  0.00    +0.000 C 
ATOM     32  C   UNL     1      46.287  -3.881  11.381  0.00  0.00    +0.000 C 
ATOM     33  C   UNL     1      49.533  -4.279  15.030  0.00  0.00    +0.000 C 
ATOM     34  C   UNL     1      44.612  -3.324   9.769  0.00  0.00    +0.000 C 
BRANCH  25  35
ATOM     35  O   UNL     1      47.239  -4.160  15.549  0.00  0.00    +0.000 OA
ATOM     36  H   UNL     1      47.655  -4.305  16.416  0.00  0.00    +0.000 HD
ENDBRANCH  25  35
ENDBRANCH  20  24
ENDBRANCH   3  19
TORSDOF 4
ENDMDL
MODEL 3
REMARK VINA RESULT:      -7.2      7.081     12.308
REMARK  Name = 44423609_SipholenoneA.pdbqt.pdb
REMARK  4 active torsions:
REMARK  status: ('A' for Active; 'I' for Inactive)
REMARK    1  A    between atoms: C_3  and  C_19
REMARK    2  A    between atoms: C_5  and  O_17
REMARK    3  A    between atoms: C_20  and  C_24
REMARK    4  A    between atoms: C_25  and  O_35
REMARK                            x       y       z     vdW  Elec       q    Type
REMARK                         _______ _______ _______ _____ _____    ______ ____
ROOT
ATOM      1  O   UNL     1      50.462  -4.042  33.990  0.00  0.00    +0.000 OA
ATOM      2  O   UNL     1      50.574  -1.845  36.965  0.00  0.00    +0.000 OA
ATOM      3  C   UNL     1      49.732  -1.654  30.927  0.00  0.00    +0.000 C 
ATOM      4  C   UNL     1      50.513  -2.266  32.089  0.00  0.00    +0.000 C 
ATOM      5  C   UNL     1      48.880  -2.538  30.032  0.00  0.00    +0.000 C 
ATOM      6  C   UNL     1      49.905  -3.540  32.808  0.00  0.00    +0.000 C 
ATOM      7  C   UNL     1      48.672  -3.813  30.690  0.00  0.00    +0.000 C 
ATOM      8  C   UNL     1      49.105  -4.375  32.003  0.00  0.00    +0.000 C 
ATOM      9  C   UNL     1      50.593  -1.321  33.215  0.00  0.00    +0.000 C 
ATOM     10  C   UNL     1      51.949  -2.629  31.614  0.00  0.00    +0.000 C 
ATOM     11  C   UNL     1      47.550  -1.855  29.694  0.00  0.00    +0.000 C 
ATOM     12  C   UNL     1      50.570  -1.304  34.729  0.00  0.00    +0.000 C 
ATOM     13  C   UNL     1      49.889  -3.667  35.287  0.00  0.00    +0.000 C 
ATOM     14  C   UNL     1      50.386  -2.233  35.819  0.00  0.00    +0.000 C 
ATOM     15  C   UNL     1      50.354  -4.793  36.268  0.00  0.00    +0.000 C 
ATOM     16  C   UNL     1      48.316  -3.671  35.215  0.00  0.00    +0.000 C 
ENDROOT
BRANCH   5  17
ATOM     17  O   UNL     1      49.533  -2.737  28.803  0.00  0.00    +0.000 OA
ATOM     18  H   UNL     1      49.651  -3.704  28.807  0.00  0.00    +0.000 HD
ENDBRANCH   5  17
BRANCH   3  19
ATOM     19  C   UNL     1      50.009  -0.297  30.530  0.00  0.00    +0.000 C 
ATOM     20  C   UNL     1      50.316   1.142  30.111  0.00  0.00    +0.000 C 
BRANCH  20  24
ATOM     21  C   UNL     1      50.332   4.571  31.302  0.00  0.00    +0.000 C 
ATOM     22  C   UNL     1      49.731   3.688  30.180  0.00  0.00    +0.000 C 
ATOM     23  C   UNL     1      51.578   5.411  31.187  0.00  0.00    +0.000 C 
ATOM     24  C   UNL     1      50.607   2.494  29.727  0.00  0.00    +0.000 C 
ATOM     25  C   UNL     1      51.860   6.192  32.471  0.00  0.00    +0.000 C 
ATOM     26  C   UNL     1      49.802   4.807  32.603  0.00  0.00    +0.000 C 
ATOM     27  C   UNL     1      50.720   5.785  33.283  0.00  0.00    +0.000 C 
ATOM     28  C   UNL     1      52.513   4.962  30.231  0.00  0.00    +0.000 C 
ATOM     29  C   UNL     1      51.828   2.740  28.958  0.00  0.00    +0.000 C 
ATOM     30  C   UNL     1      48.344   3.137  30.690  0.00  0.00    +0.000 C 
ATOM     31  C   UNL     1      49.404   4.602  28.951  0.00  0.00    +0.000 C 
ATOM     32  C   UNL     1      52.521   3.782  29.296  0.00  0.00    +0.000 C 
ATOM     33  C   UNL     1      52.001   7.683  32.215  0.00  0.00    +0.000 C 
ATOM     34  C   UNL     1      52.534   1.688  28.143  0.00  0.00    +0.000 C 
BRANCH  25  35
ATOM     35  O   UNL     1      53.061   5.757  33.059  0.00  0.00    +0.000 OA
ATOM     36  H   UNL     1      53.630   6.531  32.903  0.00  0.00    +0.000 HD
ENDBRANCH  25  35
ENDBRANCH  20  24
ENDBRANCH   3  19
TORSDOF 4
ENDMDL
MODEL 4
REMARK VINA RESULT:      -7.0     38.267     41.488
REMARK  Name = 44423609_SipholenoneA.pdbqt.pdb
REMARK  4 active torsions:
REMARK  status: ('A' for Active; 'I' for Inactive)
REMARK    1  A    between atoms: C_3  and  C_19
REMARK    2  A    between atoms: C_5  and  O_17
REMARK    3  A    between atoms: C_20  and  C_24
REMARK    4  A    between atoms: C_25  and  O_35
REMARK                            x       y       z     vdW  Elec       q    Type
REMARK                         _______ _______ _______ _____ _____    ______ ____
ROOT
ATOM      1  O   UNL     1      11.521   4.903  18.118  0.00  0.00    +0.000 OA
ATOM      2  O   UNL     1      10.578   7.540  15.699  0.00  0.00    +0.000 OA
ATOM      3  C   UNL     1      15.299   5.604  19.041  0.00  0.00    +0.000 C 
ATOM      4  C   UNL     1      13.791   5.841  18.978  0.00  0.00    +0.000 C 
ATOM      5  C   UNL     1      15.842   4.200  19.241  0.00  0.00    +0.000 C 
ATOM      6  C   UNL     1      12.879   4.691  18.380  0.00  0.00    +0.000 C 
ATOM      7  C   UNL     1      14.786   3.243  18.970  0.00  0.00    +0.000 C 
ATOM      8  C   UNL     1      13.362   3.378  18.547  0.00  0.00    +0.000 C 
ATOM      9  C   UNL     1      13.477   6.950  18.061  0.00  0.00    +0.000 C 
ATOM     10  C   UNL     1      13.259   6.179  20.399  0.00  0.00    +0.000 C 
ATOM     11  C   UNL     1      17.067   3.954  18.353  0.00  0.00    +0.000 C 
ATOM     12  C   UNL     1      12.438   7.364  17.041  0.00  0.00    +0.000 C 
ATOM     13  C   UNL     1      11.082   5.255  16.763  0.00  0.00    +0.000 C 
ATOM     14  C   UNL     1      11.256   6.816  16.417  0.00  0.00    +0.000 C 
ATOM     15  C   UNL     1       9.569   4.863  16.720  0.00  0.00    +0.000 C 
ATOM     16  C   UNL     1      11.861   4.401  15.694  0.00  0.00    +0.000 C 
ENDROOT
BRANCH   5  17
ATOM     17  O   UNL     1      16.291   4.050  20.565  0.00  0.00    +0.000 OA
ATOM     18  H   UNL     1      15.949   3.163  20.780  0.00  0.00    +0.000 HD
ENDBRANCH   5  17
BRANCH   3  19
ATOM     19  C   UNL     1      16.184   6.733  19.169  0.00  0.00    +0.000 C 
ATOM     20  C   UNL     1      17.134   7.926  19.302  0.00  0.00    +0.000 C 
BRANCH  20  24
ATOM     21  C   UNL     1      20.484   9.079  18.513  0.00  0.00    +0.000 C 
ATOM     22  C   UNL     1      19.540   8.853  19.721  0.00  0.00    +0.000 C 
ATOM     23  C   UNL     1      20.689  10.386  17.790  0.00  0.00    +0.000 C 
ATOM     24  C   UNL     1      18.030   9.039  19.434  0.00  0.00    +0.000 C 
ATOM     25  C   UNL     1      21.726  10.262  16.673  0.00  0.00    +0.000 C 
ATOM     26  C   UNL     1      21.368   8.139  17.910  0.00  0.00    +0.000 C 
ATOM     27  C   UNL     1      22.108   8.863  16.822  0.00  0.00    +0.000 C 
ATOM     28  C   UNL     1      19.602  11.281  17.860  0.00  0.00    +0.000 C 
ATOM     29  C   UNL     1      17.496  10.381  19.194  0.00  0.00    +0.000 C 
ATOM     30  C   UNL     1      19.780   7.389  20.255  0.00  0.00    +0.000 C 
ATOM     31  C   UNL     1      19.981   9.810  20.880  0.00  0.00    +0.000 C 
ATOM     32  C   UNL     1      18.248  11.186  18.511  0.00  0.00    +0.000 C 
ATOM     33  C   UNL     1      22.844  11.281  16.815  0.00  0.00    +0.000 C 
ATOM     34  C   UNL     1      16.035  10.734  19.293  0.00  0.00    +0.000 C 
BRANCH  25  35
ATOM     35  O   UNL     1      21.126  10.476  15.419  0.00  0.00    +0.000 OA
ATOM     36  H   UNL     1      20.199  10.610  15.682  0.00  0.00    +0.000 HD
ENDBRANCH  25  35
ENDBRANCH  20  24
ENDBRANCH   3  19
TORSDOF 4
ENDMDL
MODEL 5
REMARK VINA RESULT:      -6.7      2.642      4.718
REMARK  Name = 44423609_SipholenoneA.pdbqt.pdb
REMARK  4 active torsions:
REMARK  status: ('A' for Active; 'I' for Inactive)
REMARK    1  A    between atoms: C_3  and  C_19
REMARK    2  A    between atoms: C_5  and  O_17
REMARK    3  A    between atoms: C_20  and  C_24
REMARK    4  A    between atoms: C_25  and  O_35
REMARK                            x       y       z     vdW  Elec       q    Type
REMARK                         _______ _______ _______ _____ _____    ______ ____
ROOT
ATOM      1  O   UNL     1      51.296   0.475  40.371  0.00  0.00    +0.000 OA
ATOM      2  O   UNL     1      50.414  -1.781  37.573  0.00  0.00    +0.000 OA
ATOM      3  C   UNL     1      49.222  -0.817  43.476  0.00  0.00    +0.000 C 
ATOM      4  C   UNL     1      50.279  -0.839  42.375  0.00  0.00    +0.000 C 
ATOM      5  C   UNL     1      48.912   0.476  44.212  0.00  0.00    +0.000 C 
ATOM      6  C   UNL     1      50.484   0.475  41.511  0.00  0.00    +0.000 C 
ATOM      7  C   UNL     1      49.454   1.588  43.455  0.00  0.00    +0.000 C 
ATOM      8  C   UNL     1      50.199   1.689  42.166  0.00  0.00    +0.000 C 
ATOM      9  C   UNL     1      49.917  -1.807  41.326  0.00  0.00    +0.000 C 
ATOM     10  C   UNL     1      51.656  -1.226  42.985  0.00  0.00    +0.000 C 
ATOM     11  C   UNL     1      47.404   0.630  44.439  0.00  0.00    +0.000 C 
ATOM     12  C   UNL     1      49.984  -1.982  39.824  0.00  0.00    +0.000 C 
ATOM     13  C   UNL     1      50.694   0.309  39.044  0.00  0.00    +0.000 C 
ATOM     14  C   UNL     1      50.389  -1.224  38.663  0.00  0.00    +0.000 C 
ATOM     15  C   UNL     1      51.745   0.907  38.052  0.00  0.00    +0.000 C 
ATOM     16  C   UNL     1      49.361   1.140  38.936  0.00  0.00    +0.000 C 
ENDROOT
BRANCH   5  17
ATOM     17  O   UNL     1      49.493   0.444  45.491  0.00  0.00    +0.000 OA
ATOM     18  H   UNL     1      50.393   0.762  45.297  0.00  0.00    +0.000 HD
ENDBRANCH   5  17
BRANCH   3  19
ATOM     19  C   UNL     1      48.712  -2.064  43.988  0.00  0.00    +0.000 C 
ATOM     20  C   UNL     1      48.177  -3.395  44.521  0.00  0.00    +0.000 C 
BRANCH  20  24
ATOM     21  C   UNL     1      45.124  -5.247  45.173  0.00  0.00    +0.000 C 
ATOM     22  C   UNL     1      46.397  -4.731  45.889  0.00  0.00    +0.000 C 
ATOM     23  C   UNL     1      44.935  -6.629  44.603  0.00  0.00    +0.000 C 
ATOM     24  C   UNL     1      47.669  -4.644  45.012  0.00  0.00    +0.000 C 
ATOM     25  C   UNL     1      43.539  -6.813  44.006  0.00  0.00    +0.000 C 
ATOM     26  C   UNL     1      43.893  -4.556  44.979  0.00  0.00    +0.000 C 
ATOM     27  C   UNL     1      42.956  -5.508  44.291  0.00  0.00    +0.000 C 
ATOM     28  C   UNL     1      46.125  -7.285  44.227  0.00  0.00    +0.000 C 
ATOM     29  C   UNL     1      48.339  -5.873  44.581  0.00  0.00    +0.000 C 
ATOM     30  C   UNL     1      46.080  -3.298  46.468  0.00  0.00    +0.000 C 
ATOM     31  C   UNL     1      46.671  -5.645  47.132  0.00  0.00    +0.000 C 
ATOM     32  C   UNL     1      47.571  -6.868  44.268  0.00  0.00    +0.000 C 
ATOM     33  C   UNL     1      42.818  -8.013  44.597  0.00  0.00    +0.000 C 
ATOM     34  C   UNL     1      49.758  -5.923  44.077  0.00  0.00    +0.000 C 
BRANCH  25  35
ATOM     35  O   UNL     1      43.621  -7.021  42.617  0.00  0.00    +0.000 OA
ATOM     36  H   UNL     1      43.212  -6.202  42.287  0.00  0.00    +0.000 HD
ENDBRANCH  25  35
ENDBRANCH  20  24
ENDBRANCH   3  19
TORSDOF 4
ENDMDL
MODEL 6
REMARK VINA RESULT:      -6.7     28.525     31.957
REMARK  Name = 44423609_SipholenoneA.pdbqt.pdb
REMARK  4 active torsions:
REMARK  status: ('A' for Active; 'I' for Inactive)
REMARK    1  A    between atoms: C_3  and  C_19
REMARK    2  A    between atoms: C_5  and  O_17
REMARK    3  A    between atoms: C_20  and  C_24
REMARK    4  A    between atoms: C_25  and  O_35
REMARK                            x       y       z     vdW  Elec       q    Type
REMARK                         _______ _______ _______ _____ _____    ______ ____
ROOT
ATOM      1  O   UNL     1      38.948   1.310   9.370  0.00  0.00    +0.000 OA
ATOM      2  O   UNL     1      37.570  -2.123   9.477  0.00  0.00    +0.000 OA
ATOM      3  C   UNL     1      42.449   1.111  11.192  0.00  0.00    +0.000 C 
ATOM      4  C   UNL     1      41.402   0.857  10.109  0.00  0.00    +0.000 C 
ATOM      5  C   UNL     1      42.532   2.469  11.869  0.00  0.00    +0.000 C 
ATOM      6  C   UNL     1      40.020   1.627  10.212  0.00  0.00    +0.000 C 
ATOM      7  C   UNL     1      41.310   3.203  11.601  0.00  0.00    +0.000 C 
ATOM      8  C   UNL     1      40.066   2.886  10.841  0.00  0.00    +0.000 C 
ATOM      9  C   UNL     1      40.944  -0.542  10.147  0.00  0.00    +0.000 C 
ATOM     10  C   UNL     1      42.014   1.165   8.713  0.00  0.00    +0.000 C 
ATOM     11  C   UNL     1      42.777   2.315  13.374  0.00  0.00    +0.000 C 
ATOM     12  C   UNL     1      39.688  -1.366   9.957  0.00  0.00    +0.000 C 
ATOM     13  C   UNL     1      37.894   0.402   9.835  0.00  0.00    +0.000 C 
ATOM     14  C   UNL     1      38.282  -1.153   9.705  0.00  0.00    +0.000 C 
ATOM     15  C   UNL     1      36.662   0.723   8.928  0.00  0.00    +0.000 C 
ATOM     16  C   UNL     1      37.521   0.715  11.332  0.00  0.00    +0.000 C 
ENDROOT
BRANCH   5  17
ATOM     17  O   UNL     1      43.635   3.181  11.369  0.00  0.00    +0.000 OA
ATOM     18  H   UNL     1      43.197   3.963  10.987  0.00  0.00    +0.000 HD
ENDBRANCH   5  17
BRANCH   3  19
ATOM     19  C   UNL     1      43.511   0.157  11.381  0.00  0.00    +0.000 C 
ATOM     20  C   UNL     1      44.632  -0.865  11.586  0.00  0.00    +0.000 C 
BRANCH  20  24
ATOM     21  C   UNL     1      46.551  -3.476   9.950  0.00  0.00    +0.000 C 
ATOM     22  C   UNL     1      45.631  -3.244  11.174  0.00  0.00    +0.000 C 
ATOM     23  C   UNL     1      48.057  -3.435   9.961  0.00  0.00    +0.000 C 
ATOM     24  C   UNL     1      45.680  -1.824  11.789  0.00  0.00    +0.000 C 
ATOM     25  C   UNL     1      48.647  -3.753   8.586  0.00  0.00    +0.000 C 
ATOM     26  C   UNL     1      46.165  -3.830   8.625  0.00  0.00    +0.000 C 
ATOM     27  C   UNL     1      47.427  -4.002   7.828  0.00  0.00    +0.000 C 
ATOM     28  C   UNL     1      48.623  -2.634  10.976  0.00  0.00    +0.000 C 
ATOM     29  C   UNL     1      46.869  -1.393  12.527  0.00  0.00    +0.000 C 
ATOM     30  C   UNL     1      44.149  -3.555  10.732  0.00  0.00    +0.000 C 
ATOM     31  C   UNL     1      45.985  -4.307  12.268  0.00  0.00    +0.000 C 
ATOM     32  C   UNL     1      48.012  -1.786  12.059  0.00  0.00    +0.000 C 
ATOM     33  C   UNL     1      49.645  -4.897   8.644  0.00  0.00    +0.000 C 
ATOM     34  C   UNL     1      46.889  -0.226  13.480  0.00  0.00    +0.000 C 
BRANCH  25  35
ATOM     35  O   UNL     1      49.326  -2.635   8.071  0.00  0.00    +0.000 OA
ATOM     36  H   UNL     1      50.196  -3.025   7.877  0.00  0.00    +0.000 HD
ENDBRANCH  25  35
ENDBRANCH  20  24
ENDBRANCH   3  19
TORSDOF 4
ENDMDL
MODEL 7
REMARK VINA RESULT:      -6.6      7.597     12.504
REMARK  Name = 44423609_SipholenoneA.pdbqt.pdb
REMARK  4 active torsions:
REMARK  status: ('A' for Active; 'I' for Inactive)
REMARK    1  A    between atoms: C_3  and  C_19
REMARK    2  A    between atoms: C_5  and  O_17
REMARK    3  A    between atoms: C_20  and  C_24
REMARK    4  A    between atoms: C_25  and  O_35
REMARK                            x       y       z     vdW  Elec       q    Type
REMARK                         _______ _______ _______ _____ _____    ______ ____
ROOT
ATOM      1  O   UNL     1      50.724  -3.815  32.933  0.00  0.00    +0.000 OA
ATOM      2  O   UNL     1      49.693  -3.262  36.444  0.00  0.00    +0.000 OA
ATOM      3  C   UNL     1      50.096  -0.380  31.085  0.00  0.00    +0.000 C 
ATOM      4  C   UNL     1      50.743  -1.365  32.056  0.00  0.00    +0.000 C 
ATOM      5  C   UNL     1      49.682  -0.837  29.696  0.00  0.00    +0.000 C 
ATOM      6  C   UNL     1      50.320  -2.890  31.964  0.00  0.00    +0.000 C 
ATOM      7  C   UNL     1      49.653  -2.287  29.668  0.00  0.00    +0.000 C 
ATOM      8  C   UNL     1      49.925  -3.340  30.689  0.00  0.00    +0.000 C 
ATOM      9  C   UNL     1      50.362  -1.053  33.444  0.00  0.00    +0.000 C 
ATOM     10  C   UNL     1      52.290  -1.293  31.915  0.00  0.00    +0.000 C 
ATOM     11  C   UNL     1      48.328  -0.238  29.303  0.00  0.00    +0.000 C 
ATOM     12  C   UNL     1      50.023  -1.747  34.746  0.00  0.00    +0.000 C 
ATOM     13  C   UNL     1      49.822  -4.159  34.039  0.00  0.00    +0.000 C 
ATOM     14  C   UNL     1      49.844  -3.091  35.241  0.00  0.00    +0.000 C 
ATOM     15  C   UNL     1      50.328  -5.548  34.548  0.00  0.00    +0.000 C 
ATOM     16  C   UNL     1      48.346  -4.315  33.516  0.00  0.00    +0.000 C 
ENDROOT
BRANCH   5  17
ATOM     17  O   UNL     1      50.603  -0.362  28.747  0.00  0.00    +0.000 OA
ATOM     18  H   UNL     1      50.853  -1.189  28.296  0.00  0.00    +0.000 HD
ENDBRANCH   5  17
BRANCH   3  19
ATOM     19  C   UNL     1      50.119   1.028  31.391  0.00  0.00    +0.000 C 
ATOM     20  C   UNL     1      50.154   2.524  31.712  0.00  0.00    +0.000 C 
BRANCH  20  24
ATOM     21  C   UNL     1      52.181   5.518  31.395  0.00  0.00    +0.000 C 
ATOM     22  C   UNL     1      51.497   4.634  32.467  0.00  0.00    +0.000 C 
ATOM     23  C   UNL     1      51.602   6.770  30.787  0.00  0.00    +0.000 C 
ATOM     24  C   UNL     1      50.196   3.925  32.019  0.00  0.00    +0.000 C 
ATOM     25  C   UNL     1      52.565   7.419  29.792  0.00  0.00    +0.000 C 
ATOM     26  C   UNL     1      53.484   5.363  30.840  0.00  0.00    +0.000 C 
ATOM     27  C   UNL     1      53.701   6.511  29.894  0.00  0.00    +0.000 C 
ATOM     28  C   UNL     1      50.193   6.834  30.788  0.00  0.00    +0.000 C 
ATOM     29  C   UNL     1      48.978   4.710  31.806  0.00  0.00    +0.000 C 
ATOM     30  C   UNL     1      52.538   3.542  32.930  0.00  0.00    +0.000 C 
ATOM     31  C   UNL     1      51.213   5.517  33.729  0.00  0.00    +0.000 C 
ATOM     32  C   UNL     1      49.133   5.879  31.269  0.00  0.00    +0.000 C 
ATOM     33  C   UNL     1      52.839   8.875  30.129  0.00  0.00    +0.000 C 
ATOM     34  C   UNL     1      47.594   4.116  31.757  0.00  0.00    +0.000 C 
BRANCH  25  35
ATOM     35  O   UNL     1      52.026   7.388  28.493  0.00  0.00    +0.000 OA
ATOM     36  H   UNL     1      51.335   8.068  28.568  0.00  0.00    +0.000 HD
ENDBRANCH  25  35
ENDBRANCH  20  24
ENDBRANCH   3  19
TORSDOF 4
ENDMDL
MODEL 8
REMARK VINA RESULT:      -6.6      2.723      4.790
REMARK  Name = 44423609_SipholenoneA.pdbqt.pdb
REMARK  4 active torsions:
REMARK  status: ('A' for Active; 'I' for Inactive)
REMARK    1  A    between atoms: C_3  and  C_19
REMARK    2  A    between atoms: C_5  and  O_17
REMARK    3  A    between atoms: C_20  and  C_24
REMARK    4  A    between atoms: C_25  and  O_35
REMARK                            x       y       z     vdW  Elec       q    Type
REMARK                         _______ _______ _______ _____ _____    ______ ____
ROOT
ATOM      1  O   UNL     1      49.818  -2.251  33.137  0.00  0.00    +0.000 OA
ATOM      2  O   UNL     1      53.210  -0.772  33.082  0.00  0.00    +0.000 OA
ATOM      3  C   UNL     1      49.281  -3.549  36.830  0.00  0.00    +0.000 C 
ATOM      4  C   UNL     1      49.470  -2.540  35.699  0.00  0.00    +0.000 C 
ATOM      5  C   UNL     1      48.432  -4.791  36.610  0.00  0.00    +0.000 C 
ATOM      6  C   UNL     1      49.467  -3.079  34.209  0.00  0.00    +0.000 C 
ATOM      7  C   UNL     1      48.236  -4.979  35.185  0.00  0.00    +0.000 C 
ATOM      8  C   UNL     1      48.693  -4.233  33.977  0.00  0.00    +0.000 C 
ATOM      9  C   UNL     1      50.807  -1.926  35.771  0.00  0.00    +0.000 C 
ATOM     10  C   UNL     1      48.385  -1.432  35.806  0.00  0.00    +0.000 C 
ATOM     11  C   UNL     1      49.081  -6.019  37.256  0.00  0.00    +0.000 C 
ATOM     12  C   UNL     1      51.916  -1.435  34.865  0.00  0.00    +0.000 C 
ATOM     13  C   UNL     1      51.185  -2.282  32.605  0.00  0.00    +0.000 C 
ATOM     14  C   UNL     1      52.225  -1.397  33.455  0.00  0.00    +0.000 C 
ATOM     15  C   UNL     1      51.061  -1.713  31.154  0.00  0.00    +0.000 C 
ATOM     16  C   UNL     1      51.713  -3.763  32.529  0.00  0.00    +0.000 C 
ENDROOT
BRANCH   5  17
ATOM     17  O   UNL     1      47.189  -4.633  37.245  0.00  0.00    +0.000 OA
ATOM     18  H   UNL     1      47.423  -4.829  38.170  0.00  0.00    +0.000 HD
ENDBRANCH   5  17
BRANCH   3  19
ATOM     19  C   UNL     1      49.688  -3.195  38.166  0.00  0.00    +0.000 C 
ATOM     20  C   UNL     1      50.117  -2.830  39.589  0.00  0.00    +0.000 C 
BRANCH  20  24
ATOM     21  C   UNL     1      50.184  -0.126  42.009  0.00  0.00    +0.000 C 
ATOM     22  C   UNL     1      51.127  -1.116  41.281  0.00  0.00    +0.000 C 
ATOM     23  C   UNL     1      49.598  -0.320  43.384  0.00  0.00    +0.000 C 
ATOM     24  C   UNL     1      50.510  -2.490  40.926  0.00  0.00    +0.000 C 
ATOM     25  C   UNL     1      48.744   0.875  43.814  0.00  0.00    +0.000 C 
ATOM     26  C   UNL     1      49.752   1.155  41.561  0.00  0.00    +0.000 C 
ATOM     27  C   UNL     1      48.903   1.743  42.653  0.00  0.00    +0.000 C 
ATOM     28  C   UNL     1      49.462  -1.664  43.789  0.00  0.00    +0.000 C 
ATOM     29  C   UNL     1      50.225  -3.455  41.990  0.00  0.00    +0.000 C 
ATOM     30  C   UNL     1      51.624  -0.423  39.954  0.00  0.00    +0.000 C 
ATOM     31  C   UNL     1      52.406  -1.320  42.163  0.00  0.00    +0.000 C 
ATOM     32  C   UNL     1      49.778  -2.967  43.105  0.00  0.00    +0.000 C 
ATOM     33  C   UNL     1      49.194   1.448  45.146  0.00  0.00    +0.000 C 
ATOM     34  C   UNL     1      50.003  -4.926  41.753  0.00  0.00    +0.000 C 
BRANCH  25  35
ATOM     35  O   UNL     1      47.399   0.491  43.959  0.00  0.00    +0.000 OA
ATOM     36  H   UNL     1      47.161   0.971  44.772  0.00  0.00    +0.000 HD
ENDBRANCH  25  35
ENDBRANCH  20  24
ENDBRANCH   3  19
TORSDOF 4
ENDMDL
MODEL 9
REMARK VINA RESULT:      -6.6     27.498     30.960
REMARK  Name = 44423609_SipholenoneA.pdbqt.pdb
REMARK  4 active torsions:
REMARK  status: ('A' for Active; 'I' for Inactive)
REMARK    1  A    between atoms: C_3  and  C_19
REMARK    2  A    between atoms: C_5  and  O_17
REMARK    3  A    between atoms: C_20  and  C_24
REMARK    4  A    between atoms: C_25  and  O_35
REMARK                            x       y       z     vdW  Elec       q    Type
REMARK                         _______ _______ _______ _____ _____    ______ ____
ROOT
ATOM      1  O   UNL     1      48.403 -22.939  21.652  0.00  0.00    +0.000 OA
ATOM      2  O   UNL     1      46.630 -25.242  19.362  0.00  0.00    +0.000 OA
ATOM      3  C   UNL     1      50.049 -20.192  19.338  0.00  0.00    +0.000 C 
ATOM      4  C   UNL     1      48.935 -20.976  20.029  0.00  0.00    +0.000 C 
ATOM      5  C   UNL     1      51.338 -19.881  20.081  0.00  0.00    +0.000 C 
ATOM      6  C   UNL     1      49.346 -22.055  21.115  0.00  0.00    +0.000 C 
ATOM      7  C   UNL     1      51.423 -20.733  21.251  0.00  0.00    +0.000 C 
ATOM      8  C   UNL     1      50.541 -21.796  21.815  0.00  0.00    +0.000 C 
ATOM      9  C   UNL     1      48.213 -21.817  19.059  0.00  0.00    +0.000 C 
ATOM     10  C   UNL     1      47.941 -19.985  20.697  0.00  0.00    +0.000 C 
ATOM     11  C   UNL     1      52.554 -20.058  19.165  0.00  0.00    +0.000 C 
ATOM     12  C   UNL     1      47.552 -23.175  18.955  0.00  0.00    +0.000 C 
ATOM     13  C   UNL     1      48.268 -24.291  21.100  0.00  0.00    +0.000 C 
ATOM     14  C   UNL     1      47.369 -24.354  19.768  0.00  0.00    +0.000 C 
ATOM     15  C   UNL     1      47.593 -25.122  22.240  0.00  0.00    +0.000 C 
ATOM     16  C   UNL     1      49.685 -24.904  20.793  0.00  0.00    +0.000 C 
ENDROOT
BRANCH   5  17
ATOM     17  O   UNL     1      51.345 -18.532  20.473  0.00  0.00    +0.000 OA
ATOM     18  H   UNL     1      51.985 -18.155  19.843  0.00  0.00    +0.000 HD
ENDBRANCH   5  17
BRANCH   3  19
ATOM     19  C   UNL     1      49.773 -19.531  18.088  0.00  0.00    +0.000 C 
ATOM     20  C   UNL     1      49.469 -18.835  16.759  0.00  0.00    +0.000 C 
BRANCH  20  24
ATOM     21  C   UNL     1      50.957 -16.923  14.056  0.00  0.00    +0.000 C 
ATOM     22  C   UNL     1      49.824 -16.841  15.109  0.00  0.00    +0.000 C 
ATOM     23  C   UNL     1      50.798 -17.374  12.627  0.00  0.00    +0.000 C 
ATOM     24  C   UNL     1      49.182 -18.192  15.508  0.00  0.00    +0.000 C 
ATOM     25  C   UNL     1      52.115 -17.289  11.853  0.00  0.00    +0.000 C 
ATOM     26  C   UNL     1      52.319 -16.535  14.211  0.00  0.00    +0.000 C 
ATOM     27  C   UNL     1      52.993 -16.750  12.885  0.00  0.00    +0.000 C 
ATOM     28  C   UNL     1      49.720 -18.253  12.397  0.00  0.00    +0.000 C 
ATOM     29  C   UNL     1      48.324 -18.898  14.555  0.00  0.00    +0.000 C 
ATOM     30  C   UNL     1      50.413 -16.156  16.402  0.00  0.00    +0.000 C 
ATOM     31  C   UNL     1      48.719 -15.868  14.573  0.00  0.00    +0.000 C 
ATOM     32  C   UNL     1      48.687 -18.853  13.312  0.00  0.00    +0.000 C 
ATOM     33  C   UNL     1      51.982 -16.460  10.587  0.00  0.00    +0.000 C 
ATOM     34  C   UNL     1      47.353 -19.984  14.943  0.00  0.00    +0.000 C 
BRANCH  25  35
ATOM     35  O   UNL     1      52.543 -18.572  11.467  0.00  0.00    +0.000 OA
ATOM     36  H   UNL     1      51.736 -18.911  11.041  0.00  0.00    +0.000 HD
ENDBRANCH  25  35
ENDBRANCH  20  24
ENDBRANCH   3  19
TORSDOF 4
ENDMDL
