MODEL 1
REMARK VINA RESULT:      -7.1      0.000      0.000
REMARK  Name = 445154_Resveratrol.pdbqt.pdb
REMARK  5 active torsions:
REMARK  status: ('A' for Active; 'I' for Inactive)
REMARK    1  A    between atoms: C_1  and  C_11
REMARK    2  A    between atoms: C_4  and  O_7
REMARK    3  A    between atoms: C_5  and  O_9
REMARK    4  A    between atoms: C_12  and  C_13
REMARK    5  A    between atoms: C_18  and  O_19
REMARK                            x       y       z     vdW  Elec       q    Type
REMARK                         _______ _______ _______ _____ _____    ______ ____
ROOT
ATOM      1  C   UNL     1      35.552  -0.165  15.056  0.00  0.00    +0.000 A 
ATOM      2  C   UNL     1      36.353  -0.885  15.942  0.00  0.00    +0.000 A 
ATOM      3  C   UNL     1      34.166  -0.156  15.213  0.00  0.00    +0.000 A 
ATOM      4  C   UNL     1      33.591  -0.870  16.261  0.00  0.00    +0.000 A 
ATOM      5  C   UNL     1      35.759  -1.592  16.982  0.00  0.00    +0.000 A 
ATOM      6  C   UNL     1      34.378  -1.592  17.152  0.00  0.00    +0.000 A 
ENDROOT
BRANCH   4   7
ATOM      7  O   UNL     1      32.238  -0.879  16.439  0.00  0.00    +0.000 OA
ATOM      8  H   UNL     1      32.056  -1.084  17.373  0.00  0.00    +0.000 HD
ENDBRANCH   4   7
BRANCH   5   9
ATOM      9  O   UNL     1      36.564  -2.289  17.836  0.00  0.00    +0.000 OA
ATOM     10  H   UNL     1      36.005  -2.910  18.337  0.00  0.00    +0.000 HD
ENDBRANCH   5   9
BRANCH   1  11
ATOM     11  C   UNL     1      36.149   0.563  13.986  0.00  0.00    +0.000 C 
ATOM     12  C   UNL     1      36.653   1.177  13.084  0.00  0.00    +0.000 C 
BRANCH  12  13
ATOM     13  C   UNL     1      37.251   1.904  12.013  0.00  0.00    +0.000 A 
ATOM     14  C   UNL     1      37.294   1.349  10.735  0.00  0.00    +0.000 A 
ATOM     15  C   UNL     1      37.790   3.169  12.247  0.00  0.00    +0.000 A 
ATOM     16  C   UNL     1      37.877   2.057   9.688  0.00  0.00    +0.000 A 
ATOM     17  C   UNL     1      38.374   3.881  11.202  0.00  0.00    +0.000 A 
ATOM     18  C   UNL     1      38.413   3.319   9.931  0.00  0.00    +0.000 A 
BRANCH  18  19
ATOM     19  O   UNL     1      38.991   4.035   8.923  0.00  0.00    +0.000 OA
ATOM     20  H   UNL     1      39.826   3.600   8.679  0.00  0.00    +0.000 HD
ENDBRANCH  18  19
ENDBRANCH  12  13
ENDBRANCH   1  11
TORSDOF 5
ENDMDL
MODEL 2
REMARK VINA RESULT:      -7.0     17.292     18.578
REMARK  Name = 445154_Resveratrol.pdbqt.pdb
REMARK  5 active torsions:
REMARK  status: ('A' for Active; 'I' for Inactive)
REMARK    1  A    between atoms: C_1  and  C_11
REMARK    2  A    between atoms: C_4  and  O_7
REMARK    3  A    between atoms: C_5  and  O_9
REMARK    4  A    between atoms: C_12  and  C_13
REMARK    5  A    between atoms: C_18  and  O_19
REMARK                            x       y       z     vdW  Elec       q    Type
REMARK                         _______ _______ _______ _____ _____    ______ ____
ROOT
ATOM      1  C   UNL     1      18.800   4.933  19.201  0.00  0.00    +0.000 A 
ATOM      2  C   UNL     1      18.331   4.056  18.223  0.00  0.00    +0.000 A 
ATOM      3  C   UNL     1      18.638   4.629  20.552  0.00  0.00    +0.000 A 
ATOM      4  C   UNL     1      18.007   3.443  20.916  0.00  0.00    +0.000 A 
ATOM      5  C   UNL     1      17.703   2.877  18.608  0.00  0.00    +0.000 A 
ATOM      6  C   UNL     1      17.535   2.558  19.952  0.00  0.00    +0.000 A 
ENDROOT
BRANCH   4   7
ATOM      7  O   UNL     1      17.836   3.119  22.231  0.00  0.00    +0.000 OA
ATOM      8  H   UNL     1      17.572   3.925  22.710  0.00  0.00    +0.000 HD
ENDBRANCH   4   7
BRANCH   5   9
ATOM      9  O   UNL     1      17.252   2.033  17.634  0.00  0.00    +0.000 OA
ATOM     10  H   UNL     1      16.470   1.567  17.978  0.00  0.00    +0.000 HD
ENDBRANCH   5   9
BRANCH   1  11
ATOM     11  C   UNL     1      19.445   6.147  18.819  0.00  0.00    +0.000 C 
ATOM     12  C   UNL     1      19.988   7.169  18.498  0.00  0.00    +0.000 C 
BRANCH  12  13
ATOM     13  C   UNL     1      20.633   8.383  18.117  0.00  0.00    +0.000 A 
ATOM     14  C   UNL     1      20.023   9.608  18.387  0.00  0.00    +0.000 A 
ATOM     15  C   UNL     1      21.870   8.342  17.475  0.00  0.00    +0.000 A 
ATOM     16  C   UNL     1      20.651  10.794  18.017  0.00  0.00    +0.000 A 
ATOM     17  C   UNL     1      22.501   9.525  17.103  0.00  0.00    +0.000 A 
ATOM     18  C   UNL     1      21.886  10.743  17.377  0.00  0.00    +0.000 A 
BRANCH  18  19
ATOM     19  O   UNL     1      22.523  11.890  17.002  0.00  0.00    +0.000 OA
ATOM     20  H   UNL     1      22.053  12.644  17.399  0.00  0.00    +0.000 HD
ENDBRANCH  18  19
ENDBRANCH  12  13
ENDBRANCH   1  11
TORSDOF 5
ENDMDL
MODEL 3
REMARK VINA RESULT:      -7.0      0.343      2.036
REMARK  Name = 445154_Resveratrol.pdbqt.pdb
REMARK  5 active torsions:
REMARK  status: ('A' for Active; 'I' for Inactive)
REMARK    1  A    between atoms: C_1  and  C_11
REMARK    2  A    between atoms: C_4  and  O_7
REMARK    3  A    between atoms: C_5  and  O_9
REMARK    4  A    between atoms: C_12  and  C_13
REMARK    5  A    between atoms: C_18  and  O_19
REMARK                            x       y       z     vdW  Elec       q    Type
REMARK                         _______ _______ _______ _____ _____    ______ ____
ROOT
ATOM      1  C   UNL     1      35.585  -0.282  14.974  0.00  0.00    +0.000 A 
ATOM      2  C   UNL     1      34.204  -0.214  15.152  0.00  0.00    +0.000 A 
ATOM      3  C   UNL     1      36.375  -0.990  15.879  0.00  0.00    +0.000 A 
ATOM      4  C   UNL     1      35.773  -1.629  16.960  0.00  0.00    +0.000 A 
ATOM      5  C   UNL     1      33.622  -0.858  16.239  0.00  0.00    +0.000 A 
ATOM      6  C   UNL     1      34.396  -1.570  17.150  0.00  0.00    +0.000 A 
ENDROOT
BRANCH   4   7
ATOM      7  O   UNL     1      36.521  -2.330  17.861  0.00  0.00    +0.000 OA
ATOM      8  H   UNL     1      36.527  -1.835  18.700  0.00  0.00    +0.000 HD
ENDBRANCH   4   7
BRANCH   5   9
ATOM      9  O   UNL     1      32.267  -0.778  16.392  0.00  0.00    +0.000 OA
ATOM     10  H   UNL     1      31.934  -0.108  15.770  0.00  0.00    +0.000 HD
ENDBRANCH   5   9
BRANCH   1  11
ATOM     11  C   UNL     1      36.194   0.375  13.865  0.00  0.00    +0.000 C 
ATOM     12  C   UNL     1      36.708   0.928  12.930  0.00  0.00    +0.000 C 
BRANCH  12  13
ATOM     13  C   UNL     1      37.317   1.585  11.821  0.00  0.00    +0.000 A 
ATOM     14  C   UNL     1      37.488   0.901  10.617  0.00  0.00    +0.000 A 
ATOM     15  C   UNL     1      37.741   2.908  11.942  0.00  0.00    +0.000 A 
ATOM     16  C   UNL     1      38.083   1.540   9.533  0.00  0.00    +0.000 A 
ATOM     17  C   UNL     1      38.336   3.550  10.860  0.00  0.00    +0.000 A 
ATOM     18  C   UNL     1      38.503   2.860   9.663  0.00  0.00    +0.000 A 
BRANCH  18  19
ATOM     19  O   UNL     1      39.089   3.511   8.617  0.00  0.00    +0.000 OA
ATOM     20  H   UNL     1      38.431   3.600   7.906  0.00  0.00    +0.000 HD
ENDBRANCH  18  19
ENDBRANCH  12  13
ENDBRANCH   1  11
TORSDOF 5
ENDMDL
MODEL 4
REMARK VINA RESULT:      -6.5      2.432      7.521
REMARK  Name = 445154_Resveratrol.pdbqt.pdb
REMARK  5 active torsions:
REMARK  status: ('A' for Active; 'I' for Inactive)
REMARK    1  A    between atoms: C_1  and  C_11
REMARK    2  A    between atoms: C_4  and  O_7
REMARK    3  A    between atoms: C_5  and  O_9
REMARK    4  A    between atoms: C_12  and  C_13
REMARK    5  A    between atoms: C_18  and  O_19
REMARK                            x       y       z     vdW  Elec       q    Type
REMARK                         _______ _______ _______ _____ _____    ______ ____
ROOT
ATOM      1  C   UNL     1      38.550   3.276  13.777  0.00  0.00    +0.000 A 
ATOM      2  C   UNL     1      39.857   3.007  14.181  0.00  0.00    +0.000 A 
ATOM      3  C   UNL     1      38.292   4.312  12.880  0.00  0.00    +0.000 A 
ATOM      4  C   UNL     1      39.350   5.074  12.391  0.00  0.00    +0.000 A 
ATOM      5  C   UNL     1      40.900   3.781  13.681  0.00  0.00    +0.000 A 
ATOM      6  C   UNL     1      40.659   4.817  12.785  0.00  0.00    +0.000 A 
ENDROOT
BRANCH   4   7
ATOM      7  O   UNL     1      39.127   6.094  11.512  0.00  0.00    +0.000 OA
ATOM      8  H   UNL     1      38.925   5.705  10.642  0.00  0.00    +0.000 HD
ENDBRANCH   4   7
BRANCH   5   9
ATOM      9  O   UNL     1      42.172   3.499  14.091  0.00  0.00    +0.000 OA
ATOM     10  H   UNL     1      42.630   4.343  14.250  0.00  0.00    +0.000 HD
ENDBRANCH   5   9
BRANCH   1  11
ATOM     11  C   UNL     1      37.472   2.491  14.282  0.00  0.00    +0.000 C 
ATOM     12  C   UNL     1      36.564   1.829  14.708  0.00  0.00    +0.000 C 
BRANCH  12  13
ATOM     13  C   UNL     1      35.486   1.044  15.213  0.00  0.00    +0.000 A 
ATOM     14  C   UNL     1      35.471   0.666  16.555  0.00  0.00    +0.000 A 
ATOM     15  C   UNL     1      34.450   0.656  14.363  0.00  0.00    +0.000 A 
ATOM     16  C   UNL     1      34.419  -0.100  17.050  0.00  0.00    +0.000 A 
ATOM     17  C   UNL     1      33.398  -0.111  14.854  0.00  0.00    +0.000 A 
ATOM     18  C   UNL     1      33.390  -0.483  16.194  0.00  0.00    +0.000 A 
BRANCH  18  19
ATOM     19  O   UNL     1      32.348  -1.235  16.653  0.00  0.00    +0.000 OA
ATOM     20  H   UNL     1      32.574  -1.560  17.541  0.00  0.00    +0.000 HD
ENDBRANCH  18  19
ENDBRANCH  12  13
ENDBRANCH   1  11
TORSDOF 5
ENDMDL
MODEL 5
REMARK VINA RESULT:      -6.3      2.495      7.445
REMARK  Name = 445154_Resveratrol.pdbqt.pdb
REMARK  5 active torsions:
REMARK  status: ('A' for Active; 'I' for Inactive)
REMARK    1  A    between atoms: C_1  and  C_11
REMARK    2  A    between atoms: C_4  and  O_7
REMARK    3  A    between atoms: C_5  and  O_9
REMARK    4  A    between atoms: C_12  and  C_13
REMARK    5  A    between atoms: C_18  and  O_19
REMARK                            x       y       z     vdW  Elec       q    Type
REMARK                         _______ _______ _______ _____ _____    ______ ____
ROOT
ATOM      1  C   UNL     1      39.040   0.724  12.429  0.00  0.00    +0.000 A 
ATOM      2  C   UNL     1      39.639  -0.259  11.642  0.00  0.00    +0.000 A 
ATOM      3  C   UNL     1      39.581   2.008  12.480  0.00  0.00    +0.000 A 
ATOM      4  C   UNL     1      40.723   2.300  11.738  0.00  0.00    +0.000 A 
ATOM      5  C   UNL     1      40.779   0.054  10.908  0.00  0.00    +0.000 A 
ATOM      6  C   UNL     1      41.330   1.330  10.948  0.00  0.00    +0.000 A 
ENDROOT
BRANCH   4   7
ATOM      7  O   UNL     1      41.274   3.549  11.768  0.00  0.00    +0.000 OA
ATOM      8  H   UNL     1      40.644   4.169  11.359  0.00  0.00    +0.000 HD
ENDBRANCH   4   7
BRANCH   5   9
ATOM      9  O   UNL     1      41.348  -0.925  10.145  0.00  0.00    +0.000 OA
ATOM     10  H   UNL     1      42.151  -0.557   9.735  0.00  0.00    +0.000 HD
ENDBRANCH   5   9
BRANCH   1  11
ATOM     11  C   UNL     1      37.871   0.417  13.185  0.00  0.00    +0.000 C 
ATOM     12  C   UNL     1      36.886   0.158  13.823  0.00  0.00    +0.000 C 
BRANCH  12  13
ATOM     13  C   UNL     1      35.717  -0.150  14.579  0.00  0.00    +0.000 A 
ATOM     14  C   UNL     1      35.782  -1.091  15.606  0.00  0.00    +0.000 A 
ATOM     15  C   UNL     1      34.512   0.490  14.289  0.00  0.00    +0.000 A 
ATOM     16  C   UNL     1      34.642  -1.392  16.346  0.00  0.00    +0.000 A 
ATOM     17  C   UNL     1      33.370   0.190  15.026  0.00  0.00    +0.000 A 
ATOM     18  C   UNL     1      33.444  -0.749  16.049  0.00  0.00    +0.000 A 
BRANCH  18  19
ATOM     19  O   UNL     1      32.311  -1.026  16.758  0.00  0.00    +0.000 OA
ATOM     20  H   UNL     1      31.856  -0.187  16.946  0.00  0.00    +0.000 HD
ENDBRANCH  18  19
ENDBRANCH  12  13
ENDBRANCH   1  11
TORSDOF 5
ENDMDL
MODEL 6
REMARK VINA RESULT:      -6.3      1.693      7.472
REMARK  Name = 445154_Resveratrol.pdbqt.pdb
REMARK  5 active torsions:
REMARK  status: ('A' for Active; 'I' for Inactive)
REMARK    1  A    between atoms: C_1  and  C_11
REMARK    2  A    between atoms: C_4  and  O_7
REMARK    3  A    between atoms: C_5  and  O_9
REMARK    4  A    between atoms: C_12  and  C_13
REMARK    5  A    between atoms: C_18  and  O_19
REMARK                            x       y       z     vdW  Elec       q    Type
REMARK                         _______ _______ _______ _____ _____    ______ ____
ROOT
ATOM      1  C   UNL     1      38.350   2.104  12.048  0.00  0.00    +0.000 A 
ATOM      2  C   UNL     1      39.664   1.652  12.156  0.00  0.00    +0.000 A 
ATOM      3  C   UNL     1      38.028   3.117  11.145  0.00  0.00    +0.000 A 
ATOM      4  C   UNL     1      39.030   3.671  10.353  0.00  0.00    +0.000 A 
ATOM      5  C   UNL     1      40.651   2.219  11.356  0.00  0.00    +0.000 A 
ATOM      6  C   UNL     1      40.345   3.230  10.450  0.00  0.00    +0.000 A 
ENDROOT
BRANCH   4   7
ATOM      7  O   UNL     1      38.744   4.663   9.461  0.00  0.00    +0.000 OA
ATOM      8  H   UNL     1      38.989   5.515   9.865  0.00  0.00    +0.000 HD
ENDBRANCH   4   7
BRANCH   5   9
ATOM      9  O   UNL     1      41.931   1.760  11.479  0.00  0.00    +0.000 OA
ATOM     10  H   UNL     1      41.897   0.891  11.917  0.00  0.00    +0.000 HD
ENDBRANCH   5   9
BRANCH   1  11
ATOM     11  C   UNL     1      37.330   1.531  12.864  0.00  0.00    +0.000 C 
ATOM     12  C   UNL     1      36.471   1.047  13.551  0.00  0.00    +0.000 C 
BRANCH  12  13
ATOM     13  C   UNL     1      35.452   0.474  14.367  0.00  0.00    +0.000 A 
ATOM     14  C   UNL     1      34.143   0.950  14.281  0.00  0.00    +0.000 A 
ATOM     15  C   UNL     1      35.766  -0.559  15.250  0.00  0.00    +0.000 A 
ATOM     16  C   UNL     1      33.147   0.392  15.076  0.00  0.00    +0.000 A 
ATOM     17  C   UNL     1      34.772  -1.119  16.047  0.00  0.00    +0.000 A 
ATOM     18  C   UNL     1      33.469  -0.639  15.954  0.00  0.00    +0.000 A 
BRANCH  18  19
ATOM     19  O   UNL     1      32.512  -1.204  16.746  0.00  0.00    +0.000 OA
ATOM     20  H   UNL     1      32.790  -2.111  16.960  0.00  0.00    +0.000 HD
ENDBRANCH  18  19
ENDBRANCH  12  13
ENDBRANCH   1  11
TORSDOF 5
ENDMDL
MODEL 7
REMARK VINA RESULT:      -5.9     18.107     20.578
REMARK  Name = 445154_Resveratrol.pdbqt.pdb
REMARK  5 active torsions:
REMARK  status: ('A' for Active; 'I' for Inactive)
REMARK    1  A    between atoms: C_1  and  C_11
REMARK    2  A    between atoms: C_4  and  O_7
REMARK    3  A    between atoms: C_5  and  O_9
REMARK    4  A    between atoms: C_12  and  C_13
REMARK    5  A    between atoms: C_18  and  O_19
REMARK                            x       y       z     vdW  Elec       q    Type
REMARK                         _______ _______ _______ _____ _____    ______ ____
ROOT
ATOM      1  C   UNL     1      21.199  13.268  18.092  0.00  0.00    +0.000 A 
ATOM      2  C   UNL     1      21.797  13.977  19.133  0.00  0.00    +0.000 A 
ATOM      3  C   UNL     1      20.869  13.915  16.901  0.00  0.00    +0.000 A 
ATOM      4  C   UNL     1      21.143  15.273  16.761  0.00  0.00    +0.000 A 
ATOM      5  C   UNL     1      22.061  15.334  18.972  0.00  0.00    +0.000 A 
ATOM      6  C   UNL     1      21.740  15.993  17.790  0.00  0.00    +0.000 A 
ENDROOT
BRANCH   4   7
ATOM      7  O   UNL     1      20.832  15.931  15.606  0.00  0.00    +0.000 OA
ATOM      8  H   UNL     1      21.567  16.532  15.392  0.00  0.00    +0.000 HD
ENDBRANCH   4   7
BRANCH   5   9
ATOM      9  O   UNL     1      22.648  16.008  20.005  0.00  0.00    +0.000 OA
ATOM     10  H   UNL     1      22.109  16.796  20.194  0.00  0.00    +0.000 HD
ENDBRANCH   5   9
BRANCH   1  11
ATOM     11  C   UNL     1      20.921  11.878  18.244  0.00  0.00    +0.000 C 
ATOM     12  C   UNL     1      20.688  10.706  18.373  0.00  0.00    +0.000 C 
BRANCH  12  13
ATOM     13  C   UNL     1      20.410   9.316  18.526  0.00  0.00    +0.000 A 
ATOM     14  C   UNL     1      19.581   8.883  19.561  0.00  0.00    +0.000 A 
ATOM     15  C   UNL     1      20.968   8.393  17.641  0.00  0.00    +0.000 A 
ATOM     16  C   UNL     1      19.308   7.527  19.712  0.00  0.00    +0.000 A 
ATOM     17  C   UNL     1      20.698   7.036  17.790  0.00  0.00    +0.000 A 
ATOM     18  C   UNL     1      19.870   6.613  18.825  0.00  0.00    +0.000 A 
BRANCH  18  19
ATOM     19  O   UNL     1      19.620   5.278  18.950  0.00  0.00    +0.000 OA
ATOM     20  H   UNL     1      19.647   5.049  19.895  0.00  0.00    +0.000 HD
ENDBRANCH  18  19
ENDBRANCH  12  13
ENDBRANCH   1  11
TORSDOF 5
ENDMDL
MODEL 8
REMARK VINA RESULT:      -5.9     12.151     13.282
REMARK  Name = 445154_Resveratrol.pdbqt.pdb
REMARK  5 active torsions:
REMARK  status: ('A' for Active; 'I' for Inactive)
REMARK    1  A    between atoms: C_1  and  C_11
REMARK    2  A    between atoms: C_4  and  O_7
REMARK    3  A    between atoms: C_5  and  O_9
REMARK    4  A    between atoms: C_12  and  C_13
REMARK    5  A    between atoms: C_18  and  O_19
REMARK                            x       y       z     vdW  Elec       q    Type
REMARK                         _______ _______ _______ _____ _____    ______ ____
ROOT
ATOM      1  C   UNL     1      41.579   7.698  20.495  0.00  0.00    +0.000 A 
ATOM      2  C   UNL     1      41.228   7.722  19.146  0.00  0.00    +0.000 A 
ATOM      3  C   UNL     1      40.594   7.589  21.475  0.00  0.00    +0.000 A 
ATOM      4  C   UNL     1      39.257   7.504  21.096  0.00  0.00    +0.000 A 
ATOM      5  C   UNL     1      39.886   7.636  18.788  0.00  0.00    +0.000 A 
ATOM      6  C   UNL     1      38.891   7.526  19.754  0.00  0.00    +0.000 A 
ENDROOT
BRANCH   4   7
ATOM      7  O   UNL     1      38.271   7.396  22.033  0.00  0.00    +0.000 OA
ATOM      8  H   UNL     1      37.428   7.649  21.618  0.00  0.00    +0.000 HD
ENDBRANCH   4   7
BRANCH   5   9
ATOM      9  O   UNL     1      39.565   7.661  17.461  0.00  0.00    +0.000 OA
ATOM     10  H   UNL     1      40.395   7.655  16.951  0.00  0.00    +0.000 HD
ENDBRANCH   5   9
BRANCH   1  11
ATOM     11  C   UNL     1      42.951   7.786  20.875  0.00  0.00    +0.000 C 
ATOM     12  C   UNL     1      44.106   7.861  21.196  0.00  0.00    +0.000 C 
BRANCH  12  13
ATOM     13  C   UNL     1      45.478   7.949  21.577  0.00  0.00    +0.000 A 
ATOM     14  C   UNL     1      46.225   9.074  21.228  0.00  0.00    +0.000 A 
ATOM     15  C   UNL     1      46.068   6.911  22.297  0.00  0.00    +0.000 A 
ATOM     16  C   UNL     1      47.563   9.162  21.600  0.00  0.00    +0.000 A 
ATOM     17  C   UNL     1      47.406   6.995  22.670  0.00  0.00    +0.000 A 
ATOM     18  C   UNL     1      48.144   8.121  22.318  0.00  0.00    +0.000 A 
BRANCH  18  19
ATOM     19  O   UNL     1      49.454   8.181  22.694  0.00  0.00    +0.000 OA
ATOM     20  H   UNL     1      49.949   8.655  22.004  0.00  0.00    +0.000 HD
ENDBRANCH  18  19
ENDBRANCH  12  13
ENDBRANCH   1  11
TORSDOF 5
ENDMDL
MODEL 9
REMARK VINA RESULT:      -5.7     19.186     21.107
REMARK  Name = 445154_Resveratrol.pdbqt.pdb
REMARK  5 active torsions:
REMARK  status: ('A' for Active; 'I' for Inactive)
REMARK    1  A    between atoms: C_1  and  C_11
REMARK    2  A    between atoms: C_4  and  O_7
REMARK    3  A    between atoms: C_5  and  O_9
REMARK    4  A    between atoms: C_12  and  C_13
REMARK    5  A    between atoms: C_18  and  O_19
REMARK                            x       y       z     vdW  Elec       q    Type
REMARK                         _______ _______ _______ _____ _____    ______ ____
ROOT
ATOM      1  C   UNL     1      21.775  15.686  18.025  0.00  0.00    +0.000 A 
ATOM      2  C   UNL     1      21.371  16.523  16.986  0.00  0.00    +0.000 A 
ATOM      3  C   UNL     1      22.222  16.228  19.229  0.00  0.00    +0.000 A 
ATOM      4  C   UNL     1      22.260  17.612  19.386  0.00  0.00    +0.000 A 
ATOM      5  C   UNL     1      21.417  17.903  17.162  0.00  0.00    +0.000 A 
ATOM      6  C   UNL     1      21.859  18.459  18.358  0.00  0.00    +0.000 A 
ENDROOT
BRANCH   4   7
ATOM      7  O   UNL     1      22.692  18.170  20.553  0.00  0.00    +0.000 OA
ATOM      8  H   UNL     1      21.928  18.582  20.994  0.00  0.00    +0.000 HD
ENDBRANCH   4   7
BRANCH   5   9
ATOM      9  O   UNL     1      21.016  18.703  16.131  0.00  0.00    +0.000 OA
ATOM     10  H   UNL     1      21.512  19.538  16.188  0.00  0.00    +0.000 HD
ENDBRANCH   5   9
BRANCH   1  11
ATOM     11  C   UNL     1      21.733  14.271  17.857  0.00  0.00    +0.000 C 
ATOM     12  C   UNL     1      21.699  13.078  17.715  0.00  0.00    +0.000 C 
BRANCH  12  13
ATOM     13  C   UNL     1      21.658  11.663  17.548  0.00  0.00    +0.000 A 
ATOM     14  C   UNL     1      22.666  11.018  16.832  0.00  0.00    +0.000 A 
ATOM     15  C   UNL     1      20.609  10.927  18.100  0.00  0.00    +0.000 A 
ATOM     16  C   UNL     1      22.628   9.636  16.668  0.00  0.00    +0.000 A 
ATOM     17  C   UNL     1      20.567   9.545  17.937  0.00  0.00    +0.000 A 
ATOM     18  C   UNL     1      21.577   8.910  17.222  0.00  0.00    +0.000 A 
BRANCH  18  19
ATOM     19  O   UNL     1      21.515   7.555  17.076  0.00  0.00    +0.000 OA
ATOM     20  H   UNL     1      22.395   7.187  17.266  0.00  0.00    +0.000 HD
ENDBRANCH  18  19
ENDBRANCH  12  13
ENDBRANCH   1  11
TORSDOF 5
ENDMDL
