MODEL 1
REMARK VINA RESULT:      -6.6      0.000      0.000
REMARK  Name = 448438_Violaxanthin.pdbqt.pdb
REMARK  16 active torsions:
REMARK  status: ('A' for Active; 'I' for Inactive)
REMARK    1  A    between atoms: C_1  and  C_5
REMARK    2  A    between atoms: C_2  and  C_27
REMARK    3  A    between atoms: C_3  and  C_5
REMARK    4  A    between atoms: C_3  and  C_7
REMARK    5  A    between atoms: C_6  and  C_10
REMARK    6  A    between atoms: C_8  and  C_10
REMARK    7  A    between atoms: C_8  and  C_12
REMARK    8  A    between atoms: C_11  and  C_14
REMARK    9  A    between atoms: C_19  and  O_23
REMARK   10  A    between atoms: C_25  and  C_27
REMARK   11  A    between atoms: C_25  and  C_29
REMARK   12  A    between atoms: C_28  and  C_32
REMARK   13  A    between atoms: C_30  and  C_32
REMARK   14  A    between atoms: C_30  and  C_34
REMARK   15  A    between atoms: C_33  and  C_36
REMARK   16  A    between atoms: C_41  and  O_45
REMARK                            x       y       z     vdW  Elec       q    Type
REMARK                         _______ _______ _______ _____ _____    ______ ____
ROOT
ATOM      1  C   UNL     1      37.688 -24.320  -3.640  0.00  0.00    +0.000 C 
ATOM      2  C   UNL     1      37.163 -24.879  -2.718  0.00  0.00    +0.000 C 
ENDROOT
BRANCH   2   3
ATOM      3  C   UNL     1      36.491 -25.596  -1.541  0.00  0.00    +0.000 C 
BRANCH   3   4
ATOM      4  C   UNL     1      35.922 -26.199  -0.545  0.00  0.00    +0.000 C 
ATOM      5  C   UNL     1      34.445 -26.060  -0.334  0.00  0.00    +0.000 C 
BRANCH   4   7
ATOM      6  C   UNL     1      37.371 -27.551   1.163  0.00  0.00    +0.000 C 
ATOM      7  C   UNL     1      36.705 -26.930   0.379  0.00  0.00    +0.000 C 
BRANCH   6   8
ATOM      8  C   UNL     1      38.221 -28.344   2.163  0.00  0.00    +0.000 C 
BRANCH   8   9
ATOM      9  C   UNL     1      38.943 -29.012   3.009  0.00  0.00    +0.000 C 
ATOM     10  C   UNL     1      38.506 -30.375   3.450  0.00  0.00    +0.000 C 
BRANCH   9  12
ATOM     11  C   UNL     1      41.266 -28.069   3.767  0.00  0.00    +0.000 C 
ATOM     12  C   UNL     1      40.202 -28.505   3.416  0.00  0.00    +0.000 C 
BRANCH  11  14
ATOM     13  O   UNL     1      42.483 -27.234   5.630  0.00  0.00    +0.000 OA
ATOM     14  C   UNL     1      42.543 -27.525   4.206  0.00  0.00    +0.000 C 
ATOM     15  C   UNL     1      43.372 -28.287   5.262  0.00  0.00    +0.000 C 
ATOM     16  C   UNL     1      43.282 -26.475   3.311  0.00  0.00    +0.000 C 
ATOM     17  C   UNL     1      44.740 -27.910   5.404  0.00  0.00    +0.000 C 
ATOM     18  C   UNL     1      44.640 -26.315   3.850  0.00  0.00    +0.000 C 
ATOM     19  C   UNL     1      45.510 -26.913   4.782  0.00  0.00    +0.000 C 
ATOM     20  C   UNL     1      42.961 -29.653   5.818  0.00  0.00    +0.000 C 
ATOM     21  C   UNL     1      43.338 -27.089   1.891  0.00  0.00    +0.000 C 
ATOM     22  C   UNL     1      42.449 -25.177   3.373  0.00  0.00    +0.000 C 
BRANCH  19  23
ATOM     23  O   UNL     1      46.451 -26.206   5.468  0.00  0.00    +0.000 OA
ATOM     24  H   UNL     1      46.235 -26.110   6.413  0.00  0.00    +0.000 HD
ENDBRANCH  19  23
ENDBRANCH  11  14
ENDBRANCH   9  12
ENDBRANCH   8   9
ENDBRANCH   6   8
ENDBRANCH   4   7
ENDBRANCH   3   4
ENDBRANCH   2   3
BRANCH   1  25
ATOM     25  C   UNL     1      38.360 -23.604  -4.819  0.00  0.00    +0.000 C 
BRANCH  25  26
ATOM     26  C   UNL     1      38.928 -22.999  -5.814  0.00  0.00    +0.000 C 
ATOM     27  C   UNL     1      38.659 -23.456  -7.216  0.00  0.00    +0.000 C 
BRANCH  26  29
ATOM     28  C   UNL     1      40.505 -20.959  -5.379  0.00  0.00    +0.000 C 
ATOM     29  C   UNL     1      39.779 -21.895  -5.579  0.00  0.00    +0.000 C 
BRANCH  28  30
ATOM     30  C   UNL     1      41.438 -19.768  -5.124  0.00  0.00    +0.000 C 
BRANCH  30  31
ATOM     31  C   UNL     1      42.223 -18.758  -4.912  0.00  0.00    +0.000 C 
ATOM     32  C   UNL     1      43.521 -18.653  -5.652  0.00  0.00    +0.000 C 
BRANCH  31  34
ATOM     33  C   UNL     1      41.492 -16.866  -3.253  0.00  0.00    +0.000 C 
ATOM     34  C   UNL     1      41.830 -17.733  -4.016  0.00  0.00    +0.000 C 
BRANCH  33  36
ATOM     35  O   UNL     1      39.650 -15.588  -2.450  0.00  0.00    +0.000 OA
ATOM     36  C   UNL     1      41.082 -15.822  -2.326  0.00  0.00    +0.000 C 
ATOM     37  C   UNL     1      40.071 -16.149  -1.207  0.00  0.00    +0.000 C 
ATOM     38  C   UNL     1      41.982 -14.546  -2.157  0.00  0.00    +0.000 C 
ATOM     39  C   UNL     1      39.966 -15.217  -0.132  0.00  0.00    +0.000 C 
ATOM     40  C   UNL     1      41.500 -13.835  -0.971  0.00  0.00    +0.000 C 
ATOM     41  C   UNL     1      40.607 -13.990   0.106  0.00  0.00    +0.000 C 
ATOM     42  C   UNL     1      39.510 -17.551  -0.955  0.00  0.00    +0.000 C 
ATOM     43  C   UNL     1      41.837 -13.742  -3.469  0.00  0.00    +0.000 C 
ATOM     44  C   UNL     1      43.423 -15.077  -1.939  0.00  0.00    +0.000 C 
BRANCH  41  45
ATOM     45  O   UNL     1      40.922 -13.553   1.357  0.00  0.00    +0.000 OA
ATOM     46  H   UNL     1      40.333 -13.924   2.040  0.00  0.00    +0.000 HD
ENDBRANCH  41  45
ENDBRANCH  33  36
ENDBRANCH  31  34
ENDBRANCH  30  31
ENDBRANCH  28  30
ENDBRANCH  26  29
ENDBRANCH  25  26
ENDBRANCH   1  25
TORSDOF 16
ENDMDL
MODEL 2
REMARK VINA RESULT:      -6.6     47.295     49.873
REMARK  Name = 448438_Violaxanthin.pdbqt.pdb
REMARK  16 active torsions:
REMARK  status: ('A' for Active; 'I' for Inactive)
REMARK    1  A    between atoms: C_1  and  C_5
REMARK    2  A    between atoms: C_2  and  C_27
REMARK    3  A    between atoms: C_3  and  C_5
REMARK    4  A    between atoms: C_3  and  C_7
REMARK    5  A    between atoms: C_6  and  C_10
REMARK    6  A    between atoms: C_8  and  C_10
REMARK    7  A    between atoms: C_8  and  C_12
REMARK    8  A    between atoms: C_11  and  C_14
REMARK    9  A    between atoms: C_19  and  O_23
REMARK   10  A    between atoms: C_25  and  C_27
REMARK   11  A    between atoms: C_25  and  C_29
REMARK   12  A    between atoms: C_28  and  C_32
REMARK   13  A    between atoms: C_30  and  C_32
REMARK   14  A    between atoms: C_30  and  C_34
REMARK   15  A    between atoms: C_33  and  C_36
REMARK   16  A    between atoms: C_41  and  O_45
REMARK                            x       y       z     vdW  Elec       q    Type
REMARK                         _______ _______ _______ _____ _____    ______ ____
ROOT
ATOM      1  C   UNL     1      16.990  -5.062  38.665  0.00  0.00    +0.000 C 
ATOM      2  C   UNL     1      17.782  -5.847  39.106  0.00  0.00    +0.000 C 
ENDROOT
BRANCH   2   3
ATOM      3  C   UNL     1      18.795  -6.849  39.673  0.00  0.00    +0.000 C 
BRANCH   3   4
ATOM      4  C   UNL     1      19.652  -7.694  40.152  0.00  0.00    +0.000 C 
ATOM      5  C   UNL     1      20.610  -8.387  39.231  0.00  0.00    +0.000 C 
BRANCH   4   7
ATOM      6  C   UNL     1      19.626  -8.283  42.701  0.00  0.00    +0.000 C 
ATOM      7  C   UNL     1      19.638  -8.012  41.530  0.00  0.00    +0.000 C 
BRANCH   6   8
ATOM      8  C   UNL     1      19.609  -8.626  44.196  0.00  0.00    +0.000 C 
BRANCH   8   9
ATOM      9  C   UNL     1      19.592  -8.915  45.460  0.00  0.00    +0.000 C 
ATOM     10  C   UNL     1      18.324  -8.763  46.243  0.00  0.00    +0.000 C 
BRANCH   9  12
ATOM     11  C   UNL     1      21.703  -9.985  46.582  0.00  0.00    +0.000 C 
ATOM     12  C   UNL     1      20.736  -9.490  46.067  0.00  0.00    +0.000 C 
BRANCH  11  14
ATOM     13  O   UNL     1      22.526 -11.964  47.610  0.00  0.00    +0.000 OA
ATOM     14  C   UNL     1      22.861 -10.606  47.208  0.00  0.00    +0.000 C 
ATOM     15  C   UNL     1      23.492 -11.860  46.565  0.00  0.00    +0.000 C 
ATOM     16  C   UNL     1      23.733  -9.778  48.210  0.00  0.00    +0.000 C 
ATOM     17  C   UNL     1      24.800 -12.222  47.003  0.00  0.00    +0.000 C 
ATOM     18  C   UNL     1      24.961 -10.545  48.464  0.00  0.00    +0.000 C 
ATOM     19  C   UNL     1      25.652 -11.671  47.976  0.00  0.00    +0.000 C 
ATOM     20  C   UNL     1      23.014 -12.445  45.233  0.00  0.00    +0.000 C 
ATOM     21  C   UNL     1      24.069  -8.451  47.487  0.00  0.00    +0.000 C 
ATOM     22  C   UNL     1      22.874  -9.573  49.477  0.00  0.00    +0.000 C 
BRANCH  19  23
ATOM     23  O   UNL     1      26.430 -12.457  48.770  0.00  0.00    +0.000 OA
ATOM     24  H   UNL     1      26.381 -13.400  48.532  0.00  0.00    +0.000 HD
ENDBRANCH  19  23
ENDBRANCH  11  14
ENDBRANCH   9  12
ENDBRANCH   8   9
ENDBRANCH   6   8
ENDBRANCH   4   7
ENDBRANCH   3   4
ENDBRANCH   2   3
BRANCH   1  25
ATOM     25  C   UNL     1      15.977  -4.059  38.098  0.00  0.00    +0.000 C 
BRANCH  25  26
ATOM     26  C   UNL     1      15.121  -3.211  37.620  0.00  0.00    +0.000 C 
ATOM     27  C   UNL     1      13.760  -3.681  37.204  0.00  0.00    +0.000 C 
BRANCH  26  29
ATOM     28  C   UNL     1      15.751  -0.681  37.423  0.00  0.00    +0.000 C 
ATOM     29  C   UNL     1      15.462  -1.843  37.516  0.00  0.00    +0.000 C 
BRANCH  28  30
ATOM     30  C   UNL     1      16.120   0.803  37.298  0.00  0.00    +0.000 C 
BRANCH  30  31
ATOM     31  C   UNL     1      16.434   2.056  37.197  0.00  0.00    +0.000 C 
ATOM     32  C   UNL     1      16.978   2.788  38.385  0.00  0.00    +0.000 C 
BRANCH  31  34
ATOM     33  C   UNL     1      16.200   3.286  34.895  0.00  0.00    +0.000 C 
ATOM     34  C   UNL     1      16.307   2.719  35.950  0.00  0.00    +0.000 C 
BRANCH  33  36
ATOM     35  O   UNL     1      16.014   3.005  32.537  0.00  0.00    +0.000 OA
ATOM     36  C   UNL     1      16.075   3.977  33.620  0.00  0.00    +0.000 C 
ATOM     37  C   UNL     1      14.819   3.754  32.752  0.00  0.00    +0.000 C 
ATOM     38  C   UNL     1      16.939   5.261  33.353  0.00  0.00    +0.000 C 
ATOM     39  C   UNL     1      14.576   4.693  31.705  0.00  0.00    +0.000 C 
ATOM     40  C   UNL     1      16.396   5.901  32.153  0.00  0.00    +0.000 C 
ATOM     41  C   UNL     1      15.303   5.813  31.269  0.00  0.00    +0.000 C 
ATOM     42  C   UNL     1      13.632   2.889  33.184  0.00  0.00    +0.000 C 
ATOM     43  C   UNL     1      18.396   4.772  33.194  0.00  0.00    +0.000 C 
ATOM     44  C   UNL     1      16.744   6.162  34.600  0.00  0.00    +0.000 C 
BRANCH  41  45
ATOM     45  O   UNL     1      14.706   6.929  30.765  0.00  0.00    +0.000 OA
ATOM     46  H   UNL     1      14.617   7.635  31.431  0.00  0.00    +0.000 HD
ENDBRANCH  41  45
ENDBRANCH  33  36
ENDBRANCH  31  34
ENDBRANCH  30  31
ENDBRANCH  28  30
ENDBRANCH  26  29
ENDBRANCH  25  26
ENDBRANCH   1  25
TORSDOF 16
ENDMDL
MODEL 3
REMARK VINA RESULT:      -6.5     47.634     50.221
REMARK  Name = 448438_Violaxanthin.pdbqt.pdb
REMARK  16 active torsions:
REMARK  status: ('A' for Active; 'I' for Inactive)
REMARK    1  A    between atoms: C_1  and  C_5
REMARK    2  A    between atoms: C_2  and  C_27
REMARK    3  A    between atoms: C_3  and  C_5
REMARK    4  A    between atoms: C_3  and  C_7
REMARK    5  A    between atoms: C_6  and  C_10
REMARK    6  A    between atoms: C_8  and  C_10
REMARK    7  A    between atoms: C_8  and  C_12
REMARK    8  A    between atoms: C_11  and  C_14
REMARK    9  A    between atoms: C_19  and  O_23
REMARK   10  A    between atoms: C_25  and  C_27
REMARK   11  A    between atoms: C_25  and  C_29
REMARK   12  A    between atoms: C_28  and  C_32
REMARK   13  A    between atoms: C_30  and  C_32
REMARK   14  A    between atoms: C_30  and  C_34
REMARK   15  A    between atoms: C_33  and  C_36
REMARK   16  A    between atoms: C_41  and  O_45
REMARK                            x       y       z     vdW  Elec       q    Type
REMARK                         _______ _______ _______ _____ _____    ______ ____
ROOT
ATOM      1  C   UNL     1      17.208  -5.209  38.668  0.00  0.00    +0.000 C 
ATOM      2  C   UNL     1      17.968  -5.998  39.157  0.00  0.00    +0.000 C 
ENDROOT
BRANCH   2   3
ATOM      3  C   UNL     1      18.940  -7.004  39.784  0.00  0.00    +0.000 C 
BRANCH   3   4
ATOM      4  C   UNL     1      19.764  -7.853  40.314  0.00  0.00    +0.000 C 
ATOM      5  C   UNL     1      20.728  -8.600  39.442  0.00  0.00    +0.000 C 
BRANCH   4   7
ATOM      6  C   UNL     1      19.656  -8.354  42.879  0.00  0.00    +0.000 C 
ATOM      7  C   UNL     1      19.705  -8.124  41.701  0.00  0.00    +0.000 C 
BRANCH   6   8
ATOM      8  C   UNL     1      19.593  -8.646  44.384  0.00  0.00    +0.000 C 
BRANCH   8   9
ATOM      9  C   UNL     1      19.540  -8.889  45.656  0.00  0.00    +0.000 C 
ATOM     10  C   UNL     1      18.224  -8.850  46.371  0.00  0.00    +0.000 C 
BRANCH   9  12
ATOM     11  C   UNL     1      21.694  -9.679  46.921  0.00  0.00    +0.000 C 
ATOM     12  C   UNL     1      20.706  -9.312  46.342  0.00  0.00    +0.000 C 
BRANCH  11  14
ATOM     13  O   UNL     1      23.181  -9.253  48.725  0.00  0.00    +0.000 OA
ATOM     14  C   UNL     1      22.884 -10.147  47.616  0.00  0.00    +0.000 C 
ATOM     15  C   UNL     1      22.782 -10.572  49.096  0.00  0.00    +0.000 C 
ATOM     16  C   UNL     1      24.109 -10.660  46.787  0.00  0.00    +0.000 C 
ATOM     17  C   UNL     1      23.867 -11.333  49.626  0.00  0.00    +0.000 C 
ATOM     18  C   UNL     1      25.033 -11.313  47.726  0.00  0.00    +0.000 C 
ATOM     19  C   UNL     1      25.082 -11.756  49.062  0.00  0.00    +0.000 C 
ATOM     20  C   UNL     1      21.458 -10.614  49.863  0.00  0.00    +0.000 C 
ATOM     21  C   UNL     1      23.543 -11.695  45.786  0.00  0.00    +0.000 C 
ATOM     22  C   UNL     1      24.723  -9.424  46.094  0.00  0.00    +0.000 C 
BRANCH  19  23
ATOM     23  O   UNL     1      26.235 -11.779  49.787  0.00  0.00    +0.000 OA
ATOM     24  H   UNL     1      26.163 -11.288  50.625  0.00  0.00    +0.000 HD
ENDBRANCH  19  23
ENDBRANCH  11  14
ENDBRANCH   9  12
ENDBRANCH   8   9
ENDBRANCH   6   8
ENDBRANCH   4   7
ENDBRANCH   3   4
ENDBRANCH   2   3
BRANCH   1  25
ATOM     25  C   UNL     1      16.236  -4.202  38.042  0.00  0.00    +0.000 C 
BRANCH  25  26
ATOM     26  C   UNL     1      15.414  -3.351  37.512  0.00  0.00    +0.000 C 
ATOM     27  C   UNL     1      14.194  -3.841  36.792  0.00  0.00    +0.000 C 
BRANCH  26  29
ATOM     28  C   UNL     1      15.858  -0.784  37.739  0.00  0.00    +0.000 C 
ATOM     29  C   UNL     1      15.654  -1.963  37.637  0.00  0.00    +0.000 C 
BRANCH  28  30
ATOM     30  C   UNL     1      16.118   0.723  37.863  0.00  0.00    +0.000 C 
BRANCH  30  31
ATOM     31  C   UNL     1      16.341   1.995  37.971  0.00  0.00    +0.000 C 
ATOM     32  C   UNL     1      16.716   2.577  39.300  0.00  0.00    +0.000 C 
BRANCH  31  34
ATOM     33  C   UNL     1      16.218   3.525  35.848  0.00  0.00    +0.000 C 
ATOM     34  C   UNL     1      16.275   2.825  36.825  0.00  0.00    +0.000 C 
BRANCH  33  36
ATOM     35  O   UNL     1      16.706   5.679  34.958  0.00  0.00    +0.000 OA
ATOM     36  C   UNL     1      16.144   4.368  34.664  0.00  0.00    +0.000 C 
ATOM     37  C   UNL     1      17.444   4.896  34.022  0.00  0.00    +0.000 C 
ATOM     38  C   UNL     1      14.842   4.350  33.786  0.00  0.00    +0.000 C 
ATOM     39  C   UNL     1      17.352   5.412  32.695  0.00  0.00    +0.000 C 
ATOM     40  C   UNL     1      15.160   5.037  32.533  0.00  0.00    +0.000 C 
ATOM     41  C   UNL     1      16.257   5.571  31.829  0.00  0.00    +0.000 C 
ATOM     42  C   UNL     1      18.845   4.525  34.515  0.00  0.00    +0.000 C 
ATOM     43  C   UNL     1      13.751   5.056  34.624  0.00  0.00    +0.000 C 
ATOM     44  C   UNL     1      14.527   2.853  33.536  0.00  0.00    +0.000 C 
BRANCH  41  45
ATOM     45  O   UNL     1      16.361   5.446  30.477  0.00  0.00    +0.000 OA
ATOM     46  H   UNL     1      15.570   5.038  30.079  0.00  0.00    +0.000 HD
ENDBRANCH  41  45
ENDBRANCH  33  36
ENDBRANCH  31  34
ENDBRANCH  30  31
ENDBRANCH  28  30
ENDBRANCH  26  29
ENDBRANCH  25  26
ENDBRANCH   1  25
TORSDOF 16
ENDMDL
MODEL 4
REMARK VINA RESULT:      -6.5     23.279     29.557
REMARK  Name = 448438_Violaxanthin.pdbqt.pdb
REMARK  16 active torsions:
REMARK  status: ('A' for Active; 'I' for Inactive)
REMARK    1  A    between atoms: C_1  and  C_5
REMARK    2  A    between atoms: C_2  and  C_27
REMARK    3  A    between atoms: C_3  and  C_5
REMARK    4  A    between atoms: C_3  and  C_7
REMARK    5  A    between atoms: C_6  and  C_10
REMARK    6  A    between atoms: C_8  and  C_10
REMARK    7  A    between atoms: C_8  and  C_12
REMARK    8  A    between atoms: C_11  and  C_14
REMARK    9  A    between atoms: C_19  and  O_23
REMARK   10  A    between atoms: C_25  and  C_27
REMARK   11  A    between atoms: C_25  and  C_29
REMARK   12  A    between atoms: C_28  and  C_32
REMARK   13  A    between atoms: C_30  and  C_32
REMARK   14  A    between atoms: C_30  and  C_34
REMARK   15  A    between atoms: C_33  and  C_36
REMARK   16  A    between atoms: C_41  and  O_45
REMARK                            x       y       z     vdW  Elec       q    Type
REMARK                         _______ _______ _______ _____ _____    ______ ____
ROOT
ATOM      1  C   UNL     1      24.162   2.688   4.822  0.00  0.00    +0.000 C 
ATOM      2  C   UNL     1      23.408   1.776   5.020  0.00  0.00    +0.000 C 
ENDROOT
BRANCH   2   3
ATOM      3  C   UNL     1      22.442   0.613   5.273  0.00  0.00    +0.000 C 
BRANCH   3   4
ATOM      4  C   UNL     1      21.627  -0.372   5.488  0.00  0.00    +0.000 C 
ATOM      5  C   UNL     1      21.558  -1.509   4.513  0.00  0.00    +0.000 C 
BRANCH   4   7
ATOM      6  C   UNL     1      20.019  -0.312   7.550  0.00  0.00    +0.000 C 
ATOM      7  C   UNL     1      20.757  -0.340   6.603  0.00  0.00    +0.000 C 
BRANCH   6   8
ATOM      8  C   UNL     1      19.077  -0.276   8.760  0.00  0.00    +0.000 C 
BRANCH   8   9
ATOM      9  C   UNL     1      18.284  -0.246   9.786  0.00  0.00    +0.000 C 
ATOM     10  C   UNL     1      17.337   0.902   9.964  0.00  0.00    +0.000 C 
BRANCH   9  12
ATOM     11  C   UNL     1      18.172  -2.300  11.407  0.00  0.00    +0.000 C 
ATOM     12  C   UNL     1      18.227  -1.355  10.666  0.00  0.00    +0.000 C 
BRANCH  11  14
ATOM     13  O   UNL     1      17.802  -4.646  11.510  0.00  0.00    +0.000 OA
ATOM     14  C   UNL     1      18.087  -3.452  12.292  0.00  0.00    +0.000 C 
ATOM     15  C   UNL     1      19.089  -4.615  12.126  0.00  0.00    +0.000 C 
ATOM     16  C   UNL     1      17.336  -3.320  13.660  0.00  0.00    +0.000 C 
ATOM     17  C   UNL     1      19.189  -5.540  13.206  0.00  0.00    +0.000 C 
ATOM     18  C   UNL     1      17.641  -4.523  14.447  0.00  0.00    +0.000 C 
ATOM     19  C   UNL     1      18.501  -5.639  14.427  0.00  0.00    +0.000 C 
ATOM     20  C   UNL     1      20.244  -4.584  11.121  0.00  0.00    +0.000 C 
ATOM     21  C   UNL     1      17.924  -2.065  14.349  0.00  0.00    +0.000 C 
ATOM     22  C   UNL     1      15.835  -3.178  13.328  0.00  0.00    +0.000 C 
BRANCH  19  23
ATOM     23  O   UNL     1      18.152  -6.845  14.955  0.00  0.00    +0.000 OA
ATOM     24  H   UNL     1      17.244  -6.854  15.306  0.00  0.00    +0.000 HD
ENDBRANCH  19  23
ENDBRANCH  11  14
ENDBRANCH   9  12
ENDBRANCH   8   9
ENDBRANCH   6   8
ENDBRANCH   4   7
ENDBRANCH   3   4
ENDBRANCH   2   3
BRANCH   1  25
ATOM     25  C   UNL     1      25.127   3.852   4.569  0.00  0.00    +0.000 C 
BRANCH  25  26
ATOM     26  C   UNL     1      25.943   4.837   4.355  0.00  0.00    +0.000 C 
ATOM     27  C   UNL     1      25.467   6.249   4.520  0.00  0.00    +0.000 C 
BRANCH  26  29
ATOM     28  C   UNL     1      28.425   4.356   3.687  0.00  0.00    +0.000 C 
ATOM     29  C   UNL     1      27.284   4.578   3.992  0.00  0.00    +0.000 C 
BRANCH  28  30
ATOM     30  C   UNL     1      29.882   4.069   3.304  0.00  0.00    +0.000 C 
BRANCH  30  31
ATOM     31  C   UNL     1      31.112   3.824   2.976  0.00  0.00    +0.000 C 
ATOM     32  C   UNL     1      32.114   4.938   2.949  0.00  0.00    +0.000 C 
BRANCH  31  34
ATOM     33  C   UNL     1      31.858   1.369   2.444  0.00  0.00    +0.000 C 
ATOM     34  C   UNL     1      31.517   2.497   2.691  0.00  0.00    +0.000 C 
BRANCH  33  36
ATOM     35  O   UNL     1      31.664  -0.420   0.885  0.00  0.00    +0.000 OA
ATOM     36  C   UNL     1      32.268   0.007   2.140  0.00  0.00    +0.000 C 
ATOM     37  C   UNL     1      33.083  -0.277   0.861  0.00  0.00    +0.000 C 
ATOM     38  C   UNL     1      32.305  -1.061   3.291  0.00  0.00    +0.000 C 
ATOM     39  C   UNL     1      33.751  -1.535   0.780  0.00  0.00    +0.000 C 
ATOM     40  C   UNL     1      33.028  -2.225   2.774  0.00  0.00    +0.000 C 
ATOM     41  C   UNL     1      33.790  -2.630   1.661  0.00  0.00    +0.000 C 
ATOM     42  C   UNL     1      33.565   0.816  -0.096  0.00  0.00    +0.000 C 
ATOM     43  C   UNL     1      30.831  -1.352   3.654  0.00  0.00    +0.000 C 
ATOM     44  C   UNL     1      33.085  -0.394   4.454  0.00  0.00    +0.000 C 
BRANCH  41  45
ATOM     45  O   UNL     1      34.887  -3.423   1.804  0.00  0.00    +0.000 OA
ATOM     46  H   UNL     1      34.662  -4.315   2.125  0.00  0.00    +0.000 HD
ENDBRANCH  41  45
ENDBRANCH  33  36
ENDBRANCH  31  34
ENDBRANCH  30  31
ENDBRANCH  28  30
ENDBRANCH  26  29
ENDBRANCH  25  26
ENDBRANCH   1  25
TORSDOF 16
ENDMDL
MODEL 5
REMARK VINA RESULT:      -6.1     44.969     51.432
REMARK  Name = 448438_Violaxanthin.pdbqt.pdb
REMARK  16 active torsions:
REMARK  status: ('A' for Active; 'I' for Inactive)
REMARK    1  A    between atoms: C_1  and  C_5
REMARK    2  A    between atoms: C_2  and  C_27
REMARK    3  A    between atoms: C_3  and  C_5
REMARK    4  A    between atoms: C_3  and  C_7
REMARK    5  A    between atoms: C_6  and  C_10
REMARK    6  A    between atoms: C_8  and  C_10
REMARK    7  A    between atoms: C_8  and  C_12
REMARK    8  A    between atoms: C_11  and  C_14
REMARK    9  A    between atoms: C_19  and  O_23
REMARK   10  A    between atoms: C_25  and  C_27
REMARK   11  A    between atoms: C_25  and  C_29
REMARK   12  A    between atoms: C_28  and  C_32
REMARK   13  A    between atoms: C_30  and  C_32
REMARK   14  A    between atoms: C_30  and  C_34
REMARK   15  A    between atoms: C_33  and  C_36
REMARK   16  A    between atoms: C_41  and  O_45
REMARK                            x       y       z     vdW  Elec       q    Type
REMARK                         _______ _______ _______ _____ _____    ______ ____
ROOT
ATOM      1  C   UNL     1      16.167  13.953  28.606  0.00  0.00    +0.000 C 
ATOM      2  C   UNL     1      16.189  14.448  27.513  0.00  0.00    +0.000 C 
ENDROOT
BRANCH   2   3
ATOM      3  C   UNL     1      16.218  15.077  26.115  0.00  0.00    +0.000 C 
BRANCH   3   4
ATOM      4  C   UNL     1      16.240  15.609  24.934  0.00  0.00    +0.000 C 
ATOM      5  C   UNL     1      15.509  16.893  24.680  0.00  0.00    +0.000 C 
BRANCH   4   7
ATOM      6  C   UNL     1      17.450  14.378  22.968  0.00  0.00    +0.000 C 
ATOM      7  C   UNL     1      16.894  14.944  23.871  0.00  0.00    +0.000 C 
BRANCH   6   8
ATOM      8  C   UNL     1      18.162  13.656  21.817  0.00  0.00    +0.000 C 
BRANCH   8   9
ATOM      9  C   UNL     1      18.765  13.044  20.846  0.00  0.00    +0.000 C 
ATOM     10  C   UNL     1      19.659  13.810  19.920  0.00  0.00    +0.000 C 
BRANCH   9  12
ATOM     11  C   UNL     1      18.604  10.437  20.653  0.00  0.00    +0.000 C 
ATOM     12  C   UNL     1      18.675  11.634  20.738  0.00  0.00    +0.000 C 
BRANCH  11  14
ATOM     13  O   UNL     1      17.605   8.480  21.560  0.00  0.00    +0.000 OA
ATOM     14  C   UNL     1      18.539   8.986  20.565  0.00  0.00    +0.000 C 
ATOM     15  C   UNL     1      17.202   8.305  20.203  0.00  0.00    +0.000 C 
ATOM     16  C   UNL     1      19.858   8.165  20.366  0.00  0.00    +0.000 C 
ATOM     17  C   UNL     1      17.262   6.939  19.796  0.00  0.00    +0.000 C 
ATOM     18  C   UNL     1      19.472   6.784  20.040  0.00  0.00    +0.000 C 
ATOM     19  C   UNL     1      18.331   6.034  19.695  0.00  0.00    +0.000 C 
ATOM     20  C   UNL     1      15.938   9.089  19.837  0.00  0.00    +0.000 C 
ATOM     21  C   UNL     1      20.588   8.815  19.167  0.00  0.00    +0.000 C 
ATOM     22  C   UNL     1      20.650   8.276  21.687  0.00  0.00    +0.000 C 
BRANCH  19  23
ATOM     23  O   UNL     1      18.188   4.720  20.025  0.00  0.00    +0.000 OA
ATOM     24  H   UNL     1      18.210   4.132  19.249  0.00  0.00    +0.000 HD
ENDBRANCH  19  23
ENDBRANCH  11  14
ENDBRANCH   9  12
ENDBRANCH   8   9
ENDBRANCH   6   8
ENDBRANCH   4   7
ENDBRANCH   3   4
ENDBRANCH   2   3
BRANCH   1  25
ATOM     25  C   UNL     1      16.138  13.322  30.003  0.00  0.00    +0.000 C 
BRANCH  25  26
ATOM     26  C   UNL     1      16.115  12.789  31.184  0.00  0.00    +0.000 C 
ATOM     27  C   UNL     1      14.809  12.359  31.782  0.00  0.00    +0.000 C 
BRANCH  26  29
ATOM     28  C   UNL     1      18.345  12.419  32.498  0.00  0.00    +0.000 C 
ATOM     29  C   UNL     1      17.320  12.591  31.896  0.00  0.00    +0.000 C 
BRANCH  28  30
ATOM     30  C   UNL     1      19.655  12.193  33.264  0.00  0.00    +0.000 C 
BRANCH  30  31
ATOM     31  C   UNL     1      20.761  12.007  33.913  0.00  0.00    +0.000 C 
ATOM     32  C   UNL     1      21.977  11.514  33.190  0.00  0.00    +0.000 C 
BRANCH  31  34
ATOM     33  C   UNL     1      20.885  12.579  36.467  0.00  0.00    +0.000 C 
ATOM     34  C   UNL     1      20.832  12.316  35.294  0.00  0.00    +0.000 C 
BRANCH  33  36
ATOM     35  O   UNL     1      19.741  12.414  38.549  0.00  0.00    +0.000 OA
ATOM     36  C   UNL     1      20.944  12.897  37.886  0.00  0.00    +0.000 C 
ATOM     37  C   UNL     1      20.949  11.755  38.924  0.00  0.00    +0.000 C 
ATOM     38  C   UNL     1      21.468  14.307  38.338  0.00  0.00    +0.000 C 
ATOM     39  C   UNL     1      21.353  12.084  40.252  0.00  0.00    +0.000 C 
ATOM     40  C   UNL     1      21.702  14.236  39.782  0.00  0.00    +0.000 C 
ATOM     41  C   UNL     1      21.735  13.303  40.837  0.00  0.00    +0.000 C 
ATOM     42  C   UNL     1      20.969  10.271  38.551  0.00  0.00    +0.000 C 
ATOM     43  C   UNL     1      20.374  15.321  37.932  0.00  0.00    +0.000 C 
ATOM     44  C   UNL     1      22.797  14.524  37.569  0.00  0.00    +0.000 C 
BRANCH  41  45
ATOM     45  O   UNL     1      22.665  13.387  41.828  0.00  0.00    +0.000 OA
ATOM     46  H   UNL     1      22.305  13.780  42.643  0.00  0.00    +0.000 HD
ENDBRANCH  41  45
ENDBRANCH  33  36
ENDBRANCH  31  34
ENDBRANCH  30  31
ENDBRANCH  28  30
ENDBRANCH  26  29
ENDBRANCH  25  26
ENDBRANCH   1  25
TORSDOF 16
ENDMDL
MODEL 6
REMARK VINA RESULT:      -6.0     43.937     50.537
REMARK  Name = 448438_Violaxanthin.pdbqt.pdb
REMARK  16 active torsions:
REMARK  status: ('A' for Active; 'I' for Inactive)
REMARK    1  A    between atoms: C_1  and  C_5
REMARK    2  A    between atoms: C_2  and  C_27
REMARK    3  A    between atoms: C_3  and  C_5
REMARK    4  A    between atoms: C_3  and  C_7
REMARK    5  A    between atoms: C_6  and  C_10
REMARK    6  A    between atoms: C_8  and  C_10
REMARK    7  A    between atoms: C_8  and  C_12
REMARK    8  A    between atoms: C_11  and  C_14
REMARK    9  A    between atoms: C_19  and  O_23
REMARK   10  A    between atoms: C_25  and  C_27
REMARK   11  A    between atoms: C_25  and  C_29
REMARK   12  A    between atoms: C_28  and  C_32
REMARK   13  A    between atoms: C_30  and  C_32
REMARK   14  A    between atoms: C_30  and  C_34
REMARK   15  A    between atoms: C_33  and  C_36
REMARK   16  A    between atoms: C_41  and  O_45
REMARK                            x       y       z     vdW  Elec       q    Type
REMARK                         _______ _______ _______ _____ _____    ______ ____
ROOT
ATOM      1  C   UNL     1      15.873  14.639  28.799  0.00  0.00    +0.000 C 
ATOM      2  C   UNL     1      15.960  15.052  27.676  0.00  0.00    +0.000 C 
ENDROOT
BRANCH   2   3
ATOM      3  C   UNL     1      16.068  15.579  26.240  0.00  0.00    +0.000 C 
BRANCH   3   4
ATOM      4  C   UNL     1      16.160  16.026  25.027  0.00  0.00    +0.000 C 
ATOM      5  C   UNL     1      15.387  17.245  24.622  0.00  0.00    +0.000 C 
BRANCH   4   7
ATOM      6  C   UNL     1      17.591  14.733  23.260  0.00  0.00    +0.000 C 
ATOM      7  C   UNL     1      16.934  15.326  24.072  0.00  0.00    +0.000 C 
BRANCH   6   8
ATOM      8  C   UNL     1      18.428  13.975  22.222  0.00  0.00    +0.000 C 
BRANCH   8   9
ATOM      9  C   UNL     1      19.138  13.333  21.347  0.00  0.00    +0.000 C 
ATOM     10  C   UNL     1      20.221  14.044  20.596  0.00  0.00    +0.000 C 
BRANCH   9  12
ATOM     11  C   UNL     1      18.829  10.746  21.071  0.00  0.00    +0.000 C 
ATOM     12  C   UNL     1      18.970  11.934  21.193  0.00  0.00    +0.000 C 
BRANCH  11  14
ATOM     13  O   UNL     1      17.789   8.825  22.008  0.00  0.00    +0.000 OA
ATOM     14  C   UNL     1      18.663   9.306  20.948  0.00  0.00    +0.000 C 
ATOM     15  C   UNL     1      17.258   8.721  20.688  0.00  0.00    +0.000 C 
ATOM     16  C   UNL     1      19.903   8.413  20.608  0.00  0.00    +0.000 C 
ATOM     17  C   UNL     1      17.194   7.369  20.238  0.00  0.00    +0.000 C 
ATOM     18  C   UNL     1      19.403   7.071  20.278  0.00  0.00    +0.000 C 
ATOM     19  C   UNL     1      18.190   6.404  20.016  0.00  0.00    +0.000 C 
ATOM     20  C   UNL     1      16.020   9.594  20.460  0.00  0.00    +0.000 C 
ATOM     21  C   UNL     1      20.566   9.058  19.367  0.00  0.00    +0.000 C 
ATOM     22  C   UNL     1      20.814   8.430  21.855  0.00  0.00    +0.000 C 
BRANCH  19  23
ATOM     23  O   UNL     1      17.993   5.091  20.319  0.00  0.00    +0.000 OA
ATOM     24  H   UNL     1      18.287   4.492  19.610  0.00  0.00    +0.000 HD
ENDBRANCH  19  23
ENDBRANCH  11  14
ENDBRANCH   9  12
ENDBRANCH   8   9
ENDBRANCH   6   8
ENDBRANCH   4   7
ENDBRANCH   3   4
ENDBRANCH   2   3
BRANCH   1  25
ATOM     25  C   UNL     1      15.763  14.112  30.235  0.00  0.00    +0.000 C 
BRANCH  25  26
ATOM     26  C   UNL     1      15.670  13.666  31.448  0.00  0.00    +0.000 C 
ATOM     27  C   UNL     1      14.391  13.840  32.211  0.00  0.00    +0.000 C 
BRANCH  26  29
ATOM     28  C   UNL     1      17.691  12.422  32.546  0.00  0.00    +0.000 C 
ATOM     29  C   UNL     1      16.764  12.995  32.041  0.00  0.00    +0.000 C 
BRANCH  28  30
ATOM     30  C   UNL     1      18.871  11.686  33.195  0.00  0.00    +0.000 C 
BRANCH  30  31
ATOM     31  C   UNL     1      19.866  11.066  33.747  0.00  0.00    +0.000 C 
ATOM     32  C   UNL     1      21.227  11.692  33.751  0.00  0.00    +0.000 C 
BRANCH  31  34
ATOM     33  C   UNL     1      19.470   8.761  34.929  0.00  0.00    +0.000 C 
ATOM     34  C   UNL     1      19.655   9.820  34.388  0.00  0.00    +0.000 C 
BRANCH  33  36
ATOM     35  O   UNL     1      20.290   7.234  36.562  0.00  0.00    +0.000 OA
ATOM     36  C   UNL     1      19.245   7.478  35.578  0.00  0.00    +0.000 C 
ATOM     37  C   UNL     1      18.982   7.427  37.097  0.00  0.00    +0.000 C 
ATOM     38  C   UNL     1      18.805   6.244  34.711  0.00  0.00    +0.000 C 
ATOM     39  C   UNL     1      18.430   6.221  37.623  0.00  0.00    +0.000 C 
ATOM     40  C   UNL     1      18.365   5.202  35.641  0.00  0.00    +0.000 C 
ATOM     41  C   UNL     1      18.092   5.004  37.009  0.00  0.00    +0.000 C 
ATOM     42  C   UNL     1      18.867   8.673  37.980  0.00  0.00    +0.000 C 
ATOM     43  C   UNL     1      20.040   5.849  33.870  0.00  0.00    +0.000 C 
ATOM     44  C   UNL     1      17.625   6.746  33.840  0.00  0.00    +0.000 C 
BRANCH  41  45
ATOM     45  O   UNL     1      17.045   4.236  37.419  0.00  0.00    +0.000 OA
ATOM     46  H   UNL     1      16.427   4.725  37.992  0.00  0.00    +0.000 HD
ENDBRANCH  41  45
ENDBRANCH  33  36
ENDBRANCH  31  34
ENDBRANCH  30  31
ENDBRANCH  28  30
ENDBRANCH  26  29
ENDBRANCH  25  26
ENDBRANCH   1  25
TORSDOF 16
ENDMDL
MODEL 7
REMARK VINA RESULT:      -6.0     46.209     53.594
REMARK  Name = 448438_Violaxanthin.pdbqt.pdb
REMARK  16 active torsions:
REMARK  status: ('A' for Active; 'I' for Inactive)
REMARK    1  A    between atoms: C_1  and  C_5
REMARK    2  A    between atoms: C_2  and  C_27
REMARK    3  A    between atoms: C_3  and  C_5
REMARK    4  A    between atoms: C_3  and  C_7
REMARK    5  A    between atoms: C_6  and  C_10
REMARK    6  A    between atoms: C_8  and  C_10
REMARK    7  A    between atoms: C_8  and  C_12
REMARK    8  A    between atoms: C_11  and  C_14
REMARK    9  A    between atoms: C_19  and  O_23
REMARK   10  A    between atoms: C_25  and  C_27
REMARK   11  A    between atoms: C_25  and  C_29
REMARK   12  A    between atoms: C_28  and  C_32
REMARK   13  A    between atoms: C_30  and  C_32
REMARK   14  A    between atoms: C_30  and  C_34
REMARK   15  A    between atoms: C_33  and  C_36
REMARK   16  A    between atoms: C_41  and  O_45
REMARK                            x       y       z     vdW  Elec       q    Type
REMARK                         _______ _______ _______ _____ _____    ______ ____
ROOT
ATOM      1  C   UNL     1      20.510  22.458  24.375  0.00  0.00    +0.000 C 
ATOM      2  C   UNL     1      20.723  23.189  25.302  0.00  0.00    +0.000 C 
ENDROOT
BRANCH   2   3
ATOM      3  C   UNL     1      20.994  24.122  26.488  0.00  0.00    +0.000 C 
BRANCH   3   4
ATOM      4  C   UNL     1      21.220  24.912  27.490  0.00  0.00    +0.000 C 
ATOM      5  C   UNL     1      20.696  26.316  27.466  0.00  0.00    +0.000 C 
BRANCH   4   7
ATOM      6  C   UNL     1      22.692  24.096  29.492  0.00  0.00    +0.000 C 
ATOM      7  C   UNL     1      22.016  24.470  28.573  0.00  0.00    +0.000 C 
BRANCH   6   8
ATOM      8  C   UNL     1      23.558  23.619  30.666  0.00  0.00    +0.000 C 
BRANCH   8   9
ATOM      9  C   UNL     1      24.290  23.213  31.656  0.00  0.00    +0.000 C 
ATOM     10  C   UNL     1      23.640  22.708  32.908  0.00  0.00    +0.000 C 
BRANCH   9  12
ATOM     11  C   UNL     1      26.889  23.060  31.371  0.00  0.00    +0.000 C 
ATOM     12  C   UNL     1      25.697  23.133  31.506  0.00  0.00    +0.000 C 
BRANCH  11  14
ATOM     13  O   UNL     1      28.672  21.598  30.792  0.00  0.00    +0.000 OA
ATOM     14  C   UNL     1      28.329  22.956  31.188  0.00  0.00    +0.000 C 
ATOM     15  C   UNL     1      28.896  22.597  29.798  0.00  0.00    +0.000 C 
ATOM     16  C   UNL     1      29.289  23.645  32.216  0.00  0.00    +0.000 C 
ATOM     17  C   UNL     1      30.285  22.841  29.584  0.00  0.00    +0.000 C 
ATOM     18  C   UNL     1      30.642  23.614  31.644  0.00  0.00    +0.000 C 
ATOM     19  C   UNL     1      31.297  23.321  30.431  0.00  0.00    +0.000 C 
ATOM     20  C   UNL     1      28.016  22.428  28.556  0.00  0.00    +0.000 C 
ATOM     21  C   UNL     1      28.795  25.106  32.346  0.00  0.00    +0.000 C 
ATOM     22  C   UNL     1      29.169  22.849  33.533  0.00  0.00    +0.000 C 
BRANCH  19  23
ATOM     23  O   UNL     1      32.565  22.827  30.381  0.00  0.00    +0.000 OA
ATOM     24  H   UNL     1      32.626  21.997  29.875  0.00  0.00    +0.000 HD
ENDBRANCH  19  23
ENDBRANCH  11  14
ENDBRANCH   9  12
ENDBRANCH   8   9
ENDBRANCH   6   8
ENDBRANCH   4   7
ENDBRANCH   3   4
ENDBRANCH   2   3
BRANCH   1  25
ATOM     25  C   UNL     1      20.238  21.525  23.188  0.00  0.00    +0.000 C 
BRANCH  25  26
ATOM     26  C   UNL     1      20.009  20.736  22.186  0.00  0.00    +0.000 C 
ATOM     27  C   UNL     1      20.233  21.224  20.786  0.00  0.00    +0.000 C 
BRANCH  26  29
ATOM     28  C   UNL     1      19.201  18.285  22.606  0.00  0.00    +0.000 C 
ATOM     29  C   UNL     1      19.574  19.410  22.414  0.00  0.00    +0.000 C 
BRANCH  28  30
ATOM     30  C   UNL     1      18.718  16.849  22.849  0.00  0.00    +0.000 C 
BRANCH  30  31
ATOM     31  C   UNL     1      18.306  15.637  23.052  0.00  0.00    +0.000 C 
ATOM     32  C   UNL     1      17.561  15.301  24.308  0.00  0.00    +0.000 C 
BRANCH  31  34
ATOM     33  C   UNL     1      18.698  13.804  21.221  0.00  0.00    +0.000 C 
ATOM     34  C   UNL     1      18.519  14.643  22.064  0.00  0.00    +0.000 C 
BRANCH  33  36
ATOM     35  O   UNL     1      19.040  13.431  18.894  0.00  0.00    +0.000 OA
ATOM     36  C   UNL     1      18.917  12.793  20.198  0.00  0.00    +0.000 C 
ATOM     37  C   UNL     1      20.226  12.806  19.380  0.00  0.00    +0.000 C 
ATOM     38  C   UNL     1      18.089  11.459  20.243  0.00  0.00    +0.000 C 
ATOM     39  C   UNL     1      20.551  11.623  18.651  0.00  0.00    +0.000 C 
ATOM     40  C   UNL     1      18.720  10.530  19.303  0.00  0.00    +0.000 C 
ATOM     41  C   UNL     1      19.869  10.405  18.498  0.00  0.00    +0.000 C 
ATOM     42  C   UNL     1      21.371  13.792  19.629  0.00  0.00    +0.000 C 
ATOM     43  C   UNL     1      16.640  11.841  19.866  0.00  0.00    +0.000 C 
ATOM     44  C   UNL     1      18.210  10.943  21.700  0.00  0.00    +0.000 C 
BRANCH  41  45
ATOM     45  O   UNL     1      20.511   9.212  18.361  0.00  0.00    +0.000 OA
ATOM     46  H   UNL     1      20.027   8.593  17.784  0.00  0.00    +0.000 HD
ENDBRANCH  41  45
ENDBRANCH  33  36
ENDBRANCH  31  34
ENDBRANCH  30  31
ENDBRANCH  28  30
ENDBRANCH  26  29
ENDBRANCH  25  26
ENDBRANCH   1  25
TORSDOF 16
ENDMDL
MODEL 8
REMARK VINA RESULT:      -5.8     49.907     52.715
REMARK  Name = 448438_Violaxanthin.pdbqt.pdb
REMARK  16 active torsions:
REMARK  status: ('A' for Active; 'I' for Inactive)
REMARK    1  A    between atoms: C_1  and  C_5
REMARK    2  A    between atoms: C_2  and  C_27
REMARK    3  A    between atoms: C_3  and  C_5
REMARK    4  A    between atoms: C_3  and  C_7
REMARK    5  A    between atoms: C_6  and  C_10
REMARK    6  A    between atoms: C_8  and  C_10
REMARK    7  A    between atoms: C_8  and  C_12
REMARK    8  A    between atoms: C_11  and  C_14
REMARK    9  A    between atoms: C_19  and  O_23
REMARK   10  A    between atoms: C_25  and  C_27
REMARK   11  A    between atoms: C_25  and  C_29
REMARK   12  A    between atoms: C_28  and  C_32
REMARK   13  A    between atoms: C_30  and  C_32
REMARK   14  A    between atoms: C_30  and  C_34
REMARK   15  A    between atoms: C_33  and  C_36
REMARK   16  A    between atoms: C_41  and  O_45
REMARK                            x       y       z     vdW  Elec       q    Type
REMARK                         _______ _______ _______ _____ _____    ______ ____
ROOT
ATOM      1  C   UNL     1      15.729  -1.658  37.105  0.00  0.00    +0.000 C 
ATOM      2  C   UNL     1      15.711  -2.858  37.088  0.00  0.00    +0.000 C 
ENDROOT
BRANCH   2   3
ATOM      3  C   UNL     1      15.688  -4.390  37.068  0.00  0.00    +0.000 C 
BRANCH   3   4
ATOM      4  C   UNL     1      15.671  -5.686  37.051  0.00  0.00    +0.000 C 
ATOM      5  C   UNL     1      14.568  -6.408  36.336  0.00  0.00    +0.000 C 
BRANCH   4   7
ATOM      6  C   UNL     1      17.483  -7.037  38.368  0.00  0.00    +0.000 C 
ATOM      7  C   UNL     1      16.651  -6.416  37.763  0.00  0.00    +0.000 C 
BRANCH   6   8
ATOM      8  C   UNL     1      18.544  -7.830  39.140  0.00  0.00    +0.000 C 
BRANCH   8   9
ATOM      9  C   UNL     1      19.440  -8.504  39.793  0.00  0.00    +0.000 C 
ATOM     10  C   UNL     1      20.775  -8.772  39.169  0.00  0.00    +0.000 C 
BRANCH   9  12
ATOM     11  C   UNL     1      18.998  -9.203  42.278  0.00  0.00    +0.000 C 
ATOM     12  C   UNL     1      19.198  -8.879  41.138  0.00  0.00    +0.000 C 
BRANCH  11  14
ATOM     13  O   UNL     1      19.840 -10.501  44.082  0.00  0.00    +0.000 OA
ATOM     14  C   UNL     1      18.766  -9.618  43.654  0.00  0.00    +0.000 C 
ATOM     15  C   UNL     1      19.790  -9.239  44.745  0.00  0.00    +0.000 C 
ATOM     16  C   UNL     1      17.320 -10.009  44.109  0.00  0.00    +0.000 C 
ATOM     17  C   UNL     1      19.364  -9.360  46.101  0.00  0.00    +0.000 C 
ATOM     18  C   UNL     1      17.332 -10.112  45.575  0.00  0.00    +0.000 C 
ATOM     19  C   UNL     1      18.164  -9.816  46.673  0.00  0.00    +0.000 C 
ATOM     20  C   UNL     1      21.013  -8.359  44.472  0.00  0.00    +0.000 C 
ATOM     21  C   UNL     1      16.403  -8.844  43.661  0.00  0.00    +0.000 C 
ATOM     22  C   UNL     1      16.983 -11.344  43.410  0.00  0.00    +0.000 C 
BRANCH  19  23
ATOM     23  O   UNL     1      18.153 -10.547  47.821  0.00  0.00    +0.000 OA
ATOM     24  H   UNL     1      18.090  -9.993  48.620  0.00  0.00    +0.000 HD
ENDBRANCH  19  23
ENDBRANCH  11  14
ENDBRANCH   9  12
ENDBRANCH   8   9
ENDBRANCH   6   8
ENDBRANCH   4   7
ENDBRANCH   3   4
ENDBRANCH   2   3
BRANCH   1  25
ATOM     25  C   UNL     1      15.752  -0.125  37.125  0.00  0.00    +0.000 C 
BRANCH  25  26
ATOM     26  C   UNL     1      15.771   1.171  37.142  0.00  0.00    +0.000 C 
ATOM     27  C   UNL     1      15.213   1.940  35.983  0.00  0.00    +0.000 C 
BRANCH  26  29
ATOM     28  C   UNL     1      16.740   2.436  39.216  0.00  0.00    +0.000 C 
ATOM     29  C   UNL     1      16.294   1.856  38.263  0.00  0.00    +0.000 C 
BRANCH  28  30
ATOM     30  C   UNL     1      17.314   3.170  40.435  0.00  0.00    +0.000 C 
BRANCH  30  31
ATOM     31  C   UNL     1      17.794   3.790  41.467  0.00  0.00    +0.000 C 
ATOM     32  C   UNL     1      18.690   4.975  41.276  0.00  0.00    +0.000 C 
BRANCH  31  34
ATOM     33  C   UNL     1      17.129   3.023  43.882  0.00  0.00    +0.000 C 
ATOM     34  C   UNL     1      17.431   3.376  42.772  0.00  0.00    +0.000 C 
BRANCH  33  36
ATOM     35  O   UNL     1      17.963   2.530  46.057  0.00  0.00    +0.000 OA
ATOM     36  C   UNL     1      16.769   2.599  45.227  0.00  0.00    +0.000 C 
ATOM     37  C   UNL     1      17.027   3.543  46.420  0.00  0.00    +0.000 C 
ATOM     38  C   UNL     1      15.725   1.441  45.415  0.00  0.00    +0.000 C 
ATOM     39  C   UNL     1      16.356   3.245  47.643  0.00  0.00    +0.000 C 
ATOM     40  C   UNL     1      15.337   1.437  46.827  0.00  0.00    +0.000 C 
ATOM     41  C   UNL     1      15.492   2.197  48.003  0.00  0.00    +0.000 C 
ATOM     42  C   UNL     1      17.583   4.962  46.273  0.00  0.00    +0.000 C 
ATOM     43  C   UNL     1      16.435   0.145  44.960  0.00  0.00    +0.000 C 
ATOM     44  C   UNL     1      14.522   1.812  44.509  0.00  0.00    +0.000 C 
BRANCH  41  45
ATOM     45  O   UNL     1      14.467   2.356  48.885  0.00  0.00    +0.000 OA
ATOM     46  H   UNL     1      14.403   3.269  49.220  0.00  0.00    +0.000 HD
ENDBRANCH  41  45
ENDBRANCH  33  36
ENDBRANCH  31  34
ENDBRANCH  30  31
ENDBRANCH  28  30
ENDBRANCH  26  29
ENDBRANCH  25  26
ENDBRANCH   1  25
TORSDOF 16
ENDMDL
MODEL 9
REMARK VINA RESULT:      -5.8     42.681     49.109
REMARK  Name = 448438_Violaxanthin.pdbqt.pdb
REMARK  16 active torsions:
REMARK  status: ('A' for Active; 'I' for Inactive)
REMARK    1  A    between atoms: C_1  and  C_5
REMARK    2  A    between atoms: C_2  and  C_27
REMARK    3  A    between atoms: C_3  and  C_5
REMARK    4  A    between atoms: C_3  and  C_7
REMARK    5  A    between atoms: C_6  and  C_10
REMARK    6  A    between atoms: C_8  and  C_10
REMARK    7  A    between atoms: C_8  and  C_12
REMARK    8  A    between atoms: C_11  and  C_14
REMARK    9  A    between atoms: C_19  and  O_23
REMARK   10  A    between atoms: C_25  and  C_27
REMARK   11  A    between atoms: C_25  and  C_29
REMARK   12  A    between atoms: C_28  and  C_32
REMARK   13  A    between atoms: C_30  and  C_32
REMARK   14  A    between atoms: C_30  and  C_34
REMARK   15  A    between atoms: C_33  and  C_36
REMARK   16  A    between atoms: C_41  and  O_45
REMARK                            x       y       z     vdW  Elec       q    Type
REMARK                         _______ _______ _______ _____ _____    ______ ____
ROOT
ATOM      1  C   UNL     1      14.757   9.585  26.486  0.00  0.00    +0.000 C 
ATOM      2  C   UNL     1      14.633   9.645  25.294  0.00  0.00    +0.000 C 
ENDROOT
BRANCH   2   3
ATOM      3  C   UNL     1      14.478   9.724  23.771  0.00  0.00    +0.000 C 
BRANCH   3   4
ATOM      4  C   UNL     1      14.344   9.792  22.484  0.00  0.00    +0.000 C 
ATOM      5  C   UNL     1      12.978   9.937  21.883  0.00  0.00    +0.000 C 
BRANCH   4   7
ATOM      6  C   UNL     1      16.437   9.547  20.935  0.00  0.00    +0.000 C 
ATOM      7  C   UNL     1      15.476   9.660  21.647  0.00  0.00    +0.000 C 
BRANCH   6   8
ATOM      8  C   UNL     1      17.665   9.402  20.027  0.00  0.00    +0.000 C 
BRANCH   8   9
ATOM      9  C   UNL     1      18.703   9.275  19.260  0.00  0.00    +0.000 C 
ATOM     10  C   UNL     1      19.409   7.957  19.170  0.00  0.00    +0.000 C 
BRANCH   9  12
ATOM     11  C   UNL     1      19.429  11.256  17.707  0.00  0.00    +0.000 C 
ATOM     12  C   UNL     1      19.092  10.347  18.418  0.00  0.00    +0.000 C 
BRANCH  11  14
ATOM     13  O   UNL     1      20.212  11.852  15.543  0.00  0.00    +0.000 OA
ATOM     14  C   UNL     1      19.858  12.359  16.861  0.00  0.00    +0.000 C 
ATOM     15  C   UNL     1      19.060  12.692  15.582  0.00  0.00    +0.000 C 
ATOM     16  C   UNL     1      20.791  13.468  17.453  0.00  0.00    +0.000 C 
ATOM     17  C   UNL     1      19.302  13.964  14.983  0.00  0.00    +0.000 C 
ATOM     18  C   UNL     1      20.834  14.572  16.483  0.00  0.00    +0.000 C 
ATOM     19  C   UNL     1      20.189  15.003  15.307  0.00  0.00    +0.000 C 
ATOM     20  C   UNL     1      17.766  11.971  15.195  0.00  0.00    +0.000 C 
ATOM     21  C   UNL     1      20.117  13.935  18.766  0.00  0.00    +0.000 C 
ATOM     22  C   UNL     1      22.169  12.810  17.683  0.00  0.00    +0.000 C 
BRANCH  19  23
ATOM     23  O   UNL     1      20.824  15.727  14.344  0.00  0.00    +0.000 OA
ATOM     24  H   UNL     1      20.633  15.406  13.445  0.00  0.00    +0.000 HD
ENDBRANCH  19  23
ENDBRANCH  11  14
ENDBRANCH   9  12
ENDBRANCH   8   9
ENDBRANCH   6   8
ENDBRANCH   4   7
ENDBRANCH   3   4
ENDBRANCH   2   3
BRANCH   1  25
ATOM     25  C   UNL     1      14.914   9.507  28.010  0.00  0.00    +0.000 C 
BRANCH  25  26
ATOM     26  C   UNL     1      15.046   9.440  29.297  0.00  0.00    +0.000 C 
ATOM     27  C   UNL     1      14.650  10.609  30.148  0.00  0.00    +0.000 C 
BRANCH  26  29
ATOM     28  C   UNL     1      15.953   7.253  30.406  0.00  0.00    +0.000 C 
ATOM     29  C   UNL     1      15.537   8.259  29.898  0.00  0.00    +0.000 C 
BRANCH  28  30
ATOM     30  C   UNL     1      16.480   5.964  31.051  0.00  0.00    +0.000 C 
BRANCH  30  31
ATOM     31  C   UNL     1      16.929   4.878  31.598  0.00  0.00    +0.000 C 
ATOM     32  C   UNL     1      17.052   3.627  30.783  0.00  0.00    +0.000 C 
BRANCH  31  34
ATOM     33  C   UNL     1      17.700   4.903  34.102  0.00  0.00    +0.000 C 
ATOM     34  C   UNL     1      17.347   4.889  32.952  0.00  0.00    +0.000 C 
BRANCH  33  36
ATOM     35  O   UNL     1      19.570   4.781  35.571  0.00  0.00    +0.000 OA
ATOM     36  C   UNL     1      18.122   4.925  35.494  0.00  0.00    +0.000 C 
ATOM     37  C   UNL     1      19.060   6.046  35.990  0.00  0.00    +0.000 C 
ATOM     38  C   UNL     1      17.288   4.135  36.564  0.00  0.00    +0.000 C 
ATOM     39  C   UNL     1      19.166   6.230  37.400  0.00  0.00    +0.000 C 
ATOM     40  C   UNL     1      17.752   4.575  37.882  0.00  0.00    +0.000 C 
ATOM     41  C   UNL     1      18.583   5.543  38.478  0.00  0.00    +0.000 C 
ATOM     42  C   UNL     1      19.530   7.208  35.111  0.00  0.00    +0.000 C 
ATOM     43  C   UNL     1      17.539   2.636  36.283  0.00  0.00    +0.000 C 
ATOM     44  C   UNL     1      15.811   4.546  36.329  0.00  0.00    +0.000 C 
BRANCH  41  45
ATOM     45  O   UNL     1      18.234   6.156  39.643  0.00  0.00    +0.000 OA
ATOM     46  H   UNL     1      18.158   5.529  40.385  0.00  0.00    +0.000 HD
ENDBRANCH  41  45
ENDBRANCH  33  36
ENDBRANCH  31  34
ENDBRANCH  30  31
ENDBRANCH  28  30
ENDBRANCH  26  29
ENDBRANCH  25  26
ENDBRANCH   1  25
TORSDOF 16
ENDMDL
