MODEL 1
REMARK VINA RESULT:      -8.6      0.000      0.000
REMARK  Name = 490561_Nocardiopsis.pdbqt.pdb
REMARK  3 active torsions:
REMARK  status: ('A' for Active; 'I' for Inactive)
REMARK    1  A    between atoms: C_7  and  O_32
REMARK    2  A    between atoms: C_7  and  C_35
REMARK    3  A    between atoms: C_35  and  O_36
REMARK                            x       y       z     vdW  Elec       q    Type
REMARK                         _______ _______ _______ _____ _____    ______ ____
ROOT
ATOM      1  O   UNL     1      42.933  -1.754  47.614  0.00  0.00    +0.000 OA
ATOM      2  O   UNL     1      39.722  -7.728  44.338  0.00  0.00    +0.000 OA
ATOM      3  N   UNL     1      44.193  -2.977  46.031  0.00  0.00    +0.000 N 
ATOM      4  N   UNL     1      41.221  -2.746  46.378  0.00  0.00    +0.000 N 
ATOM      5  N   UNL     1      41.977  -8.121  43.946  0.00  0.00    +0.000 N 
ATOM      6  C   UNL     1      44.058  -1.653  46.672  0.00  0.00    +0.000 C 
ATOM      7  C   UNL     1      43.614  -0.508  45.663  0.00  0.00    +0.000 C 
ATOM      8  C   UNL     1      41.793  -1.563  46.813  0.00  0.00    +0.000 C 
ATOM      9  C   UNL     1      42.167  -0.631  45.814  0.00  0.00    +0.000 C 
ATOM     10  C   UNL     1      43.259  -3.946  45.765  0.00  0.00    +0.000 A 
ATOM     11  C   UNL     1      41.877  -3.854  45.937  0.00  0.00    +0.000 A 
ATOM     12  C   UNL     1      43.669  -5.146  45.177  0.00  0.00    +0.000 A 
ATOM     13  C   UNL     1      41.140  -4.959  45.496  0.00  0.00    +0.000 A 
ATOM     14  C   UNL     1      45.300  -1.295  47.554  0.00  0.00    +0.000 C 
ATOM     15  C   UNL     1      45.342  -3.595  45.477  0.00  0.00    +0.000 A 
ATOM     16  C   UNL     1      39.887  -3.139  46.160  0.00  0.00    +0.000 A 
ATOM     17  C   UNL     1      45.045  -4.922  44.985  0.00  0.00    +0.000 A 
ATOM     18  C   UNL     1      42.955  -6.272  44.749  0.00  0.00    +0.000 A 
ATOM     19  C   UNL     1      41.541  -6.182  44.920  0.00  0.00    +0.000 A 
ATOM     20  C   UNL     1      39.816  -4.490  45.650  0.00  0.00    +0.000 A 
ATOM     21  C   UNL     1      43.206  -7.581  44.093  0.00  0.00    +0.000 C 
ATOM     22  C   UNL     1      46.644  -3.081  45.358  0.00  0.00    +0.000 A 
ATOM     23  C   UNL     1      40.888  -7.367  44.407  0.00  0.00    +0.000 C 
ATOM     24  C   UNL     1      38.721  -2.396  46.393  0.00  0.00    +0.000 A 
ATOM     25  C   UNL     1      46.088  -5.675  44.410  0.00  0.00    +0.000 A 
ATOM     26  C   UNL     1      38.541  -5.028  45.386  0.00  0.00    +0.000 A 
ATOM     27  C   UNL     1      47.643  -3.866  44.783  0.00  0.00    +0.000 A 
ATOM     28  C   UNL     1      47.375  -5.144  44.321  0.00  0.00    +0.000 A 
ATOM     29  C   UNL     1      37.485  -2.982  46.120  0.00  0.00    +0.000 A 
ATOM     30  C   UNL     1      37.393  -4.274  45.626  0.00  0.00    +0.000 A 
ATOM     31  H   UNL     1      41.828  -9.025  43.523  0.00  0.00    +0.000 HD
ENDROOT
BRANCH   7  32
ATOM     32  O   UNL     1      43.960  -0.747  44.290  0.00  0.00    +0.000 OA
ATOM     33  H   UNL     1      43.949   0.121  43.831  0.00  0.00    +0.000 HD
ENDBRANCH   7  32
BRANCH   7  35
ATOM     34  O   UNL     1      43.577   1.448  47.053  0.00  0.00    +0.000 OA
ATOM     35  C   UNL     1      44.112   0.866  46.107  0.00  0.00    +0.000 C 
BRANCH  35  36
ATOM     36  O   UNL     1      45.194   1.272  45.377  0.00  0.00    +0.000 OA
ATOM     37  C   UNL     1      46.152   2.068  46.021  0.00  0.00    +0.000 C 
ENDBRANCH  35  36
ENDBRANCH   7  35
TORSDOF 3
ENDMDL
MODEL 2
REMARK VINA RESULT:      -8.5     36.664     37.774
REMARK  Name = 490561_Nocardiopsis.pdbqt.pdb
REMARK  3 active torsions:
REMARK  status: ('A' for Active; 'I' for Inactive)
REMARK    1  A    between atoms: C_7  and  O_32
REMARK    2  A    between atoms: C_7  and  C_35
REMARK    3  A    between atoms: C_35  and  O_36
REMARK                            x       y       z     vdW  Elec       q    Type
REMARK                         _______ _______ _______ _____ _____    ______ ____
ROOT
ATOM      1  O   UNL     1      19.731  12.849  21.244  0.00  0.00    +0.000 OA
ATOM      2  O   UNL     1      17.413   5.687  20.982  0.00  0.00    +0.000 OA
ATOM      3  N   UNL     1      20.296  11.556  19.347  0.00  0.00    +0.000 N 
ATOM      4  N   UNL     1      18.054  11.229  21.315  0.00  0.00    +0.000 N 
ATOM      5  N   UNL     1      19.117   5.697  19.404  0.00  0.00    +0.000 N 
ATOM      6  C   UNL     1      20.097  12.941  19.822  0.00  0.00    +0.000 C 
ATOM      7  C   UNL     1      18.851  13.662  19.149  0.00  0.00    +0.000 C 
ATOM      8  C   UNL     1      18.351  12.578  21.229  0.00  0.00    +0.000 C 
ATOM      9  C   UNL     1      17.826  13.277  20.115  0.00  0.00    +0.000 C 
ATOM     10  C   UNL     1      19.731  10.375  19.757  0.00  0.00    +0.000 A 
ATOM     11  C   UNL     1      18.700  10.211  20.683  0.00  0.00    +0.000 A 
ATOM     12  C   UNL     1      20.136   9.180  19.155  0.00  0.00    +0.000 A 
ATOM     13  C   UNL     1      18.244   8.898  20.850  0.00  0.00    +0.000 A 
ATOM     14  C   UNL     1      21.422  13.771  19.792  0.00  0.00    +0.000 C 
ATOM     15  C   UNL     1      21.114  11.075  18.294  0.00  0.00    +0.000 A 
ATOM     16  C   UNL     1      17.014  10.517  21.941  0.00  0.00    +0.000 A 
ATOM     17  C   UNL     1      21.051   9.635  18.188  0.00  0.00    +0.000 A 
ATOM     18  C   UNL     1      19.712   7.856  19.323  0.00  0.00    +0.000 A 
ATOM     19  C   UNL     1      18.655   7.683  20.266  0.00  0.00    +0.000 A 
ATOM     20  C   UNL     1      17.127   9.097  21.693  0.00  0.00    +0.000 A 
ATOM     21  C   UNL     1      19.990   6.506  18.768  0.00  0.00    +0.000 C 
ATOM     22  C   UNL     1      21.915  11.807  17.401  0.00  0.00    +0.000 A 
ATOM     23  C   UNL     1      18.253   6.295  20.335  0.00  0.00    +0.000 C 
ATOM     24  C   UNL     1      15.974  11.029  22.731  0.00  0.00    +0.000 A 
ATOM     25  C   UNL     1      21.818   9.000  17.191  0.00  0.00    +0.000 A 
ATOM     26  C   UNL     1      16.155   8.250  22.261  0.00  0.00    +0.000 A 
ATOM     27  C   UNL     1      22.658  11.132  16.432  0.00  0.00    +0.000 A 
ATOM     28  C   UNL     1      22.617   9.751  16.330  0.00  0.00    +0.000 A 
ATOM     29  C   UNL     1      15.044  10.142  23.274  0.00  0.00    +0.000 A 
ATOM     30  C   UNL     1      15.131   8.777  23.046  0.00  0.00    +0.000 A 
ATOM     31  H   UNL     1      19.070   4.705  19.230  0.00  0.00    +0.000 HD
ENDROOT
BRANCH   7  32
ATOM     32  O   UNL     1      18.486  13.156  17.857  0.00  0.00    +0.000 OA
ATOM     33  H   UNL     1      19.318  13.007  17.356  0.00  0.00    +0.000 HD
ENDBRANCH   7  32
BRANCH   7  35
ATOM     34  O   UNL     1      19.496  15.718  18.089  0.00  0.00    +0.000 OA
ATOM     35  C   UNL     1      19.033  15.178  19.097  0.00  0.00    +0.000 C 
BRANCH  35  36
ATOM     36  O   UNL     1      18.579  15.782  20.236  0.00  0.00    +0.000 OA
ATOM     37  C   UNL     1      19.469  16.610  20.933  0.00  0.00    +0.000 C 
ENDBRANCH  35  36
ENDBRANCH   7  35
TORSDOF 3
ENDMDL
MODEL 3
REMARK VINA RESULT:      -8.2     32.803     33.983
REMARK  Name = 490561_Nocardiopsis.pdbqt.pdb
REMARK  3 active torsions:
REMARK  status: ('A' for Active; 'I' for Inactive)
REMARK    1  A    between atoms: C_7  and  O_32
REMARK    2  A    between atoms: C_7  and  C_35
REMARK    3  A    between atoms: C_35  and  O_36
REMARK                            x       y       z     vdW  Elec       q    Type
REMARK                         _______ _______ _______ _____ _____    ______ ____
ROOT
ATOM      1  O   UNL     1      39.710   1.001  11.935  0.00  0.00    +0.000 OA
ATOM      2  O   UNL     1      41.678   6.467  16.729  0.00  0.00    +0.000 OA
ATOM      3  N   UNL     1      38.005   2.077  13.170  0.00  0.00    +0.000 N 
ATOM      4  N   UNL     1      40.749   3.033  12.419  0.00  0.00    +0.000 N 
ATOM      5  N   UNL     1      39.560   5.898  17.494  0.00  0.00    +0.000 N 
ATOM      6  C   UNL     1      38.272   1.311  11.934  0.00  0.00    +0.000 C 
ATOM      7  C   UNL     1      38.062   2.164  10.610  0.00  0.00    +0.000 C 
ATOM      8  C   UNL     1      40.315   2.165  11.431  0.00  0.00    +0.000 C 
ATOM      9  C   UNL     1      39.416   2.691  10.471  0.00  0.00    +0.000 C 
ATOM     10  C   UNL     1      38.810   2.913  13.901  0.00  0.00    +0.000 A 
ATOM     11  C   UNL     1      40.093   3.350  13.569  0.00  0.00    +0.000 A 
ATOM     12  C   UNL     1      38.312   3.485  15.074  0.00  0.00    +0.000 A 
ATOM     13  C   UNL     1      40.659   4.280  14.448  0.00  0.00    +0.000 A 
ATOM     14  C   UNL     1      37.552  -0.078  11.934  0.00  0.00    +0.000 C 
ATOM     15  C   UNL     1      36.808   2.180  13.923  0.00  0.00    +0.000 A 
ATOM     16  C   UNL     1      41.862   3.887  12.519  0.00  0.00    +0.000 A 
ATOM     17  C   UNL     1      36.990   3.005  15.095  0.00  0.00    +0.000 A 
ATOM     18  C   UNL     1      38.867   4.397  15.981  0.00  0.00    +0.000 A 
ATOM     19  C   UNL     1      40.177   4.851  15.644  0.00  0.00    +0.000 A 
ATOM     20  C   UNL     1      41.840   4.633  13.758  0.00  0.00    +0.000 A 
ATOM     21  C   UNL     1      38.490   5.122  17.222  0.00  0.00    +0.000 C 
ATOM     22  C   UNL     1      35.552   1.610  13.656  0.00  0.00    +0.000 A 
ATOM     23  C   UNL     1      40.646   5.822  16.609  0.00  0.00    +0.000 C 
ATOM     24  C   UNL     1      42.911   4.048  11.601  0.00  0.00    +0.000 A 
ATOM     25  C   UNL     1      35.891   3.200  15.957  0.00  0.00    +0.000 A 
ATOM     26  C   UNL     1      42.898   5.531  14.004  0.00  0.00    +0.000 A 
ATOM     27  C   UNL     1      34.496   1.831  14.540  0.00  0.00    +0.000 A 
ATOM     28  C   UNL     1      34.661   2.608  15.676  0.00  0.00    +0.000 A 
ATOM     29  C   UNL     1      43.935   4.946  11.901  0.00  0.00    +0.000 A 
ATOM     30  C   UNL     1      43.932   5.676  13.081  0.00  0.00    +0.000 A 
ATOM     31  H   UNL     1      39.597   6.513  18.292  0.00  0.00    +0.000 HD
ENDROOT
BRANCH   7  32
ATOM     32  O   UNL     1      37.146   3.262  10.737  0.00  0.00    +0.000 OA
ATOM     33  H   UNL     1      36.323   2.909  11.140  0.00  0.00    +0.000 HD
ENDBRANCH   7  32
BRANCH   7  35
ATOM     34  O   UNL     1      36.495   1.003   9.209  0.00  0.00    +0.000 OA
ATOM     35  C   UNL     1      37.677   1.283   9.422  0.00  0.00    +0.000 C 
BRANCH  35  36
ATOM     36  O   UNL     1      38.767   0.940   8.672  0.00  0.00    +0.000 OA
ATOM     37  C   UNL     1      38.870  -0.390   8.243  0.00  0.00    +0.000 C 
ENDBRANCH  35  36
ENDBRANCH   7  35
TORSDOF 3
ENDMDL
MODEL 4
REMARK VINA RESULT:      -8.2     32.664     33.677
REMARK  Name = 490561_Nocardiopsis.pdbqt.pdb
REMARK  3 active torsions:
REMARK  status: ('A' for Active; 'I' for Inactive)
REMARK    1  A    between atoms: C_7  and  O_32
REMARK    2  A    between atoms: C_7  and  C_35
REMARK    3  A    between atoms: C_35  and  O_36
REMARK                            x       y       z     vdW  Elec       q    Type
REMARK                         _______ _______ _______ _____ _____    ______ ____
ROOT
ATOM      1  O   UNL     1      37.107   3.711  12.797  0.00  0.00    +0.000 OA
ATOM      2  O   UNL     1      44.595   3.436  13.561  0.00  0.00    +0.000 OA
ATOM      3  N   UNL     1      38.235   1.756  12.093  0.00  0.00    +0.000 N 
ATOM      4  N   UNL     1      39.047   3.849  14.086  0.00  0.00    +0.000 N 
ATOM      5  N   UNL     1      44.210   1.759  12.001  0.00  0.00    +0.000 N 
ATOM      6  C   UNL     1      36.928   2.272  12.550  0.00  0.00    +0.000 C 
ATOM      7  C   UNL     1      36.482   1.692  13.961  0.00  0.00    +0.000 C 
ATOM      8  C   UNL     1      37.665   3.774  14.087  0.00  0.00    +0.000 C 
ATOM      9  C   UNL     1      37.084   2.709  14.817  0.00  0.00    +0.000 C 
ATOM     10  C   UNL     1      39.512   2.175  12.368  0.00  0.00    +0.000 A 
ATOM     11  C   UNL     1      39.899   3.157  13.281  0.00  0.00    +0.000 A 
ATOM     12  C   UNL     1      40.589   1.524  11.759  0.00  0.00    +0.000 A 
ATOM     13  C   UNL     1      41.280   3.324  13.437  0.00  0.00    +0.000 A 
ATOM     14  C   UNL     1      35.835   2.180  11.435  0.00  0.00    +0.000 C 
ATOM     15  C   UNL     1      38.522   0.646  11.261  0.00  0.00    +0.000 A 
ATOM     16  C   UNL     1      39.968   4.521  14.910  0.00  0.00    +0.000 A 
ATOM     17  C   UNL     1      39.942   0.513  11.025  0.00  0.00    +0.000 A 
ATOM     18  C   UNL     1      41.975   1.689  11.882  0.00  0.00    +0.000 A 
ATOM     19  C   UNL     1      42.375   2.689  12.817  0.00  0.00    +0.000 A 
ATOM     20  C   UNL     1      41.330   4.236  14.515  0.00  0.00    +0.000 A 
ATOM     21  C   UNL     1      43.229   1.089  11.361  0.00  0.00    +0.000 C 
ATOM     22  C   UNL     1      37.630  -0.278  10.691  0.00  0.00    +0.000 A 
ATOM     23  C   UNL     1      43.818   2.753  12.910  0.00  0.00    +0.000 C 
ATOM     24  C   UNL     1      39.695   5.383  15.983  0.00  0.00    +0.000 A 
ATOM     25  C   UNL     1      40.392  -0.542  10.206  0.00  0.00    +0.000 A 
ATOM     26  C   UNL     1      42.368   4.844  15.248  0.00  0.00    +0.000 A 
ATOM     27  C   UNL     1      38.124  -1.304   9.886  0.00  0.00    +0.000 A 
ATOM     28  C   UNL     1      39.481  -1.433   9.640  0.00  0.00    +0.000 A 
ATOM     29  C   UNL     1      40.764   5.962  16.668  0.00  0.00    +0.000 A 
ATOM     30  C   UNL     1      42.078   5.700  16.309  0.00  0.00    +0.000 A 
ATOM     31  H   UNL     1      45.189   1.567  11.848  0.00  0.00    +0.000 HD
ENDROOT
BRANCH   7  32
ATOM     32  O   UNL     1      37.044   0.413  14.292  0.00  0.00    +0.000 OA
ATOM     33  H   UNL     1      37.951   0.573  14.634  0.00  0.00    +0.000 HD
ENDBRANCH   7  32
BRANCH   7  35
ATOM     34  O   UNL     1      34.318   2.711  14.170  0.00  0.00    +0.000 OA
ATOM     35  C   UNL     1      34.962   1.661  14.107  0.00  0.00    +0.000 C 
BRANCH  35  36
ATOM     36  O   UNL     1      34.479   0.382  14.098  0.00  0.00    +0.000 OA
ATOM     37  C   UNL     1      33.505   0.047  15.049  0.00  0.00    +0.000 C 
ENDBRANCH  35  36
ENDBRANCH   7  35
TORSDOF 3
ENDMDL
MODEL 5
REMARK VINA RESULT:      -8.1     45.352     47.205
REMARK  Name = 490561_Nocardiopsis.pdbqt.pdb
REMARK  3 active torsions:
REMARK  status: ('A' for Active; 'I' for Inactive)
REMARK    1  A    between atoms: C_7  and  O_32
REMARK    2  A    between atoms: C_7  and  C_35
REMARK    3  A    between atoms: C_35  and  O_36
REMARK                            x       y       z     vdW  Elec       q    Type
REMARK                         _______ _______ _______ _____ _____    ______ ____
ROOT
ATOM      1  O   UNL     1      22.520  -3.018   4.353  0.00  0.00    +0.000 OA
ATOM      2  O   UNL     1      23.923  -0.695  -2.673  0.00  0.00    +0.000 OA
ATOM      3  N   UNL     1      24.340  -1.552   3.999  0.00  0.00    +0.000 N 
ATOM      4  N   UNL     1      21.868  -2.000   2.358  0.00  0.00    +0.000 N 
ATOM      5  N   UNL     1      25.941  -0.254  -1.611  0.00  0.00    +0.000 N 
ATOM      6  C   UNL     1      23.375  -2.021   5.015  0.00  0.00    +0.000 C 
ATOM      7  C   UNL     1      22.359  -0.893   5.485  0.00  0.00    +0.000 C 
ATOM      8  C   UNL     1      21.551  -2.252   3.681  0.00  0.00    +0.000 C 
ATOM      9  C   UNL     1      21.305  -1.124   4.502  0.00  0.00    +0.000 C 
ATOM     10  C   UNL     1      24.234  -1.456   2.635  0.00  0.00    +0.000 A 
ATOM     11  C   UNL     1      23.094  -1.678   1.861  0.00  0.00    +0.000 A 
ATOM     12  C   UNL     1      25.333  -1.011   1.895  0.00  0.00    +0.000 A 
ATOM     13  C   UNL     1      23.235  -1.418   0.493  0.00  0.00    +0.000 A 
ATOM     14  C   UNL     1      24.076  -2.792   6.182  0.00  0.00    +0.000 C 
ATOM     15  C   UNL     1      25.647  -1.031   4.173  0.00  0.00    +0.000 A 
ATOM     16  C   UNL     1      21.089  -1.896   1.191  0.00  0.00    +0.000 A 
ATOM     17  C   UNL     1      26.271  -0.729   2.905  0.00  0.00    +0.000 A 
ATOM     18  C   UNL     1      25.504  -0.766   0.526  0.00  0.00    +0.000 A 
ATOM     19  C   UNL     1      24.340  -0.987  -0.269  0.00  0.00    +0.000 A 
ATOM     20  C   UNL     1      21.904  -1.570   0.043  0.00  0.00    +0.000 A 
ATOM     21  C   UNL     1      26.550  -0.275  -0.407  0.00  0.00    +0.000 C 
ATOM     22  C   UNL     1      26.343  -0.787   5.370  0.00  0.00    +0.000 A 
ATOM     23  C   UNL     1      24.599  -0.663  -1.655  0.00  0.00    +0.000 C 
ATOM     24  C   UNL     1      19.704  -2.084   1.061  0.00  0.00    +0.000 A 
ATOM     25  C   UNL     1      27.581  -0.209   2.906  0.00  0.00    +0.000 A 
ATOM     26  C   UNL     1      21.262  -1.436  -1.204  0.00  0.00    +0.000 A 
ATOM     27  C   UNL     1      27.638  -0.274   5.319  0.00  0.00    +0.000 A 
ATOM     28  C   UNL     1      28.253   0.006   4.109  0.00  0.00    +0.000 A 
ATOM     29  C   UNL     1      19.123  -1.946  -0.200  0.00  0.00    +0.000 A 
ATOM     30  C   UNL     1      19.886  -1.629  -1.315  0.00  0.00    +0.000 A 
ATOM     31  H   UNL     1      26.411   0.040  -2.453  0.00  0.00    +0.000 HD
ENDROOT
BRANCH   7  32
ATOM     32  O   UNL     1      22.842   0.451   5.341  0.00  0.00    +0.000 OA
ATOM     33  H   UNL     1      23.082   0.575   4.396  0.00  0.00    +0.000 HD
ENDBRANCH   7  32
BRANCH   7  35
ATOM     34  O   UNL     1      21.002  -1.984   7.137  0.00  0.00    +0.000 OA
ATOM     35  C   UNL     1      21.864  -1.132   6.910  0.00  0.00    +0.000 C 
BRANCH  35  36
ATOM     36  O   UNL     1      22.525  -0.348   7.814  0.00  0.00    +0.000 OA
ATOM     37  C   UNL     1      22.129  -0.426   9.156  0.00  0.00    +0.000 C 
ENDBRANCH  35  36
ENDBRANCH   7  35
TORSDOF 3
ENDMDL
MODEL 6
REMARK VINA RESULT:      -8.1     36.713     38.005
REMARK  Name = 490561_Nocardiopsis.pdbqt.pdb
REMARK  3 active torsions:
REMARK  status: ('A' for Active; 'I' for Inactive)
REMARK    1  A    between atoms: C_7  and  O_32
REMARK    2  A    between atoms: C_7  and  C_35
REMARK    3  A    between atoms: C_35  and  O_36
REMARK                            x       y       z     vdW  Elec       q    Type
REMARK                         _______ _______ _______ _____ _____    ______ ____
ROOT
ATOM      1  O   UNL     1      18.516  11.260  22.384  0.00  0.00    +0.000 OA
ATOM      2  O   UNL     1      21.867   7.218  16.984  0.00  0.00    +0.000 OA
ATOM      3  N   UNL     1      19.259  12.383  20.440  0.00  0.00    +0.000 N 
ATOM      4  N   UNL     1      18.544   9.498  20.855  0.00  0.00    +0.000 N 
ATOM      5  N   UNL     1      22.553   9.375  16.463  0.00  0.00    +0.000 N 
ATOM      6  C   UNL     1      18.299  12.460  21.561  0.00  0.00    +0.000 C 
ATOM      7  C   UNL     1      16.783  12.342  21.098  0.00  0.00    +0.000 C 
ATOM      8  C   UNL     1      17.782  10.255  21.729  0.00  0.00    +0.000 C 
ATOM      9  C   UNL     1      16.638  10.892  21.189  0.00  0.00    +0.000 C 
ATOM     10  C   UNL     1      19.817  11.301  19.808  0.00  0.00    +0.000 A 
ATOM     11  C   UNL     1      19.503   9.956  20.004  0.00  0.00    +0.000 A 
ATOM     12  C   UNL     1      20.747  11.514  18.786  0.00  0.00    +0.000 A 
ATOM     13  C   UNL     1      20.156   9.054  19.157  0.00  0.00    +0.000 A 
ATOM     14  C   UNL     1      18.596  13.668  22.510  0.00  0.00    +0.000 C 
ATOM     15  C   UNL     1      19.843  13.429  19.682  0.00  0.00    +0.000 A 
ATOM     16  C   UNL     1      18.520   8.137  20.499  0.00  0.00    +0.000 A 
ATOM     17  C   UNL     1      20.770  12.917  18.698  0.00  0.00    +0.000 A 
ATOM     18  C   UNL     1      21.430  10.628  17.942  0.00  0.00    +0.000 A 
ATOM     19  C   UNL     1      21.109   9.252  18.136  0.00  0.00    +0.000 A 
ATOM     20  C   UNL     1      19.511   7.842  19.488  0.00  0.00    +0.000 A 
ATOM     21  C   UNL     1      22.395  10.669  16.814  0.00  0.00    +0.000 C 
ATOM     22  C   UNL     1      19.620  14.813  19.779  0.00  0.00    +0.000 A 
ATOM     23  C   UNL     1      21.824   8.422  17.191  0.00  0.00    +0.000 C 
ATOM     24  C   UNL     1      17.694   7.126  21.014  0.00  0.00    +0.000 A 
ATOM     25  C   UNL     1      21.443  13.835  17.867  0.00  0.00    +0.000 A 
ATOM     26  C   UNL     1      19.611   6.513  19.032  0.00  0.00    +0.000 A 
ATOM     27  C   UNL     1      20.311  15.681  18.935  0.00  0.00    +0.000 A 
ATOM     28  C   UNL     1      21.213  15.205  17.997  0.00  0.00    +0.000 A 
ATOM     29  C   UNL     1      17.842   5.826  20.530  0.00  0.00    +0.000 A 
ATOM     30  C   UNL     1      18.783   5.521  19.557  0.00  0.00    +0.000 A 
ATOM     31  H   UNL     1      23.162   9.085  15.712  0.00  0.00    +0.000 HD
ENDROOT
BRANCH   7  32
ATOM     32  O   UNL     1      16.532  12.750  19.745  0.00  0.00    +0.000 OA
ATOM     33  H   UNL     1      16.528  11.939  19.192  0.00  0.00    +0.000 HD
ENDBRANCH   7  32
BRANCH   7  35
ATOM     34  O   UNL     1      15.490  14.225  21.837  0.00  0.00    +0.000 OA
ATOM     35  C   UNL     1      15.839  13.063  22.058  0.00  0.00    +0.000 C 
BRANCH  35  36
ATOM     36  O   UNL     1      15.437  12.249  23.080  0.00  0.00    +0.000 OA
ATOM     37  C   UNL     1      15.549  12.742  24.388  0.00  0.00    +0.000 C 
ENDBRANCH  35  36
ENDBRANCH   7  35
TORSDOF 3
ENDMDL
MODEL 7
REMARK VINA RESULT:      -8.1     43.334     45.281
REMARK  Name = 490561_Nocardiopsis.pdbqt.pdb
REMARK  3 active torsions:
REMARK  status: ('A' for Active; 'I' for Inactive)
REMARK    1  A    between atoms: C_7  and  O_32
REMARK    2  A    between atoms: C_7  and  C_35
REMARK    3  A    between atoms: C_35  and  O_36
REMARK                            x       y       z     vdW  Elec       q    Type
REMARK                         _______ _______ _______ _____ _____    ______ ____
ROOT
ATOM      1  O   UNL     1      25.368  -0.402   6.660  0.00  0.00    +0.000 OA
ATOM      2  O   UNL     1      28.309   5.695   3.357  0.00  0.00    +0.000 OA
ATOM      3  N   UNL     1      23.897   1.127   5.616  0.00  0.00    +0.000 N 
ATOM      4  N   UNL     1      26.815   0.613   5.138  0.00  0.00    +0.000 N 
ATOM      5  N   UNL     1      26.087   6.318   3.621  0.00  0.00    +0.000 N 
ATOM      6  C   UNL     1      24.038  -0.280   6.044  0.00  0.00    +0.000 C 
ATOM      7  C   UNL     1      24.080  -1.304   4.829  0.00  0.00    +0.000 C 
ATOM      8  C   UNL     1      26.240  -0.569   5.570  0.00  0.00    +0.000 C 
ATOM      9  C   UNL     1      25.523  -1.320   4.606  0.00  0.00    +0.000 C 
ATOM     10  C   UNL     1      24.839   2.046   5.225  0.00  0.00    +0.000 A 
ATOM     11  C   UNL     1      26.199   1.821   5.015  0.00  0.00    +0.000 A 
ATOM     12  C   UNL     1      24.432   3.345   4.908  0.00  0.00    +0.000 A 
ATOM     13  C   UNL     1      26.922   2.914   4.524  0.00  0.00    +0.000 A 
ATOM     14  C   UNL     1      23.025  -0.656   7.175  0.00  0.00    +0.000 C 
ATOM     15  C   UNL     1      22.724   1.907   5.459  0.00  0.00    +0.000 A 
ATOM     16  C   UNL     1      28.087   0.925   4.622  0.00  0.00    +0.000 A 
ATOM     17  C   UNL     1      23.036   3.261   5.061  0.00  0.00    +0.000 A 
ATOM     18  C   UNL     1      25.140   4.459   4.438  0.00  0.00    +0.000 A 
ATOM     19  C   UNL     1      26.531   4.233   4.218  0.00  0.00    +0.000 A 
ATOM     20  C   UNL     1      28.180   2.324   4.269  0.00  0.00    +0.000 A 
ATOM     21  C   UNL     1      24.882   5.863   4.025  0.00  0.00    +0.000 C 
ATOM     22  C   UNL     1      21.384   1.521   5.630  0.00  0.00    +0.000 A 
ATOM     23  C   UNL     1      27.165   5.422   3.690  0.00  0.00    +0.000 C 
ATOM     24  C   UNL     1      29.182   0.065   4.453  0.00  0.00    +0.000 A 
ATOM     25  C   UNL     1      21.975   4.168   4.871  0.00  0.00    +0.000 A 
ATOM     26  C   UNL     1      29.401   2.789   3.741  0.00  0.00    +0.000 A 
ATOM     27  C   UNL     1      20.368   2.455   5.432  0.00  0.00    +0.000 A 
ATOM     28  C   UNL     1      20.655   3.760   5.065  0.00  0.00    +0.000 A 
ATOM     29  C   UNL     1      30.368   0.582   3.933  0.00  0.00    +0.000 A 
ATOM     30  C   UNL     1      30.479   1.920   3.583  0.00  0.00    +0.000 A 
ATOM     31  H   UNL     1      26.227   7.257   3.280  0.00  0.00    +0.000 HD
ENDROOT
BRANCH   7  32
ATOM     32  O   UNL     1      23.430  -0.849   3.633  0.00  0.00    +0.000 OA
ATOM     33  H   UNL     1      22.849  -0.098   3.885  0.00  0.00    +0.000 HD
ENDBRANCH   7  32
BRANCH   7  35
ATOM     34  O   UNL     1      24.144  -3.349   6.085  0.00  0.00    +0.000 OA
ATOM     35  C   UNL     1      23.558  -2.682   5.229  0.00  0.00    +0.000 C 
BRANCH  35  36
ATOM     36  O   UNL     1      22.398  -2.993   4.575  0.00  0.00    +0.000 OA
ATOM     37  C   UNL     1      21.194  -2.845   5.278  0.00  0.00    +0.000 C 
ENDBRANCH  35  36
ENDBRANCH   7  35
TORSDOF 3
ENDMDL
MODEL 8
REMARK VINA RESULT:      -8.0     30.991     33.237
REMARK  Name = 490561_Nocardiopsis.pdbqt.pdb
REMARK  3 active torsions:
REMARK  status: ('A' for Active; 'I' for Inactive)
REMARK    1  A    between atoms: C_7  and  O_32
REMARK    2  A    between atoms: C_7  and  C_35
REMARK    3  A    between atoms: C_35  and  O_36
REMARK                            x       y       z     vdW  Elec       q    Type
REMARK                         _______ _______ _______ _____ _____    ______ ____
ROOT
ATOM      1  O   UNL     1      50.415 -15.002  15.998  0.00  0.00    +0.000 OA
ATOM      2  O   UNL     1      48.550 -22.100  17.692  0.00  0.00    +0.000 OA
ATOM      3  N   UNL     1      51.779 -16.185  17.524  0.00  0.00    +0.000 N 
ATOM      4  N   UNL     1      49.933 -17.201  15.386  0.00  0.00    +0.000 N 
ATOM      5  N   UNL     1      49.956 -21.540  19.454  0.00  0.00    +0.000 N 
ATOM      6  C   UNL     1      51.772 -15.064  16.562  0.00  0.00    +0.000 C 
ATOM      7  C   UNL     1      52.704 -15.314  15.299  0.00  0.00    +0.000 C 
ATOM      8  C   UNL     1      50.419 -15.971  14.979  0.00  0.00    +0.000 C 
ATOM      9  C   UNL     1      51.723 -15.953  14.426  0.00  0.00    +0.000 C 
ATOM     10  C   UNL     1      51.050 -17.348  17.553  0.00  0.00    +0.000 A 
ATOM     11  C   UNL     1      50.178 -17.821  16.573  0.00  0.00    +0.000 A 
ATOM     12  C   UNL     1      51.226 -18.235  18.620  0.00  0.00    +0.000 A 
ATOM     13  C   UNL     1      49.634 -19.088  16.811  0.00  0.00    +0.000 A 
ATOM     14  C   UNL     1      51.987 -13.683  17.265  0.00  0.00    +0.000 C 
ATOM     15  C   UNL     1      52.582 -16.378  18.675  0.00  0.00    +0.000 A 
ATOM     16  C   UNL     1      49.174 -18.191  14.736  0.00  0.00    +0.000 A 
ATOM     17  C   UNL     1      52.235 -17.600  19.365  0.00  0.00    +0.000 A 
ATOM     18  C   UNL     1      50.675 -19.494  18.890  0.00  0.00    +0.000 A 
ATOM     19  C   UNL     1      49.786 -19.985  17.889  0.00  0.00    +0.000 A 
ATOM     20  C   UNL     1      48.958 -19.334  15.595  0.00  0.00    +0.000 A 
ATOM     21  C   UNL     1      50.765 -20.563  19.918  0.00  0.00    +0.000 C 
ATOM     22  C   UNL     1      53.613 -15.563  19.172  0.00  0.00    +0.000 A 
ATOM     23  C   UNL     1      49.308 -21.306  18.232  0.00  0.00    +0.000 C 
ATOM     24  C   UNL     1      48.641 -18.155  13.438  0.00  0.00    +0.000 A 
ATOM     25  C   UNL     1      52.940 -17.932  20.540  0.00  0.00    +0.000 A 
ATOM     26  C   UNL     1      48.207 -20.411  15.082  0.00  0.00    +0.000 A 
ATOM     27  C   UNL     1      54.280 -15.934  20.340  0.00  0.00    +0.000 A 
ATOM     28  C   UNL     1      53.948 -17.095  21.019  0.00  0.00    +0.000 A 
ATOM     29  C   UNL     1      47.900 -19.247  12.986  0.00  0.00    +0.000 A 
ATOM     30  C   UNL     1      47.684 -20.356  13.791  0.00  0.00    +0.000 A 
ATOM     31  H   UNL     1      49.813 -22.408  19.948  0.00  0.00    +0.000 HD
ENDROOT
BRANCH   7  32
ATOM     32  O   UNL     1      53.791 -16.224  15.522  0.00  0.00    +0.000 OA
ATOM     33  H   UNL     1      54.123 -16.064  16.433  0.00  0.00    +0.000 HD
ENDBRANCH   7  32
BRANCH   7  35
ATOM     34  O   UNL     1      54.317 -13.555  15.037  0.00  0.00    +0.000 OA
ATOM     35  C   UNL     1      53.218 -14.004  14.704  0.00  0.00    +0.000 C 
BRANCH  35  36
ATOM     36  O   UNL     1      52.350 -13.493  13.779  0.00  0.00    +0.000 OA
ATOM     37  C   UNL     1      51.997 -12.142  13.894  0.00  0.00    +0.000 C 
ENDBRANCH  35  36
ENDBRANCH   7  35
TORSDOF 3
ENDMDL
MODEL 9
REMARK VINA RESULT:      -7.9     36.489     38.259
REMARK  Name = 490561_Nocardiopsis.pdbqt.pdb
REMARK  3 active torsions:
REMARK  status: ('A' for Active; 'I' for Inactive)
REMARK    1  A    between atoms: C_7  and  O_32
REMARK    2  A    between atoms: C_7  and  C_35
REMARK    3  A    between atoms: C_35  and  O_36
REMARK                            x       y       z     vdW  Elec       q    Type
REMARK                         _______ _______ _______ _____ _____    ______ ____
ROOT
ATOM      1  O   UNL     1      16.963   9.289  22.781  0.00  0.00    +0.000 OA
ATOM      2  O   UNL     1      21.609   7.422  17.154  0.00  0.00    +0.000 OA
ATOM      3  N   UNL     1      17.340  10.872  21.066  0.00  0.00    +0.000 N 
ATOM      4  N   UNL     1      17.617   7.883  21.038  0.00  0.00    +0.000 N 
ATOM      5  N   UNL     1      21.549   9.737  16.979  0.00  0.00    +0.000 N 
ATOM      6  C   UNL     1      16.380  10.462  22.112  0.00  0.00    +0.000 C 
ATOM      7  C   UNL     1      15.003   9.927  21.527  0.00  0.00    +0.000 C 
ATOM      8  C   UNL     1      16.624   8.210  21.946  0.00  0.00    +0.000 C 
ATOM      9  C   UNL     1      15.348   8.513  21.412  0.00  0.00    +0.000 C 
ATOM     10  C   UNL     1      18.243  10.139  20.338  0.00  0.00    +0.000 A 
ATOM     11  C   UNL     1      18.390   8.752  20.329  0.00  0.00    +0.000 A 
ATOM     12  C   UNL     1      19.074  10.794  19.425  0.00  0.00    +0.000 A 
ATOM     13  C   UNL     1      19.328   8.251  19.420  0.00  0.00    +0.000 A 
ATOM     14  C   UNL     1      16.233  11.543  23.234  0.00  0.00    +0.000 C 
ATOM     15  C   UNL     1      17.561  12.152  20.500  0.00  0.00    +0.000 A 
ATOM     16  C   UNL     1      18.057   6.659  20.503  0.00  0.00    +0.000 A 
ATOM     17  C   UNL     1      18.630  12.125  19.528  0.00  0.00    +0.000 A 
ATOM     18  C   UNL     1      20.035  10.318  18.524  0.00  0.00    +0.000 A 
ATOM     19  C   UNL     1      20.187   8.899  18.508  0.00  0.00    +0.000 A 
ATOM     20  C   UNL     1      19.116   6.859  19.538  0.00  0.00    +0.000 A 
ATOM     21  C   UNL     1      20.960  10.840  17.486  0.00  0.00    +0.000 C 
ATOM     22  C   UNL     1      16.886  13.357  20.763  0.00  0.00    +0.000 A 
ATOM     23  C   UNL     1      21.162   8.500  17.517  0.00  0.00    +0.000 C 
ATOM     24  C   UNL     1      17.603   5.369  20.815  0.00  0.00    +0.000 A 
ATOM     25  C   UNL     1      18.979  13.326  18.879  0.00  0.00    +0.000 A 
ATOM     26  C   UNL     1      19.665   5.719  18.917  0.00  0.00    +0.000 A 
ATOM     27  C   UNL     1      17.270  14.519  20.096  0.00  0.00    +0.000 A 
ATOM     28  C   UNL     1      18.303  14.510  19.173  0.00  0.00    +0.000 A 
ATOM     29  C   UNL     1      18.188   4.277  20.174  0.00  0.00    +0.000 A 
ATOM     30  C   UNL     1      19.201   4.445  19.242  0.00  0.00    +0.000 A 
ATOM     31  H   UNL     1      22.239   9.778  16.243  0.00  0.00    +0.000 HD
ENDROOT
BRANCH   7  32
ATOM     32  O   UNL     1      14.665  10.430  20.225  0.00  0.00    +0.000 OA
ATOM     33  H   UNL     1      14.292   9.680  19.711  0.00  0.00    +0.000 HD
ENDBRANCH   7  32
BRANCH   7  35
ATOM     34  O   UNL     1      13.162  11.171  22.437  0.00  0.00    +0.000 OA
ATOM     35  C   UNL     1      13.848  10.148  22.501  0.00  0.00    +0.000 C 
BRANCH  35  36
ATOM     36  O   UNL     1      13.685   9.082  23.342  0.00  0.00    +0.000 OA
ATOM     37  C   UNL     1      13.728   9.328  24.721  0.00  0.00    +0.000 C 
ENDBRANCH  35  36
ENDBRANCH   7  35
TORSDOF 3
ENDMDL
