MODEL 1
REMARK VINA RESULT:      -6.2      0.000      0.000
REMARK  Name = 50922675_Encorafenib.pdbqt.pdb
REMARK  8 active torsions:
REMARK  status: ('A' for Active; 'I' for Inactive)
REMARK    1  A    between atoms: N_1  and  C_37
REMARK    2  A    between atoms: C_3  and  C_23
REMARK    3  A    between atoms: C_4  and  C_8
REMARK    4  A    between atoms: C_11  and  N_14
REMARK    5  A    between atoms: N_14  and  S_16
REMARK    6  A    between atoms: N_20  and  C_28
REMARK    7  A    between atoms: C_28  and  C_29
REMARK    8  A    between atoms: C_33  and  O_35
REMARK                            x       y       z     vdW  Elec       q    Type
REMARK                         _______ _______ _______ _____ _____    ______ ____
ROOT
ATOM      1  N   UNL     1      52.846  -3.649  31.639  0.00  0.00    +0.000 N 
ATOM      2  N   UNL     1      52.330  -3.489  32.909  0.00  0.00    +0.000 NA
ATOM      3  C   UNL     1      50.669  -3.105  31.391  0.00  0.00    +0.000 A 
ATOM      4  C   UNL     1      51.030  -3.192  32.764  0.00  0.00    +0.000 A 
ATOM      5  C   UNL     1      51.834  -3.396  30.722  0.00  0.00    +0.000 A 
ENDROOT
BRANCH   4   8
ATOM      6 CL   UNL     1      48.107  -5.190  36.505  0.00  0.00    +0.000 Cl
ATOM      7  F   UNL     1      50.539  -0.600  33.866  0.00  0.00    +0.000 F 
ATOM      8  C   UNL     1      50.222  -2.964  33.955  0.00  0.00    +0.000 A 
ATOM      9  C   UNL     1      49.988  -1.676  34.451  0.00  0.00    +0.000 A 
ATOM     10  C   UNL     1      49.613  -4.049  34.590  0.00  0.00    +0.000 A 
ATOM     11  C   UNL     1      49.181  -1.473  35.576  0.00  0.00    +0.000 A 
ATOM     12  C   UNL     1      48.809  -3.847  35.706  0.00  0.00    +0.000 A 
ATOM     13  C   UNL     1      48.576  -2.566  36.192  0.00  0.00    +0.000 A 
BRANCH  11  14
ATOM     14  N   UNL     1      48.875  -0.137  36.004  0.00  0.00    +0.000 N 
ATOM     15  H   UNL     1      48.913   0.548  35.243  0.00  0.00    +0.000 HD
BRANCH  14  16
ATOM     16  S   UNL     1      49.734   0.488  37.300  0.00  0.00    +0.000 S 
ATOM     17  O   UNL     1      48.860   1.096  38.267  0.00  0.00    +0.000 OA
ATOM     18  O   UNL     1      50.961  -0.217  37.594  0.00  0.00    +0.000 OA
ATOM     19  C   UNL     1      50.470   1.977  36.694  0.00  0.00    +0.000 C 
ENDBRANCH  14  16
ENDBRANCH  11  14
ENDBRANCH   4   8
BRANCH   3  23
ATOM     20  N   UNL     1      48.031  -0.121  28.797  0.00  0.00    +0.000 N 
ATOM     21  N   UNL     1      49.322  -1.633  30.094  0.00  0.00    +0.000 NA
ATOM     22  N   UNL     1      47.131  -2.176  29.402  0.00  0.00    +0.000 NA
ATOM     23  C   UNL     1      49.416  -2.826  30.709  0.00  0.00    +0.000 A 
ATOM     24  C   UNL     1      48.175  -1.343  29.455  0.00  0.00    +0.000 A 
ATOM     25  C   UNL     1      48.394  -3.748  30.714  0.00  0.00    +0.000 A 
ATOM     26  C   UNL     1      47.269  -3.356  30.034  0.00  0.00    +0.000 A 
ATOM     27  H   UNL     1      47.048   0.015  28.588  0.00  0.00    +0.000 HD
BRANCH  20  28
ATOM     28  C   UNL     1      48.795   1.005  29.321  0.00  0.00    +0.000 C 
BRANCH  28  29
ATOM     29  C   UNL     1      49.425   2.159  29.852  0.00  0.00    +0.000 C 
ATOM     30  C   UNL     1      48.610   3.059  30.730  0.00  0.00    +0.000 C 
ATOM     31  O   UNL     1      51.448   0.793  28.331  0.00  0.00    +0.000 OA
ATOM     32  N   UNL     1      50.754   2.409  29.808  0.00  0.00    +0.000 N 
ATOM     33  C   UNL     1      51.701   1.714  29.101  0.00  0.00    +0.000 C 
ATOM     34  H   UNL     1      51.067   3.175  30.397  0.00  0.00    +0.000 HD
BRANCH  33  35
ATOM     35  O   UNL     1      52.950   2.217  29.380  0.00  0.00    +0.000 OA
ATOM     36  C   UNL     1      53.164   2.811  30.636  0.00  0.00    +0.000 C 
ENDBRANCH  33  35
ENDBRANCH  28  29
ENDBRANCH  20  28
ENDBRANCH   3  23
BRANCH   1  37
ATOM     37  C   UNL     1      54.170  -3.999  31.271  0.00  0.00    +0.000 C 
ATOM     38  C   UNL     1      54.708  -3.756  29.872  0.00  0.00    +0.000 C 
ATOM     39  C   UNL     1      55.143  -4.620  32.253  0.00  0.00    +0.000 C 
ENDBRANCH   1  37
TORSDOF 8
ENDMDL
MODEL 2
REMARK VINA RESULT:      -6.2      3.751      5.792
REMARK  Name = 50922675_Encorafenib.pdbqt.pdb
REMARK  8 active torsions:
REMARK  status: ('A' for Active; 'I' for Inactive)
REMARK    1  A    between atoms: N_1  and  C_37
REMARK    2  A    between atoms: C_3  and  C_23
REMARK    3  A    between atoms: C_4  and  C_8
REMARK    4  A    between atoms: C_11  and  N_14
REMARK    5  A    between atoms: N_14  and  S_16
REMARK    6  A    between atoms: N_20  and  C_28
REMARK    7  A    between atoms: C_28  and  C_29
REMARK    8  A    between atoms: C_33  and  O_35
REMARK                            x       y       z     vdW  Elec       q    Type
REMARK                         _______ _______ _______ _____ _____    ______ ____
ROOT
ATOM      1  N   UNL     1      53.053   0.969  29.110  0.00  0.00    +0.000 N 
ATOM      2  N   UNL     1      52.174  -0.076  28.913  0.00  0.00    +0.000 NA
ATOM      3  C   UNL     1      51.380   1.237  30.602  0.00  0.00    +0.000 A 
ATOM      4  C   UNL     1      51.165   0.097  29.780  0.00  0.00    +0.000 A 
ATOM      5  C   UNL     1      52.571   1.752  30.151  0.00  0.00    +0.000 A 
ENDROOT
BRANCH   4   8
ATOM      6 CL   UNL     1      46.228  -0.944  28.744  0.00  0.00    +0.000 Cl
ATOM      7  F   UNL     1      51.431  -2.557  30.810  0.00  0.00    +0.000 F 
ATOM      8  C   UNL     1      50.076  -0.872  29.798  0.00  0.00    +0.000 A 
ATOM      9  C   UNL     1      50.242  -2.157  30.331  0.00  0.00    +0.000 A 
ATOM     10  C   UNL     1      48.816  -0.499  29.326  0.00  0.00    +0.000 A 
ATOM     11  C   UNL     1      49.177  -3.062  30.371  0.00  0.00    +0.000 A 
ATOM     12  C   UNL     1      47.756  -1.398  29.370  0.00  0.00    +0.000 A 
ATOM     13  C   UNL     1      47.924  -2.670  29.904  0.00  0.00    +0.000 A 
BRANCH  11  14
ATOM     14  N   UNL     1      49.345  -4.335  31.014  0.00  0.00    +0.000 N 
ATOM     15  H   UNL     1      48.804  -5.084  30.571  0.00  0.00    +0.000 HD
BRANCH  14  16
ATOM     16  S   UNL     1      49.082  -4.421  32.666  0.00  0.00    +0.000 S 
ATOM     17  O   UNL     1      48.686  -3.147  33.203  0.00  0.00    +0.000 OA
ATOM     18  O   UNL     1      48.625  -5.712  33.128  0.00  0.00    +0.000 OA
ATOM     19  C   UNL     1      50.694  -4.479  33.390  0.00  0.00    +0.000 C 
ENDBRANCH  14  16
ENDBRANCH  11  14
ENDBRANCH   4   8
BRANCH   3  23
ATOM     20  N   UNL     1      48.779   4.909  32.134  0.00  0.00    +0.000 N 
ATOM     21  N   UNL     1      50.075   3.061  31.400  0.00  0.00    +0.000 NA
ATOM     22  N   UNL     1      49.144   3.118  33.568  0.00  0.00    +0.000 NA
ATOM     23  C   UNL     1      50.606   1.854  31.667  0.00  0.00    +0.000 A 
ATOM     24  C   UNL     1      49.355   3.659  32.365  0.00  0.00    +0.000 A 
ATOM     25  C   UNL     1      50.447   1.218  32.878  0.00  0.00    +0.000 A 
ATOM     26  C   UNL     1      49.696   1.912  33.792  0.00  0.00    +0.000 A 
ATOM     27  H   UNL     1      48.490   5.297  33.026  0.00  0.00    +0.000 HD
BRANCH  20  28
ATOM     28  C   UNL     1      49.454   5.781  31.180  0.00  0.00    +0.000 C 
BRANCH  28  29
ATOM     29  C   UNL     1      50.207   6.637  30.338  0.00  0.00    +0.000 C 
ATOM     30  C   UNL     1      50.952   7.770  30.977  0.00  0.00    +0.000 C 
ATOM     31  O   UNL     1      49.072   4.640  28.608  0.00  0.00    +0.000 OA
ATOM     32  N   UNL     1      50.485   6.399  29.035  0.00  0.00    +0.000 N 
ATOM     33  C   UNL     1      49.953   5.412  28.246  0.00  0.00    +0.000 C 
ATOM     34  H   UNL     1      51.191   7.005  28.628  0.00  0.00    +0.000 HD
BRANCH  33  35
ATOM     35  O   UNL     1      50.546   5.439  27.005  0.00  0.00    +0.000 OA
ATOM     36  C   UNL     1      51.827   4.876  26.867  0.00  0.00    +0.000 C 
ENDBRANCH  33  35
ENDBRANCH  28  29
ENDBRANCH  20  28
ENDBRANCH   3  23
BRANCH   1  37
ATOM     37  C   UNL     1      54.257   1.242  28.413  0.00  0.00    +0.000 C 
ATOM     38  C   UNL     1      55.616   0.866  28.977  0.00  0.00    +0.000 C 
ATOM     39  C   UNL     1      54.269   1.908  27.053  0.00  0.00    +0.000 C 
ENDBRANCH   1  37
TORSDOF 8
ENDMDL
MODEL 3
REMARK VINA RESULT:      -6.0      3.768      5.771
REMARK  Name = 50922675_Encorafenib.pdbqt.pdb
REMARK  8 active torsions:
REMARK  status: ('A' for Active; 'I' for Inactive)
REMARK    1  A    between atoms: N_1  and  C_37
REMARK    2  A    between atoms: C_3  and  C_23
REMARK    3  A    between atoms: C_4  and  C_8
REMARK    4  A    between atoms: C_11  and  N_14
REMARK    5  A    between atoms: N_14  and  S_16
REMARK    6  A    between atoms: N_20  and  C_28
REMARK    7  A    between atoms: C_28  and  C_29
REMARK    8  A    between atoms: C_33  and  O_35
REMARK                            x       y       z     vdW  Elec       q    Type
REMARK                         _______ _______ _______ _____ _____    ______ ____
ROOT
ATOM      1  N   UNL     1      53.138  -3.958  38.383  0.00  0.00    +0.000 N 
ATOM      2  N   UNL     1      52.664  -2.668  38.509  0.00  0.00    +0.000 NA
ATOM      3  C   UNL     1      51.060  -3.941  37.502  0.00  0.00    +0.000 A 
ATOM      4  C   UNL     1      51.418  -2.663  38.011  0.00  0.00    +0.000 A 
ATOM      5  C   UNL     1      52.163  -4.720  37.753  0.00  0.00    +0.000 A 
ENDROOT
BRANCH   4   8
ATOM      6 CL   UNL     1      49.336   1.177  40.740  0.00  0.00    +0.000 Cl
ATOM      7  F   UNL     1      50.389  -1.437  35.641  0.00  0.00    +0.000 F 
ATOM      8  C   UNL     1      50.663  -1.416  38.013  0.00  0.00    +0.000 A 
ATOM      9  C   UNL     1      50.158  -0.859  36.831  0.00  0.00    +0.000 A 
ATOM     10  C   UNL     1      50.383  -0.784  39.226  0.00  0.00    +0.000 A 
ATOM     11  C   UNL     1      49.407   0.321  36.855  0.00  0.00    +0.000 A 
ATOM     12  C   UNL     1      49.632   0.386  39.250  0.00  0.00    +0.000 A 
ATOM     13  C   UNL     1      49.129   0.933  38.075  0.00  0.00    +0.000 A 
BRANCH  11  14
ATOM     14  N   UNL     1      48.815   0.816  35.644  0.00  0.00    +0.000 N 
ATOM     15  H   UNL     1      48.624   0.079  34.959  0.00  0.00    +0.000 HD
BRANCH  14  16
ATOM     16  S   UNL     1      49.591   2.069  34.847  0.00  0.00    +0.000 S 
ATOM     17  O   UNL     1      48.884   2.452  33.654  0.00  0.00    +0.000 OA
ATOM     18  O   UNL     1      50.329   2.958  35.716  0.00  0.00    +0.000 OA
ATOM     19  C   UNL     1      50.983   1.322  34.054  0.00  0.00    +0.000 C 
ENDBRANCH  14  16
ENDBRANCH  11  14
ENDBRANCH   4   8
BRANCH   3  23
ATOM     20  N   UNL     1      48.651  -4.966  33.534  0.00  0.00    +0.000 N 
ATOM     21  N   UNL     1      49.827  -4.464  35.534  0.00  0.00    +0.000 NA
ATOM     22  N   UNL     1      47.659  -5.396  35.590  0.00  0.00    +0.000 NA
ATOM     23  C   UNL     1      49.852  -4.460  36.879  0.00  0.00    +0.000 A 
ATOM     24  C   UNL     1      48.724  -4.935  34.927  0.00  0.00    +0.000 A 
ATOM     25  C   UNL     1      48.803  -4.909  37.649  0.00  0.00    +0.000 A 
ATOM     26  C   UNL     1      47.727  -5.370  36.934  0.00  0.00    +0.000 A 
ATOM     27  H   UNL     1      47.685  -5.121  33.268  0.00  0.00    +0.000 HD
BRANCH  20  28
ATOM     28  C   UNL     1      49.422  -3.961  32.811  0.00  0.00    +0.000 C 
BRANCH  28  29
ATOM     29  C   UNL     1      50.216  -2.945  32.222  0.00  0.00    +0.000 C 
ATOM     30  C   UNL     1      51.614  -2.767  32.730  0.00  0.00    +0.000 C 
ATOM     31  O   UNL     1      47.700  -2.878  30.829  0.00  0.00    +0.000 OA
ATOM     32  N   UNL     1      49.895  -2.261  31.099  0.00  0.00    +0.000 N 
ATOM     33  C   UNL     1      48.696  -2.279  30.436  0.00  0.00    +0.000 C 
ATOM     34  H   UNL     1      50.651  -1.709  30.702  0.00  0.00    +0.000 HD
BRANCH  33  35
ATOM     35  O   UNL     1      48.787  -1.522  29.291  0.00  0.00    +0.000 OA
ATOM     36  C   UNL     1      48.992  -0.138  29.423  0.00  0.00    +0.000 C 
ENDBRANCH  33  35
ENDBRANCH  28  29
ENDBRANCH  20  28
ENDBRANCH   3  23
BRANCH   1  37
ATOM     37  C   UNL     1      54.394  -4.471  38.793  0.00  0.00    +0.000 C 
ATOM     38  C   UNL     1      54.569  -5.222  40.102  0.00  0.00    +0.000 C 
ATOM     39  C   UNL     1      55.643  -4.321  37.948  0.00  0.00    +0.000 C 
ENDBRANCH   1  37
TORSDOF 8
ENDMDL
MODEL 4
REMARK VINA RESULT:      -5.9     35.136     37.561
REMARK  Name = 50922675_Encorafenib.pdbqt.pdb
REMARK  8 active torsions:
REMARK  status: ('A' for Active; 'I' for Inactive)
REMARK    1  A    between atoms: N_1  and  C_37
REMARK    2  A    between atoms: C_3  and  C_23
REMARK    3  A    between atoms: C_4  and  C_8
REMARK    4  A    between atoms: C_11  and  N_14
REMARK    5  A    between atoms: N_14  and  S_16
REMARK    6  A    between atoms: N_20  and  C_28
REMARK    7  A    between atoms: C_28  and  C_29
REMARK    8  A    between atoms: C_33  and  O_35
REMARK                            x       y       z     vdW  Elec       q    Type
REMARK                         _______ _______ _______ _____ _____    ______ ____
ROOT
ATOM      1  N   UNL     1      17.612   9.038  20.282  0.00  0.00    +0.000 N 
ATOM      2  N   UNL     1      18.798   9.608  19.866  0.00  0.00    +0.000 NA
ATOM      3  C   UNL     1      17.109  10.384  18.540  0.00  0.00    +0.000 A 
ATOM      4  C   UNL     1      18.497  10.430  18.848  0.00  0.00    +0.000 A 
ATOM      5  C   UNL     1      16.594   9.502  19.459  0.00  0.00    +0.000 A 
ENDROOT
BRANCH   4   8
ATOM      6 CL   UNL     1      22.827  10.316  16.061  0.00  0.00    +0.000 Cl
ATOM      7  F   UNL     1      18.723  13.279  18.947  0.00  0.00    +0.000 F 
ATOM      8  C   UNL     1      19.571  11.175  18.202  0.00  0.00    +0.000 A 
ATOM      9  C   UNL     1      19.657  12.570  18.292  0.00  0.00    +0.000 A 
ATOM     10  C   UNL     1      20.575  10.482  17.524  0.00  0.00    +0.000 A 
ATOM     11  C   UNL     1      20.714  13.265  17.695  0.00  0.00    +0.000 A 
ATOM     12  C   UNL     1      21.627  11.173  16.933  0.00  0.00    +0.000 A 
ATOM     13  C   UNL     1      21.711  12.557  17.029  0.00  0.00    +0.000 A 
BRANCH  11  14
ATOM     14  N   UNL     1      20.835  14.683  17.887  0.00  0.00    +0.000 N 
ATOM     15  H   UNL     1      21.219  15.168  17.071  0.00  0.00    +0.000 HD
BRANCH  14  16
ATOM     16  S   UNL     1      21.661  15.224  19.241  0.00  0.00    +0.000 S 
ATOM     17  O   UNL     1      21.780  14.189  20.233  0.00  0.00    +0.000 OA
ATOM     18  O   UNL     1      22.642  16.250  18.967  0.00  0.00    +0.000 OA
ATOM     19  C   UNL     1      20.507  16.240  20.113  0.00  0.00    +0.000 C 
ENDBRANCH  14  16
ENDBRANCH  11  14
ENDBRANCH   4   8
BRANCH   3  23
ATOM     20  N   UNL     1      16.595  12.028  14.110  0.00  0.00    +0.000 N 
ATOM     21  N   UNL     1      16.822  11.220  16.330  0.00  0.00    +0.000 NA
ATOM     22  N   UNL     1      14.863  12.334  15.627  0.00  0.00    +0.000 NA
ATOM     23  C   UNL     1      16.287  11.070  17.556  0.00  0.00    +0.000 A 
ATOM     24  C   UNL     1      16.088  11.852  15.398  0.00  0.00    +0.000 A 
ATOM     25  C   UNL     1      15.036  11.536  17.889  0.00  0.00    +0.000 A 
ATOM     26  C   UNL     1      14.370  12.163  16.867  0.00  0.00    +0.000 A 
ATOM     27  H   UNL     1      16.022  12.714  13.632  0.00  0.00    +0.000 HD
BRANCH  20  28
ATOM     28  C   UNL     1      18.045  12.117  13.978  0.00  0.00    +0.000 C 
BRANCH  28  29
ATOM     29  C   UNL     1      19.455  12.263  13.965  0.00  0.00    +0.000 C 
ATOM     30  C   UNL     1      20.272  11.123  13.435  0.00  0.00    +0.000 C 
ATOM     31  O   UNL     1      18.422  14.741  14.995  0.00  0.00    +0.000 OA
ATOM     32  N   UNL     1      20.119  13.421  14.190  0.00  0.00    +0.000 N 
ATOM     33  C   UNL     1      19.590  14.599  14.647  0.00  0.00    +0.000 C 
ATOM     34  H   UNL     1      21.107  13.402  13.955  0.00  0.00    +0.000 HD
BRANCH  33  35
ATOM     35  O   UNL     1      20.564  15.570  14.665  0.00  0.00    +0.000 OA
ATOM     36  C   UNL     1      20.676  16.421  13.552  0.00  0.00    +0.000 C 
ENDBRANCH  33  35
ENDBRANCH  28  29
ENDBRANCH  20  28
ENDBRANCH   3  23
BRANCH   1  37
ATOM     37  C   UNL     1      17.408   8.126  21.347  0.00  0.00    +0.000 C 
ATOM     38  C   UNL     1      16.260   8.279  22.330  0.00  0.00    +0.000 C 
ATOM     39  C   UNL     1      18.308   6.927  21.567  0.00  0.00    +0.000 C 
ENDBRANCH   1  37
TORSDOF 8
ENDMDL
MODEL 5
REMARK VINA RESULT:      -5.8      2.104      2.633
REMARK  Name = 50922675_Encorafenib.pdbqt.pdb
REMARK  8 active torsions:
REMARK  status: ('A' for Active; 'I' for Inactive)
REMARK    1  A    between atoms: N_1  and  C_37
REMARK    2  A    between atoms: C_3  and  C_23
REMARK    3  A    between atoms: C_4  and  C_8
REMARK    4  A    between atoms: C_11  and  N_14
REMARK    5  A    between atoms: N_14  and  S_16
REMARK    6  A    between atoms: N_20  and  C_28
REMARK    7  A    between atoms: C_28  and  C_29
REMARK    8  A    between atoms: C_33  and  O_35
REMARK                            x       y       z     vdW  Elec       q    Type
REMARK                         _______ _______ _______ _____ _____    ______ ____
ROOT
ATOM      1  N   UNL     1      52.978  -3.282  31.662  0.00  0.00    +0.000 N 
ATOM      2  N   UNL     1      52.488  -2.965  32.913  0.00  0.00    +0.000 NA
ATOM      3  C   UNL     1      50.801  -2.750  31.391  0.00  0.00    +0.000 A 
ATOM      4  C   UNL     1      51.187  -2.676  32.758  0.00  0.00    +0.000 A 
ATOM      5  C   UNL     1      51.950  -3.131  30.741  0.00  0.00    +0.000 A 
ENDROOT
BRANCH   4   8
ATOM      6 CL   UNL     1      49.095   1.087  35.585  0.00  0.00    +0.000 Cl
ATOM      7  F   UNL     1      50.172  -4.563  34.652  0.00  0.00    +0.000 F 
ATOM      8  C   UNL     1      50.404  -2.299  33.928  0.00  0.00    +0.000 A 
ATOM      9  C   UNL     1      49.943  -3.253  34.844  0.00  0.00    +0.000 A 
ATOM     10  C   UNL     1      50.153  -0.950  34.180  0.00  0.00    +0.000 A 
ATOM     11  C   UNL     1      49.222  -2.870  35.980  0.00  0.00    +0.000 A 
ATOM     12  C   UNL     1      49.439  -0.569  35.312  0.00  0.00    +0.000 A 
ATOM     13  C   UNL     1      48.987  -1.519  36.220  0.00  0.00    +0.000 A 
BRANCH  11  14
ATOM     14  N   UNL     1      48.848  -3.856  36.955  0.00  0.00    +0.000 N 
ATOM     15  H   UNL     1      47.992  -3.616  37.462  0.00  0.00    +0.000 HD
BRANCH  14  16
ATOM     16  S   UNL     1      49.998  -4.321  38.081  0.00  0.00    +0.000 S 
ATOM     17  O   UNL     1      51.330  -4.017  37.630  0.00  0.00    +0.000 OA
ATOM     18  O   UNL     1      49.538  -4.278  39.451  0.00  0.00    +0.000 OA
ATOM     19  C   UNL     1      50.107  -6.080  37.935  0.00  0.00    +0.000 C 
ENDBRANCH  14  16
ENDBRANCH  11  14
ENDBRANCH   4   8
BRANCH   3  23
ATOM     20  N   UNL     1      47.959   0.122  28.888  0.00  0.00    +0.000 N 
ATOM     21  N   UNL     1      49.354  -1.336  30.138  0.00  0.00    +0.000 NA
ATOM     22  N   UNL     1      47.221  -2.022  29.394  0.00  0.00    +0.000 NA
ATOM     23  C   UNL     1      49.536  -2.543  30.703  0.00  0.00    +0.000 A 
ATOM     24  C   UNL     1      48.194  -1.111  29.496  0.00  0.00    +0.000 A 
ATOM     25  C   UNL     1      48.592  -3.543  30.655  0.00  0.00    +0.000 A 
ATOM     26  C   UNL     1      47.446  -3.213  29.977  0.00  0.00    +0.000 A 
ATOM     27  H   UNL     1      46.971   0.188  28.671  0.00  0.00    +0.000 HD
BRANCH  20  28
ATOM     28  C   UNL     1      48.625   1.282  29.469  0.00  0.00    +0.000 C 
BRANCH  28  29
ATOM     29  C   UNL     1      49.160   2.473  30.021  0.00  0.00    +0.000 C 
ATOM     30  C   UNL     1      48.292   3.264  30.953  0.00  0.00    +0.000 C 
ATOM     31  O   UNL     1      51.254   1.355  28.398  0.00  0.00    +0.000 OA
ATOM     32  N   UNL     1      50.458   2.849  29.949  0.00  0.00    +0.000 N 
ATOM     33  C   UNL     1      51.444   2.270  29.192  0.00  0.00    +0.000 C 
ATOM     34  H   UNL     1      50.716   3.623  30.555  0.00  0.00    +0.000 HD
BRANCH  33  35
ATOM     35  O   UNL     1      52.648   2.881  29.452  0.00  0.00    +0.000 OA
ATOM     36  C   UNL     1      52.882   3.366  30.751  0.00  0.00    +0.000 C 
ENDBRANCH  33  35
ENDBRANCH  28  29
ENDBRANCH  20  28
ENDBRANCH   3  23
BRANCH   1  37
ATOM     37  C   UNL     1      54.292  -3.685  31.315  0.00  0.00    +0.000 C 
ATOM     38  C   UNL     1      54.882  -3.412  29.942  0.00  0.00    +0.000 C 
ATOM     39  C   UNL     1      55.202  -4.400  32.293  0.00  0.00    +0.000 C 
ENDBRANCH   1  37
TORSDOF 8
ENDMDL
MODEL 6
REMARK VINA RESULT:      -5.7      4.054      6.345
REMARK  Name = 50922675_Encorafenib.pdbqt.pdb
REMARK  8 active torsions:
REMARK  status: ('A' for Active; 'I' for Inactive)
REMARK    1  A    between atoms: N_1  and  C_37
REMARK    2  A    between atoms: C_3  and  C_23
REMARK    3  A    between atoms: C_4  and  C_8
REMARK    4  A    between atoms: C_11  and  N_14
REMARK    5  A    between atoms: N_14  and  S_16
REMARK    6  A    between atoms: N_20  and  C_28
REMARK    7  A    between atoms: C_28  and  C_29
REMARK    8  A    between atoms: C_33  and  O_35
REMARK                            x       y       z     vdW  Elec       q    Type
REMARK                         _______ _______ _______ _____ _____    ______ ____
ROOT
ATOM      1  N   UNL     1      52.490  -4.471  31.356  0.00  0.00    +0.000 N 
ATOM      2  N   UNL     1      53.030  -3.878  30.232  0.00  0.00    +0.000 NA
ATOM      3  C   UNL     1      50.800  -3.397  30.314  0.00  0.00    +0.000 A 
ATOM      4  C   UNL     1      52.032  -3.216  29.627  0.00  0.00    +0.000 A 
ATOM      5  C   UNL     1      51.131  -4.189  31.387  0.00  0.00    +0.000 A 
ENDROOT
BRANCH   4   8
ATOM      6 CL   UNL     1      53.128  -3.396  24.598  0.00  0.00    +0.000 Cl
ATOM      7  F   UNL     1      52.181  -0.364  29.482  0.00  0.00    +0.000 F 
ATOM      8  C   UNL     1      52.314  -2.486  28.397  0.00  0.00    +0.000 A 
ATOM      9  C   UNL     1      52.399  -1.089  28.372  0.00  0.00    +0.000 A 
ATOM     10  C   UNL     1      52.564  -3.195  27.220  0.00  0.00    +0.000 A 
ATOM     11  C   UNL     1      52.704  -0.407  27.189  0.00  0.00    +0.000 A 
ATOM     12  C   UNL     1      52.871  -2.517  26.045  0.00  0.00    +0.000 A 
ATOM     13  C   UNL     1      52.959  -1.131  26.027  0.00  0.00    +0.000 A 
BRANCH  11  14
ATOM     14  N   UNL     1      52.886   1.017  27.212  0.00  0.00    +0.000 N 
ATOM     15  H   UNL     1      52.137   1.526  26.732  0.00  0.00    +0.000 HD
BRANCH  14  16
ATOM     16  S   UNL     1      54.349   1.631  26.674  0.00  0.00    +0.000 S 
ATOM     17  O   UNL     1      55.459   1.018  27.355  0.00  0.00    +0.000 OA
ATOM     18  O   UNL     1      54.339   2.067  25.296  0.00  0.00    +0.000 OA
ATOM     19  C   UNL     1      54.483   3.229  27.417  0.00  0.00    +0.000 C 
ENDBRANCH  14  16
ENDBRANCH  11  14
ENDBRANCH   4   8
BRANCH   3  23
ATOM     20  N   UNL     1      47.946   0.200  29.086  0.00  0.00    +0.000 N 
ATOM     21  N   UNL     1      49.343  -1.615  29.705  0.00  0.00    +0.000 NA
ATOM     22  N   UNL     1      46.996  -1.850  29.627  0.00  0.00    +0.000 NA
ATOM     23  C   UNL     1      49.452  -2.902  30.084  0.00  0.00    +0.000 A 
ATOM     24  C   UNL     1      48.110  -1.127  29.486  0.00  0.00    +0.000 A 
ATOM     25  C   UNL     1      48.363  -3.725  30.259  0.00  0.00    +0.000 A 
ATOM     26  C   UNL     1      47.152  -3.130  30.010  0.00  0.00    +0.000 A 
ATOM     27  H   UNL     1      46.970   0.449  29.202  0.00  0.00    +0.000 HD
BRANCH  20  28
ATOM     28  C   UNL     1      48.964   1.151  29.516  0.00  0.00    +0.000 C 
BRANCH  28  29
ATOM     29  C   UNL     1      49.967   2.109  29.810  0.00  0.00    +0.000 C 
ATOM     30  C   UNL     1      50.330   3.092  28.739  0.00  0.00    +0.000 C 
ATOM     31  O   UNL     1      49.636   0.563  32.212  0.00  0.00    +0.000 OA
ATOM     32  N   UNL     1      50.475   2.351  31.042  0.00  0.00    +0.000 N 
ATOM     33  C   UNL     1      50.267   1.614  32.178  0.00  0.00    +0.000 C 
ATOM     34  H   UNL     1      51.038   3.193  31.116  0.00  0.00    +0.000 HD
BRANCH  33  35
ATOM     35  O   UNL     1      50.881   2.225  33.247  0.00  0.00    +0.000 OA
ATOM     36  C   UNL     1      50.523   1.818  34.543  0.00  0.00    +0.000 C 
ENDBRANCH  33  35
ENDBRANCH  28  29
ENDBRANCH  20  28
ENDBRANCH   3  23
BRANCH   1  37
ATOM     37  C   UNL     1      53.154  -5.252  32.334  0.00  0.00    +0.000 C 
ATOM     38  C   UNL     1      54.388  -4.750  33.065  0.00  0.00    +0.000 C 
ATOM     39  C   UNL     1      52.669  -6.631  32.732  0.00  0.00    +0.000 C 
ENDBRANCH   1  37
TORSDOF 8
ENDMDL
MODEL 7
REMARK VINA RESULT:      -5.6     34.541     37.550
REMARK  Name = 50922675_Encorafenib.pdbqt.pdb
REMARK  8 active torsions:
REMARK  status: ('A' for Active; 'I' for Inactive)
REMARK    1  A    between atoms: N_1  and  C_37
REMARK    2  A    between atoms: C_3  and  C_23
REMARK    3  A    between atoms: C_4  and  C_8
REMARK    4  A    between atoms: C_11  and  N_14
REMARK    5  A    between atoms: N_14  and  S_16
REMARK    6  A    between atoms: N_20  and  C_28
REMARK    7  A    between atoms: C_28  and  C_29
REMARK    8  A    between atoms: C_33  and  O_35
REMARK                            x       y       z     vdW  Elec       q    Type
REMARK                         _______ _______ _______ _____ _____    ______ ____
ROOT
ATOM      1  N   UNL     1      20.096   9.666  19.783  0.00  0.00    +0.000 N 
ATOM      2  N   UNL     1      20.221  10.882  20.424  0.00  0.00    +0.000 NA
ATOM      3  C   UNL     1      20.029  11.255  18.181  0.00  0.00    +0.000 A 
ATOM      4  C   UNL     1      20.153  11.829  19.476  0.00  0.00    +0.000 A 
ATOM      5  C   UNL     1      19.998   9.902  18.418  0.00  0.00    +0.000 A 
ENDROOT
BRANCH   4   8
ATOM      6 CL   UNL     1      18.091  15.832  21.976  0.00  0.00    +0.000 Cl
ATOM      7  F   UNL     1      22.316  13.527  18.692  0.00  0.00    +0.000 F 
ATOM      8  C   UNL     1      20.260  13.228  19.869  0.00  0.00    +0.000 A 
ATOM      9  C   UNL     1      21.326  14.033  19.446  0.00  0.00    +0.000 A 
ATOM     10  C   UNL     1      19.248  13.805  20.638  0.00  0.00    +0.000 A 
ATOM     11  C   UNL     1      21.394  15.383  19.804  0.00  0.00    +0.000 A 
ATOM     12  C   UNL     1      19.314  15.148  20.991  0.00  0.00    +0.000 A 
ATOM     13  C   UNL     1      20.371  15.944  20.565  0.00  0.00    +0.000 A 
BRANCH  11  14
ATOM     14  N   UNL     1      22.442  16.211  19.275  0.00  0.00    +0.000 N 
ATOM     15  H   UNL     1      22.955  16.722  19.999  0.00  0.00    +0.000 HD
BRANCH  14  16
ATOM     16  S   UNL     1      22.047  17.297  18.062  0.00  0.00    +0.000 S 
ATOM     17  O   UNL     1      23.219  17.770  17.376  0.00  0.00    +0.000 OA
ATOM     18  O   UNL     1      20.749  17.073  17.464  0.00  0.00    +0.000 OA
ATOM     19  C   UNL     1      21.652  18.803  18.899  0.00  0.00    +0.000 C 
ENDBRANCH  14  16
ENDBRANCH  11  14
ENDBRANCH   4   8
BRANCH   3  23
ATOM     20  N   UNL     1      17.683  14.077  15.160  0.00  0.00    +0.000 N 
ATOM     21  N   UNL     1      18.875  12.659  16.643  0.00  0.00    +0.000 NA
ATOM     22  N   UNL     1      19.575  12.958  14.409  0.00  0.00    +0.000 NA
ATOM     23  C   UNL     1      19.912  11.826  16.849  0.00  0.00    +0.000 A 
ATOM     24  C   UNL     1      18.738  13.203  15.421  0.00  0.00    +0.000 A 
ATOM     25  C   UNL     1      20.823  11.509  15.867  0.00  0.00    +0.000 A 
ATOM     26  C   UNL     1      20.595  12.117  14.658  0.00  0.00    +0.000 A 
ATOM     27  H   UNL     1      17.604  14.191  14.155  0.00  0.00    +0.000 HD
BRANCH  20  28
ATOM     28  C   UNL     1      16.464  13.893  15.939  0.00  0.00    +0.000 C 
BRANCH  28  29
ATOM     29  C   UNL     1      15.332  13.605  16.743  0.00  0.00    +0.000 C 
ATOM     30  C   UNL     1      14.750  14.720  17.557  0.00  0.00    +0.000 C 
ATOM     31  O   UNL     1      15.961  11.156  15.372  0.00  0.00    +0.000 OA
ATOM     32  N   UNL     1      14.603  12.467  16.679  0.00  0.00    +0.000 N 
ATOM     33  C   UNL     1      14.912  11.326  15.985  0.00  0.00    +0.000 C 
ATOM     34  H   UNL     1      13.718  12.495  17.178  0.00  0.00    +0.000 HD
BRANCH  33  35
ATOM     35  O   UNL     1      13.882  10.421  16.097  0.00  0.00    +0.000 OA
ATOM     36  C   UNL     1      13.155  10.093  14.940  0.00  0.00    +0.000 C 
ENDBRANCH  33  35
ENDBRANCH  28  29
ENDBRANCH  20  28
ENDBRANCH   3  23
BRANCH   1  37
ATOM     37  C   UNL     1      20.076   8.372  20.360  0.00  0.00    +0.000 C 
ATOM     38  C   UNL     1      20.409   8.138  21.824  0.00  0.00    +0.000 C 
ATOM     39  C   UNL     1      19.704   7.138  19.564  0.00  0.00    +0.000 C 
ENDBRANCH   1  37
TORSDOF 8
ENDMDL
MODEL 8
REMARK VINA RESULT:      -5.5     36.102     38.936
REMARK  Name = 50922675_Encorafenib.pdbqt.pdb
REMARK  8 active torsions:
REMARK  status: ('A' for Active; 'I' for Inactive)
REMARK    1  A    between atoms: N_1  and  C_37
REMARK    2  A    between atoms: C_3  and  C_23
REMARK    3  A    between atoms: C_4  and  C_8
REMARK    4  A    between atoms: C_11  and  N_14
REMARK    5  A    between atoms: N_14  and  S_16
REMARK    6  A    between atoms: N_20  and  C_28
REMARK    7  A    between atoms: C_28  and  C_29
REMARK    8  A    between atoms: C_33  and  O_35
REMARK                            x       y       z     vdW  Elec       q    Type
REMARK                         _______ _______ _______ _____ _____    ______ ____
ROOT
ATOM      1  N   UNL     1      16.931   3.360  19.390  0.00  0.00    +0.000 N 
ATOM      2  N   UNL     1      16.299   2.156  19.624  0.00  0.00    +0.000 NA
ATOM      3  C   UNL     1      15.205   3.240  17.939  0.00  0.00    +0.000 A 
ATOM      4  C   UNL     1      15.290   2.070  18.744  0.00  0.00    +0.000 A 
ATOM      5  C   UNL     1      16.248   4.020  18.377  0.00  0.00    +0.000 A 
ENDROOT
BRANCH   4   8
ATOM      6 CL   UNL     1      14.130  -2.507  16.686  0.00  0.00    +0.000 Cl
ATOM      7  F   UNL     1      13.109   1.723  20.560  0.00  0.00    +0.000 F 
ATOM      8  C   UNL     1      14.437   0.888  18.761  0.00  0.00    +0.000 A 
ATOM      9  C   UNL     1      13.365   0.766  19.654  0.00  0.00    +0.000 A 
ATOM     10  C   UNL     1      14.652  -0.127  17.827  0.00  0.00    +0.000 A 
ATOM     11  C   UNL     1      12.536  -0.361  19.633  0.00  0.00    +0.000 A 
ATOM     12  C   UNL     1      13.826  -1.246  17.804  0.00  0.00    +0.000 A 
ATOM     13  C   UNL     1      12.760  -1.360  18.689  0.00  0.00    +0.000 A 
BRANCH  11  14
ATOM     14  N   UNL     1      11.384  -0.416  20.489  0.00  0.00    +0.000 N 
ATOM     15  H   UNL     1      10.829   0.445  20.473  0.00  0.00    +0.000 HD
BRANCH  14  16
ATOM     16  S   UNL     1      11.617  -0.847  22.091  0.00  0.00    +0.000 S 
ATOM     17  O   UNL     1      13.012  -0.835  22.442  0.00  0.00    +0.000 OA
ATOM     18  O   UNL     1      10.522  -0.492  22.966  0.00  0.00    +0.000 OA
ATOM     19  C   UNL     1      11.387  -2.599  22.139  0.00  0.00    +0.000 C 
ENDBRANCH  14  16
ENDBRANCH  11  14
ENDBRANCH   4   8
BRANCH   3  23
ATOM     20  N   UNL     1      13.876   2.795  13.397  0.00  0.00    +0.000 N 
ATOM     21  N   UNL     1      14.517   3.042  15.669  0.00  0.00    +0.000 NA
ATOM     22  N   UNL     1      12.739   4.297  14.756  0.00  0.00    +0.000 NA
ATOM     23  C   UNL     1      14.319   3.640  16.858  0.00  0.00    +0.000 A 
ATOM     24  C   UNL     1      13.715   3.391  14.648  0.00  0.00    +0.000 A 
ATOM     25  C   UNL     1      13.343   4.588  17.066  0.00  0.00    +0.000 A 
ATOM     26  C   UNL     1      12.579   4.872  15.962  0.00  0.00    +0.000 A 
ATOM     27  H   UNL     1      13.361   3.340  12.715  0.00  0.00    +0.000 HD
BRANCH  20  28
ATOM     28  C   UNL     1      15.216   2.334  13.054  0.00  0.00    +0.000 C 
BRANCH  28  29
ATOM     29  C   UNL     1      16.469   1.766  12.709  0.00  0.00    +0.000 C 
ATOM     30  C   UNL     1      17.432   2.614  11.934  0.00  0.00    +0.000 C 
ATOM     31  O   UNL     1      15.087  -0.251  14.224  0.00  0.00    +0.000 OA
ATOM     32  N   UNL     1      16.956   0.602  13.198  0.00  0.00    +0.000 N 
ATOM     33  C   UNL     1      16.280  -0.323  13.951  0.00  0.00    +0.000 C 
ATOM     34  H   UNL     1      17.939   0.433  13.005  0.00  0.00    +0.000 HD
BRANCH  33  35
ATOM     35  O   UNL     1      17.139  -1.330  14.329  0.00  0.00    +0.000 OA
ATOM     36  C   UNL     1      18.117  -1.042  15.295  0.00  0.00    +0.000 C 
ENDBRANCH  33  35
ENDBRANCH  28  29
ENDBRANCH  20  28
ENDBRANCH   3  23
BRANCH   1  37
ATOM     37  C   UNL     1      18.072   3.889  20.043  0.00  0.00    +0.000 C 
ATOM     38  C   UNL     1      19.475   3.701  19.493  0.00  0.00    +0.000 C 
ATOM     39  C   UNL     1      17.969   4.691  21.324  0.00  0.00    +0.000 C 
ENDBRANCH   1  37
TORSDOF 8
ENDMDL
MODEL 9
REMARK VINA RESULT:      -5.5     35.771     38.680
REMARK  Name = 50922675_Encorafenib.pdbqt.pdb
REMARK  8 active torsions:
REMARK  status: ('A' for Active; 'I' for Inactive)
REMARK    1  A    between atoms: N_1  and  C_37
REMARK    2  A    between atoms: C_3  and  C_23
REMARK    3  A    between atoms: C_4  and  C_8
REMARK    4  A    between atoms: C_11  and  N_14
REMARK    5  A    between atoms: N_14  and  S_16
REMARK    6  A    between atoms: N_20  and  C_28
REMARK    7  A    between atoms: C_28  and  C_29
REMARK    8  A    between atoms: C_33  and  O_35
REMARK                            x       y       z     vdW  Elec       q    Type
REMARK                         _______ _______ _______ _____ _____    ______ ____
ROOT
ATOM      1  N   UNL     1      17.179   2.758  19.131  0.00  0.00    +0.000 N 
ATOM      2  N   UNL     1      16.344   1.727  19.509  0.00  0.00    +0.000 NA
ATOM      3  C   UNL     1      15.866   2.301  17.352  0.00  0.00    +0.000 A 
ATOM      4  C   UNL     1      15.582   1.435  18.444  0.00  0.00    +0.000 A 
ATOM      5  C   UNL     1      16.869   3.113  17.825  0.00  0.00    +0.000 A 
ENDROOT
BRANCH   4   8
ATOM      6 CL   UNL     1      13.879  -3.135  16.786  0.00  0.00    +0.000 Cl
ATOM      7  F   UNL     1      13.372   1.517  20.257  0.00  0.00    +0.000 F 
ATOM      8  C   UNL     1      14.592   0.370  18.555  0.00  0.00    +0.000 A 
ATOM      9  C   UNL     1      13.512   0.459  19.442  0.00  0.00    +0.000 A 
ATOM     10  C   UNL     1      14.684  -0.743  17.718  0.00  0.00    +0.000 A 
ATOM     11  C   UNL     1      12.553  -0.557  19.511  0.00  0.00    +0.000 A 
ATOM     12  C   UNL     1      13.729  -1.751  17.784  0.00  0.00    +0.000 A 
ATOM     13  C   UNL     1      12.656  -1.657  18.662  0.00  0.00    +0.000 A 
BRANCH  11  14
ATOM     14  N   UNL     1      11.401  -0.397  20.354  0.00  0.00    +0.000 N 
ATOM     15  H   UNL     1      11.081  -1.276  20.769  0.00  0.00    +0.000 HD
BRANCH  14  16
ATOM     16  S   UNL     1      10.064   0.386  19.716  0.00  0.00    +0.000 S 
ATOM     17  O   UNL     1       9.257   0.978  20.749  0.00  0.00    +0.000 OA
ATOM     18  O   UNL     1      10.269   0.925  18.390  0.00  0.00    +0.000 OA
ATOM     19  C   UNL     1       8.943  -0.904  19.264  0.00  0.00    +0.000 C 
ENDBRANCH  14  16
ENDBRANCH  11  14
ENDBRANCH   4   8
BRANCH   3  23
ATOM     20  N   UNL     1      15.706   0.594  12.919  0.00  0.00    +0.000 N 
ATOM     21  N   UNL     1      15.766   1.472  15.123  0.00  0.00    +0.000 NA
ATOM     22  N   UNL     1      14.443   2.472  13.444  0.00  0.00    +0.000 NA
ATOM     23  C   UNL     1      15.341   2.400  16.000  0.00  0.00    +0.000 A 
ATOM     24  C   UNL     1      15.300   1.537  13.864  0.00  0.00    +0.000 A 
ATOM     25  C   UNL     1      14.463   3.404  15.661  0.00  0.00    +0.000 A 
ATOM     26  C   UNL     1      14.047   3.381  14.353  0.00  0.00    +0.000 A 
ATOM     27  H   UNL     1      15.451   0.934  11.999  0.00  0.00    +0.000 HD
BRANCH  20  28
ATOM     28  C   UNL     1      17.025   0.001  13.103  0.00  0.00    +0.000 C 
BRANCH  28  29
ATOM     29  C   UNL     1      18.280  -0.586  13.408  0.00  0.00    +0.000 C 
ATOM     30  C   UNL     1      18.415  -1.307  14.715  0.00  0.00    +0.000 C 
ATOM     31  O   UNL     1      18.575   0.577  10.795  0.00  0.00    +0.000 OA
ATOM     32  N   UNL     1      19.302  -0.734  12.534  0.00  0.00    +0.000 N 
ATOM     33  C   UNL     1      19.396  -0.196  11.277  0.00  0.00    +0.000 C 
ATOM     34  H   UNL     1      20.053  -1.342  12.849  0.00  0.00    +0.000 HD
BRANCH  33  35
ATOM     35  O   UNL     1      20.544  -0.644  10.665  0.00  0.00    +0.000 OA
ATOM     36  C   UNL     1      21.448  -1.406  11.424  0.00  0.00    +0.000 C 
ENDBRANCH  33  35
ENDBRANCH  28  29
ENDBRANCH  20  28
ENDBRANCH   3  23
BRANCH   1  37
ATOM     37  C   UNL     1      18.186   3.393  19.900  0.00  0.00    +0.000 C 
ATOM     38  C   UNL     1      17.917   3.924  21.298  0.00  0.00    +0.000 C 
ATOM     39  C   UNL     1      19.601   3.569  19.390  0.00  0.00    +0.000 C 
ENDBRANCH   1  37
TORSDOF 8
ENDMDL
