MODEL 1
REMARK VINA RESULT:      -8.5      0.000      0.000
REMARK  Name = 5109870_Ethoxyphenyl.pdbqt.pdb
REMARK  6 active torsions:
REMARK  status: ('A' for Active; 'I' for Inactive)
REMARK    1  A    between atoms: N_2  and  C_22
REMARK    2  A    between atoms: C_3  and  O_11
REMARK    3  A    between atoms: C_3  and  C_13
REMARK    4  A    between atoms: C_16  and  N_19
REMARK    5  A    between atoms: C_25  and  O_28
REMARK    6  A    between atoms: O_28  and  C_29
REMARK                            x       y       z     vdW  Elec       q    Type
REMARK                         _______ _______ _______ _____ _____    ______ ____
ROOT
ATOM      1  N   UNL     1      37.345   0.486  11.479  0.00  0.00    +0.000 N 
ATOM      2  N   UNL     1      38.714   2.405  11.930  0.00  0.00    +0.000 N 
ATOM      3  C   UNL     1      37.855   0.266  12.854  0.00  0.00    +0.000 C 
ATOM      4  C   UNL     1      38.049   1.696  10.948  0.00  0.00    +0.000 C 
ATOM      5  C   UNL     1      38.558   1.533  13.064  0.00  0.00    +0.000 C 
ATOM      6  C   UNL     1      37.378  -0.634  10.540  0.00  0.00    +0.000 C 
ATOM      7  C   UNL     1      38.381   1.796   9.565  0.00  0.00    +0.000 C 
ATOM      8  C   UNL     1      37.650  -1.195   9.134  0.00  0.00    +0.000 C 
ATOM      9  C   UNL     1      38.529   1.080   8.212  0.00  0.00    +0.000 C 
ATOM     10  C   UNL     1      38.198  -0.388   7.962  0.00  0.00    +0.000 C 
ENDROOT
BRANCH   3  11
ATOM     11  C   UNL     1      36.732  -0.006  13.827  0.00  0.00    +0.000 A 
ATOM     12  C   UNL     1      36.849  -0.980  14.828  0.00  0.00    +0.000 A 
ATOM     13  C   UNL     1      35.826  -1.194  15.748  0.00  0.00    +0.000 A 
ATOM     14  C   UNL     1      34.677  -0.413  15.671  0.00  0.00    +0.000 A 
ATOM     15  C   UNL     1      34.533   0.574  14.700  0.00  0.00    +0.000 A 
ATOM     16  C   UNL     1      35.566   0.775  13.789  0.00  0.00    +0.000 A 
BRANCH  14  17
ATOM     17  N   UNL     1      33.607  -0.631  16.624  0.00  0.00    +0.000 N 
ATOM     18  O   UNL     1      33.841  -0.388  17.816  0.00  0.00    +0.000 OA
ATOM     19  O   UNL     1      32.523  -1.045  16.188  0.00  0.00    +0.000 OA
ENDBRANCH  14  17
ENDBRANCH   3  11
BRANCH   2  20
ATOM     20  C   UNL     1      39.662   3.439  11.866  0.00  0.00    +0.000 A 
ATOM     21  C   UNL     1      39.314   4.743  11.500  0.00  0.00    +0.000 A 
ATOM     22  C   UNL     1      40.259   5.768  11.462  0.00  0.00    +0.000 A 
ATOM     23  C   UNL     1      41.585   5.509  11.801  0.00  0.00    +0.000 A 
ATOM     24  C   UNL     1      41.953   4.222  12.179  0.00  0.00    +0.000 A 
ATOM     25  C   UNL     1      40.999   3.204  12.213  0.00  0.00    +0.000 A 
BRANCH  23  26
ATOM     26  O   UNL     1      42.589   6.443  11.797  0.00  0.00    +0.000 OA
BRANCH  26  27
ATOM     27  C   UNL     1      42.327   7.544  11.096  0.00  0.00    +0.000 C 
ATOM     28  C   UNL     1      42.016   8.803  10.278  0.00  0.00    +0.000 C 
ENDBRANCH  26  27
ENDBRANCH  23  26
ENDBRANCH   2  20
BRANCH   3  29
ATOM     29  O   UNL     1      38.815  -0.781  12.934  0.00  0.00    +0.000 OA
ATOM     30  H   UNL     1      38.923  -0.953  13.883  0.00  0.00    +0.000 HD
ENDBRANCH   3  29
TORSDOF 6
ENDMDL
MODEL 2
REMARK VINA RESULT:      -8.3      4.569      7.750
REMARK  Name = 5109870_Ethoxyphenyl.pdbqt.pdb
REMARK  6 active torsions:
REMARK  status: ('A' for Active; 'I' for Inactive)
REMARK    1  A    between atoms: N_2  and  C_22
REMARK    2  A    between atoms: C_3  and  O_11
REMARK    3  A    between atoms: C_3  and  C_13
REMARK    4  A    between atoms: C_16  and  N_19
REMARK    5  A    between atoms: C_25  and  O_28
REMARK    6  A    between atoms: O_28  and  C_29
REMARK                            x       y       z     vdW  Elec       q    Type
REMARK                         _______ _______ _______ _____ _____    ______ ____
ROOT
ATOM      1  N   UNL     1      35.633   1.018  14.798  0.00  0.00    +0.000 N 
ATOM      2  N   UNL     1      36.533   2.332  16.594  0.00  0.00    +0.000 N 
ATOM      3  C   UNL     1      35.736   2.388  14.242  0.00  0.00    +0.000 C 
ATOM      4  C   UNL     1      35.965   1.119  16.255  0.00  0.00    +0.000 C 
ATOM      5  C   UNL     1      36.402   3.060  15.360  0.00  0.00    +0.000 C 
ATOM      6  C   UNL     1      34.405   0.263  14.557  0.00  0.00    +0.000 C 
ATOM      7  C   UNL     1      35.324   0.273  17.207  0.00  0.00    +0.000 C 
ATOM      8  C   UNL     1      33.287  -0.670  15.055  0.00  0.00    +0.000 C 
ATOM      9  C   UNL     1      34.177  -0.706  17.506  0.00  0.00    +0.000 C 
ATOM     10  C   UNL     1      33.147  -1.181  16.485  0.00  0.00    +0.000 C 
ENDROOT
BRANCH   3  11
ATOM     11  C   UNL     1      36.506   2.405  12.942  0.00  0.00    +0.000 A 
ATOM     12  C   UNL     1      37.478   3.380  12.679  0.00  0.00    +0.000 A 
ATOM     13  C   UNL     1      38.214   3.363  11.497  0.00  0.00    +0.000 A 
ATOM     14  C   UNL     1      37.981   2.347  10.574  0.00  0.00    +0.000 A 
ATOM     15  C   UNL     1      37.036   1.354  10.810  0.00  0.00    +0.000 A 
ATOM     16  C   UNL     1      36.309   1.387  11.996  0.00  0.00    +0.000 A 
BRANCH  14  17
ATOM     17  N   UNL     1      38.742   2.323   9.340  0.00  0.00    +0.000 N 
ATOM     18  O   UNL     1      38.140   2.023   8.300  0.00  0.00    +0.000 OA
ATOM     19  O   UNL     1      39.947   2.606   9.401  0.00  0.00    +0.000 OA
ENDBRANCH  14  17
ENDBRANCH   3  11
BRANCH   2  20
ATOM     20  C   UNL     1      36.785   2.938  17.834  0.00  0.00    +0.000 A 
ATOM     21  C   UNL     1      36.332   2.386  19.036  0.00  0.00    +0.000 A 
ATOM     22  C   UNL     1      36.608   2.985  20.265  0.00  0.00    +0.000 A 
ATOM     23  C   UNL     1      37.359   4.157  20.319  0.00  0.00    +0.000 A 
ATOM     24  C   UNL     1      37.831   4.719  19.137  0.00  0.00    +0.000 A 
ATOM     25  C   UNL     1      37.548   4.112  17.913  0.00  0.00    +0.000 A 
BRANCH  23  26
ATOM     26  O   UNL     1      37.686   4.822  21.473  0.00  0.00    +0.000 OA
BRANCH  26  27
ATOM     27  C   UNL     1      38.211   6.032  21.292  0.00  0.00    +0.000 C 
ATOM     28  C   UNL     1      38.802   7.432  21.087  0.00  0.00    +0.000 C 
ENDBRANCH  26  27
ENDBRANCH  23  26
ENDBRANCH   2  20
BRANCH   3  29
ATOM     29  O   UNL     1      34.472   3.011  14.052  0.00  0.00    +0.000 OA
ATOM     30  H   UNL     1      33.951   2.375  13.535  0.00  0.00    +0.000 HD
ENDBRANCH   3  29
TORSDOF 6
ENDMDL
MODEL 3
REMARK VINA RESULT:      -7.7      3.547      5.513
REMARK  Name = 5109870_Ethoxyphenyl.pdbqt.pdb
REMARK  6 active torsions:
REMARK  status: ('A' for Active; 'I' for Inactive)
REMARK    1  A    between atoms: N_2  and  C_22
REMARK    2  A    between atoms: C_3  and  O_11
REMARK    3  A    between atoms: C_3  and  C_13
REMARK    4  A    between atoms: C_16  and  N_19
REMARK    5  A    between atoms: C_25  and  O_28
REMARK    6  A    between atoms: O_28  and  C_29
REMARK                            x       y       z     vdW  Elec       q    Type
REMARK                         _______ _______ _______ _____ _____    ______ ____
ROOT
ATOM      1  N   UNL     1      38.529   1.780  12.076  0.00  0.00    +0.000 N 
ATOM      2  N   UNL     1      40.073  -0.035  11.788  0.00  0.00    +0.000 N 
ATOM      3  C   UNL     1      37.672   0.573  11.980  0.00  0.00    +0.000 C 
ATOM      4  C   UNL     1      39.928   1.339  11.777  0.00  0.00    +0.000 C 
ATOM      5  C   UNL     1      38.707  -0.462  11.936  0.00  0.00    +0.000 C 
ATOM      6  C   UNL     1      38.143   2.966  11.315  0.00  0.00    +0.000 C 
ATOM      7  C   UNL     1      40.833   2.206  11.096  0.00  0.00    +0.000 C 
ATOM      8  C   UNL     1      38.512   4.161  10.418  0.00  0.00    +0.000 C 
ATOM      9  C   UNL     1      41.026   3.483  10.264  0.00  0.00    +0.000 C 
ATOM     10  C   UNL     1      39.913   4.460   9.894  0.00  0.00    +0.000 C 
ENDROOT
BRANCH   3  11
ATOM     11  C   UNL     1      36.722   0.471  13.149  0.00  0.00    +0.000 A 
ATOM     12  C   UNL     1      35.546   1.232  13.206  0.00  0.00    +0.000 A 
ATOM     13  C   UNL     1      34.653   1.100  14.266  0.00  0.00    +0.000 A 
ATOM     14  C   UNL     1      34.937   0.185  15.275  0.00  0.00    +0.000 A 
ATOM     15  C   UNL     1      36.087  -0.599  15.243  0.00  0.00    +0.000 A 
ATOM     16  C   UNL     1      36.968  -0.454  14.176  0.00  0.00    +0.000 A 
BRANCH  14  17
ATOM     17  N   UNL     1      34.013   0.043  16.384  0.00  0.00    +0.000 N 
ATOM     18  O   UNL     1      32.909  -0.468  16.149  0.00  0.00    +0.000 OA
ATOM     19  O   UNL     1      34.385   0.439  17.497  0.00  0.00    +0.000 OA
ENDBRANCH  14  17
ENDBRANCH   3  11
BRANCH   2  20
ATOM     20  C   UNL     1      41.110  -0.875  11.354  0.00  0.00    +0.000 A 
ATOM     21  C   UNL     1      40.954  -1.748  10.273  0.00  0.00    +0.000 A 
ATOM     22  C   UNL     1      41.998  -2.563   9.835  0.00  0.00    +0.000 A 
ATOM     23  C   UNL     1      43.236  -2.515  10.470  0.00  0.00    +0.000 A 
ATOM     24  C   UNL     1      43.419  -1.645  11.541  0.00  0.00    +0.000 A 
ATOM     25  C   UNL     1      42.368  -0.835  11.971  0.00  0.00    +0.000 A 
BRANCH  23  26
ATOM     26  O   UNL     1      44.325  -3.271  10.118  0.00  0.00    +0.000 OA
BRANCH  26  27
ATOM     27  C   UNL     1      44.811  -4.039  11.090  0.00  0.00    +0.000 C 
ATOM     28  C   UNL     1      45.376  -4.936  12.198  0.00  0.00    +0.000 C 
ENDBRANCH  26  27
ENDBRANCH  23  26
ENDBRANCH   2  20
BRANCH   3  29
ATOM     29  O   UNL     1      36.938   0.505  10.764  0.00  0.00    +0.000 OA
ATOM     30  H   UNL     1      36.027   0.740  11.005  0.00  0.00    +0.000 HD
ENDBRANCH   3  29
TORSDOF 6
ENDMDL
MODEL 4
REMARK VINA RESULT:      -7.1     12.626     16.189
REMARK  Name = 5109870_Ethoxyphenyl.pdbqt.pdb
REMARK  6 active torsions:
REMARK  status: ('A' for Active; 'I' for Inactive)
REMARK    1  A    between atoms: N_2  and  C_22
REMARK    2  A    between atoms: C_3  and  O_11
REMARK    3  A    between atoms: C_3  and  C_13
REMARK    4  A    between atoms: C_16  and  N_19
REMARK    5  A    between atoms: C_25  and  O_28
REMARK    6  A    between atoms: O_28  and  C_29
REMARK                            x       y       z     vdW  Elec       q    Type
REMARK                         _______ _______ _______ _____ _____    ______ ____
ROOT
ATOM      1  N   UNL     1      26.871   1.323   3.705  0.00  0.00    +0.000 N 
ATOM      2  N   UNL     1      25.487  -0.253   4.871  0.00  0.00    +0.000 N 
ATOM      3  C   UNL     1      27.703   0.870   4.846  0.00  0.00    +0.000 C 
ATOM      4  C   UNL     1      25.510   0.733   3.903  0.00  0.00    +0.000 C 
ATOM      5  C   UNL     1      26.822  -0.162   5.400  0.00  0.00    +0.000 C 
ATOM      6  C   UNL     1      26.821   2.754   3.410  0.00  0.00    +0.000 C 
ATOM      7  C   UNL     1      24.343   1.445   3.499  0.00  0.00    +0.000 C 
ATOM      8  C   UNL     1      26.027   4.014   3.024  0.00  0.00    +0.000 C 
ATOM      9  C   UNL     1      23.730   2.781   3.051  0.00  0.00    +0.000 C 
ATOM     10  C   UNL     1      24.516   4.069   2.823  0.00  0.00    +0.000 C 
ENDROOT
BRANCH   3  11
ATOM     11  C   UNL     1      29.053   0.372   4.387  0.00  0.00    +0.000 A 
ATOM     12  C   UNL     1      30.104   1.257   4.108  0.00  0.00    +0.000 A 
ATOM     13  C   UNL     1      31.358   0.788   3.728  0.00  0.00    +0.000 A 
ATOM     14  C   UNL     1      31.565  -0.586   3.638  0.00  0.00    +0.000 A 
ATOM     15  C   UNL     1      30.549  -1.493   3.923  0.00  0.00    +0.000 A 
ATOM     16  C   UNL     1      29.301  -1.007   4.302  0.00  0.00    +0.000 A 
BRANCH  14  17
ATOM     17  N   UNL     1      32.868  -1.082   3.241  0.00  0.00    +0.000 N 
ATOM     18  O   UNL     1      33.423  -1.900   3.988  0.00  0.00    +0.000 OA
ATOM     19  O   UNL     1      33.346  -0.659   2.179  0.00  0.00    +0.000 OA
ENDBRANCH  14  17
ENDBRANCH   3  11
BRANCH   2  20
ATOM     20  C   UNL     1      24.430  -0.900   5.531  0.00  0.00    +0.000 A 
ATOM     21  C   UNL     1      24.105  -2.236   5.277  0.00  0.00    +0.000 A 
ATOM     22  C   UNL     1      23.067  -2.877   5.955  0.00  0.00    +0.000 A 
ATOM     23  C   UNL     1      22.331  -2.189   6.917  0.00  0.00    +0.000 A 
ATOM     24  C   UNL     1      22.644  -0.862   7.195  0.00  0.00    +0.000 A 
ATOM     25  C   UNL     1      23.683  -0.231   6.511  0.00  0.00    +0.000 A 
BRANCH  23  26
ATOM     26  O   UNL     1      21.296  -2.725   7.638  0.00  0.00    +0.000 OA
BRANCH  26  27
ATOM     27  C   UNL     1      21.295  -2.415   8.933  0.00  0.00    +0.000 C 
ATOM     28  C   UNL     1      21.279  -2.066  10.426  0.00  0.00    +0.000 C 
ENDBRANCH  26  27
ENDBRANCH  23  26
ENDBRANCH   2  20
BRANCH   3  29
ATOM     29  O   UNL     1      27.879   1.870   5.841  0.00  0.00    +0.000 OA
ATOM     30  H   UNL     1      27.118   2.465   5.739  0.00  0.00    +0.000 HD
ENDBRANCH   3  29
TORSDOF 6
ENDMDL
MODEL 5
REMARK VINA RESULT:      -6.9     18.710     23.266
REMARK  Name = 5109870_Ethoxyphenyl.pdbqt.pdb
REMARK  6 active torsions:
REMARK  status: ('A' for Active; 'I' for Inactive)
REMARK    1  A    between atoms: N_2  and  C_22
REMARK    2  A    between atoms: C_3  and  O_11
REMARK    3  A    between atoms: C_3  and  C_13
REMARK    4  A    between atoms: C_16  and  N_19
REMARK    5  A    between atoms: C_25  and  O_28
REMARK    6  A    between atoms: O_28  and  C_29
REMARK                            x       y       z     vdW  Elec       q    Type
REMARK                         _______ _______ _______ _____ _____    ______ ____
ROOT
ATOM      1  N   UNL     1      17.894   8.514  19.850  0.00  0.00    +0.000 N 
ATOM      2  N   UNL     1      17.490   6.170  19.536  0.00  0.00    +0.000 N 
ATOM      3  C   UNL     1      19.246   7.914  19.749  0.00  0.00    +0.000 C 
ATOM      4  C   UNL     1      16.920   7.378  19.887  0.00  0.00    +0.000 C 
ATOM      5  C   UNL     1      18.880   6.530  19.437  0.00  0.00    +0.000 C 
ATOM      6  C   UNL     1      17.648   9.494  20.907  0.00  0.00    +0.000 C 
ATOM      7  C   UNL     1      15.721   7.473  20.653  0.00  0.00    +0.000 C 
ATOM      8  C   UNL     1      16.751  10.070  22.016  0.00  0.00    +0.000 C 
ATOM      9  C   UNL     1      14.932   8.222  21.739  0.00  0.00    +0.000 C 
ATOM     10  C   UNL     1      15.407   9.489  22.444  0.00  0.00    +0.000 C 
ENDROOT
BRANCH   3  11
ATOM     11  C   UNL     1      20.083   8.601  18.696  0.00  0.00    +0.000 A 
ATOM     12  C   UNL     1      21.157   7.950  18.075  0.00  0.00    +0.000 A 
ATOM     13  C   UNL     1      21.897   8.575  17.074  0.00  0.00    +0.000 A 
ATOM     14  C   UNL     1      21.546   9.864  16.684  0.00  0.00    +0.000 A 
ATOM     15  C   UNL     1      20.476  10.534  17.268  0.00  0.00    +0.000 A 
ATOM     16  C   UNL     1      19.747   9.894  18.266  0.00  0.00    +0.000 A 
BRANCH  14  17
ATOM     17  N   UNL     1      22.312  10.523  15.644  0.00  0.00    +0.000 N 
ATOM     18  O   UNL     1      21.781  10.648  14.531  0.00  0.00    +0.000 OA
ATOM     19  O   UNL     1      23.450  10.921  15.931  0.00  0.00    +0.000 OA
ENDBRANCH  14  17
ENDBRANCH   3  11
BRANCH   2  20
ATOM     20  C   UNL     1      17.034   4.846  19.647  0.00  0.00    +0.000 A 
ATOM     21  C   UNL     1      15.797   4.443  19.135  0.00  0.00    +0.000 A 
ATOM     22  C   UNL     1      15.363   3.120  19.230  0.00  0.00    +0.000 A 
ATOM     23  C   UNL     1      16.171   2.161  19.837  0.00  0.00    +0.000 A 
ATOM     24  C   UNL     1      17.411   2.537  20.344  0.00  0.00    +0.000 A 
ATOM     25  C   UNL     1      17.834   3.862  20.244  0.00  0.00    +0.000 A 
BRANCH  23  26
ATOM     26  O   UNL     1      15.839   0.839  19.980  0.00  0.00    +0.000 OA
BRANCH  26  27
ATOM     27  C   UNL     1      15.420   0.242  18.867  0.00  0.00    +0.000 C 
ATOM     28  C   UNL     1      14.933  -0.458  17.593  0.00  0.00    +0.000 C 
ENDBRANCH  26  27
ENDBRANCH  23  26
ENDBRANCH   2  20
BRANCH   3  29
ATOM     29  O   UNL     1      19.948   7.908  20.985  0.00  0.00    +0.000 OA
ATOM     30  H   UNL     1      20.237   8.827  21.117  0.00  0.00    +0.000 HD
ENDBRANCH   3  29
TORSDOF 6
ENDMDL
MODEL 6
REMARK VINA RESULT:      -6.7     20.738     23.154
REMARK  Name = 5109870_Ethoxyphenyl.pdbqt.pdb
REMARK  6 active torsions:
REMARK  status: ('A' for Active; 'I' for Inactive)
REMARK    1  A    between atoms: N_2  and  C_22
REMARK    2  A    between atoms: C_3  and  O_11
REMARK    3  A    between atoms: C_3  and  C_13
REMARK    4  A    between atoms: C_16  and  N_19
REMARK    5  A    between atoms: C_25  and  O_28
REMARK    6  A    between atoms: O_28  and  C_29
REMARK                            x       y       z     vdW  Elec       q    Type
REMARK                         _______ _______ _______ _____ _____    ______ ____
ROOT
ATOM      1  N   UNL     1      51.254   0.260  29.331  0.00  0.00    +0.000 N 
ATOM      2  N   UNL     1      50.265  -1.222  30.938  0.00  0.00    +0.000 N 
ATOM      3  C   UNL     1      49.818   0.629  29.343  0.00  0.00    +0.000 C 
ATOM      4  C   UNL     1      51.391  -0.965  30.181  0.00  0.00    +0.000 C 
ATOM      5  C   UNL     1      49.350  -0.235  30.429  0.00  0.00    +0.000 C 
ATOM      6  C   UNL     1      51.922   0.118  28.038  0.00  0.00    +0.000 C 
ATOM      7  C   UNL     1      52.353  -1.968  29.861  0.00  0.00    +0.000 C 
ATOM      8  C   UNL     1      52.884  -0.635  27.103  0.00  0.00    +0.000 C 
ATOM      9  C   UNL     1      53.328  -2.544  28.822  0.00  0.00    +0.000 C 
ATOM     10  C   UNL     1      53.605  -1.932  27.452  0.00  0.00    +0.000 C 
ENDROOT
BRANCH   3  11
ATOM     11  C   UNL     1      49.625   2.108  29.581  0.00  0.00    +0.000 A 
ATOM     12  C   UNL     1      50.232   3.067  28.758  0.00  0.00    +0.000 A 
ATOM     13  C   UNL     1      50.015   4.428  28.958  0.00  0.00    +0.000 A 
ATOM     14  C   UNL     1      49.169   4.831  29.987  0.00  0.00    +0.000 A 
ATOM     15  C   UNL     1      48.538   3.906  30.813  0.00  0.00    +0.000 A 
ATOM     16  C   UNL     1      48.766   2.549  30.599  0.00  0.00    +0.000 A 
BRANCH  14  17
ATOM     17  N   UNL     1      48.939   6.246  30.202  0.00  0.00    +0.000 N 
ATOM     18  O   UNL     1      47.858   6.582  30.705  0.00  0.00    +0.000 OA
ATOM     19  O   UNL     1      49.838   7.032  29.871  0.00  0.00    +0.000 OA
ENDBRANCH  14  17
ENDBRANCH   3  11
BRANCH   2  20
ATOM     20  C   UNL     1      49.867  -2.345  31.681  0.00  0.00    +0.000 A 
ATOM     21  C   UNL     1      49.128  -3.387  31.111  0.00  0.00    +0.000 A 
ATOM     22  C   UNL     1      48.757  -4.509  31.852  0.00  0.00    +0.000 A 
ATOM     23  C   UNL     1      49.128  -4.618  33.190  0.00  0.00    +0.000 A 
ATOM     24  C   UNL     1      49.872  -3.599  33.775  0.00  0.00    +0.000 A 
ATOM     25  C   UNL     1      50.238  -2.481  33.026  0.00  0.00    +0.000 A 
BRANCH  23  26
ATOM     26  O   UNL     1      48.815  -5.677  34.003  0.00  0.00    +0.000 OA
BRANCH  26  27
ATOM     27  C   UNL     1      48.388  -5.343  35.219  0.00  0.00    +0.000 C 
ATOM     28  C   UNL     1      47.882  -4.965  36.616  0.00  0.00    +0.000 C 
ENDBRANCH  26  27
ENDBRANCH  23  26
ENDBRANCH   2  20
BRANCH   3  29
ATOM     29  O   UNL     1      49.132   0.245  28.158  0.00  0.00    +0.000 OA
ATOM     30  H   UNL     1      48.664   1.045  27.866  0.00  0.00    +0.000 HD
ENDBRANCH   3  29
TORSDOF 6
ENDMDL
MODEL 7
REMARK VINA RESULT:      -6.6     31.284     34.159
REMARK  Name = 5109870_Ethoxyphenyl.pdbqt.pdb
REMARK  6 active torsions:
REMARK  status: ('A' for Active; 'I' for Inactive)
REMARK    1  A    between atoms: N_2  and  C_22
REMARK    2  A    between atoms: C_3  and  O_11
REMARK    3  A    between atoms: C_3  and  C_13
REMARK    4  A    between atoms: C_16  and  N_19
REMARK    5  A    between atoms: C_25  and  O_28
REMARK    6  A    between atoms: O_28  and  C_29
REMARK                            x       y       z     vdW  Elec       q    Type
REMARK                         _______ _______ _______ _____ _____    ______ ____
ROOT
ATOM      1  N   UNL     1      40.396  -3.367  46.723  0.00  0.00    +0.000 N 
ATOM      2  N   UNL     1      41.919  -1.584  46.211  0.00  0.00    +0.000 N 
ATOM      3  C   UNL     1      39.535  -2.167  46.593  0.00  0.00    +0.000 C 
ATOM      4  C   UNL     1      41.813  -2.889  46.652  0.00  0.00    +0.000 C 
ATOM      5  C   UNL     1      40.536  -1.189  46.163  0.00  0.00    +0.000 C 
ATOM      6  C   UNL     1      40.167  -4.265  47.854  0.00  0.00    +0.000 C 
ATOM      7  C   UNL     1      42.837  -3.535  47.407  0.00  0.00    +0.000 C 
ATOM      8  C   UNL     1      40.704  -5.148  48.993  0.00  0.00    +0.000 C 
ATOM      9  C   UNL     1      43.192  -4.512  48.539  0.00  0.00    +0.000 C 
ATOM     10  C   UNL     1      42.178  -5.309  49.353  0.00  0.00    +0.000 C 
ENDROOT
BRANCH   3  11
ATOM     11  C   UNL     1      38.408  -2.395  45.612  0.00  0.00    +0.000 A 
ATOM     12  C   UNL     1      38.524  -2.024  44.265  0.00  0.00    +0.000 A 
ATOM     13  C   UNL     1      37.498  -2.277  43.358  0.00  0.00    +0.000 A 
ATOM     14  C   UNL     1      36.348  -2.922  43.805  0.00  0.00    +0.000 A 
ATOM     15  C   UNL     1      36.207  -3.318  45.131  0.00  0.00    +0.000 A 
ATOM     16  C   UNL     1      37.242  -3.058  46.024  0.00  0.00    +0.000 A 
BRANCH  14  17
ATOM     17  N   UNL     1      35.275  -3.187  42.867  0.00  0.00    +0.000 N 
ATOM     18  O   UNL     1      34.122  -2.897  43.217  0.00  0.00    +0.000 OA
ATOM     19  O   UNL     1      35.576  -3.686  41.774  0.00  0.00    +0.000 OA
ENDBRANCH  14  17
ENDBRANCH   3  11
BRANCH   2  20
ATOM     20  C   UNL     1      42.989  -0.676  46.206  0.00  0.00    +0.000 A 
ATOM     21  C   UNL     1      43.851  -0.552  45.112  0.00  0.00    +0.000 A 
ATOM     22  C   UNL     1      44.899   0.369  45.107  0.00  0.00    +0.000 A 
ATOM     23  C   UNL     1      45.103   1.201  46.205  0.00  0.00    +0.000 A 
ATOM     24  C   UNL     1      44.251   1.104  47.301  0.00  0.00    +0.000 A 
ATOM     25  C   UNL     1      43.207   0.179  47.295  0.00  0.00    +0.000 A 
BRANCH  23  26
ATOM     26  O   UNL     1      46.099   2.138  46.301  0.00  0.00    +0.000 OA
BRANCH  26  27
ATOM     27  C   UNL     1      45.693   3.353  46.662  0.00  0.00    +0.000 C 
ATOM     28  C   UNL     1      45.235   4.760  47.067  0.00  0.00    +0.000 C 
ENDBRANCH  26  27
ENDBRANCH  23  26
ENDBRANCH   2  20
BRANCH   3  29
ATOM     29  O   UNL     1      39.001  -1.725  47.834  0.00  0.00    +0.000 OA
ATOM     30  H   UNL     1      39.708  -1.876  48.482  0.00  0.00    +0.000 HD
ENDBRANCH   3  29
TORSDOF 6
ENDMDL
MODEL 8
REMARK VINA RESULT:      -6.5     11.085     11.776
REMARK  Name = 5109870_Ethoxyphenyl.pdbqt.pdb
REMARK  6 active torsions:
REMARK  status: ('A' for Active; 'I' for Inactive)
REMARK    1  A    between atoms: N_2  and  C_22
REMARK    2  A    between atoms: C_3  and  O_11
REMARK    3  A    between atoms: C_3  and  C_13
REMARK    4  A    between atoms: C_16  and  N_19
REMARK    5  A    between atoms: C_25  and  O_28
REMARK    6  A    between atoms: O_28  and  C_29
REMARK                            x       y       z     vdW  Elec       q    Type
REMARK                         _______ _______ _______ _____ _____    ______ ____
ROOT
ATOM      1  N   UNL     1      31.613  -0.029   2.611  0.00  0.00    +0.000 N 
ATOM      2  N   UNL     1      32.352   2.221   2.227  0.00  0.00    +0.000 N 
ATOM      3  C   UNL     1      31.342   0.674   3.887  0.00  0.00    +0.000 C 
ATOM      4  C   UNL     1      32.373   0.927   1.745  0.00  0.00    +0.000 C 
ATOM      5  C   UNL     1      31.706   2.039   3.500  0.00  0.00    +0.000 C 
ATOM      6  C   UNL     1      32.239  -1.349   2.666  0.00  0.00    +0.000 C 
ATOM      7  C   UNL     1      33.371   0.455   0.842  0.00  0.00    +0.000 C 
ATOM      8  C   UNL     1      33.262  -2.370   2.137  0.00  0.00    +0.000 C 
ATOM      9  C   UNL     1      34.274  -0.708   0.401  0.00  0.00    +0.000 C 
ATOM     10  C   UNL     1      34.265  -2.103   1.020  0.00  0.00    +0.000 C 
ENDROOT
BRANCH   3  11
ATOM     11  C   UNL     1      29.906   0.501   4.324  0.00  0.00    +0.000 A 
ATOM     12  C   UNL     1      29.282  -0.755   4.306  0.00  0.00    +0.000 A 
ATOM     13  C   UNL     1      27.972  -0.914   4.751  0.00  0.00    +0.000 A 
ATOM     14  C   UNL     1      27.285   0.197   5.232  0.00  0.00    +0.000 A 
ATOM     15  C   UNL     1      27.879   1.454   5.279  0.00  0.00    +0.000 A 
ATOM     16  C   UNL     1      29.189   1.596   4.830  0.00  0.00    +0.000 A 
BRANCH  14  17
ATOM     17  N   UNL     1      25.921   0.039   5.696  0.00  0.00    +0.000 N 
ATOM     18  O   UNL     1      25.285   1.067   5.970  0.00  0.00    +0.000 OA
ATOM     19  O   UNL     1      25.473  -1.112   5.788  0.00  0.00    +0.000 OA
ENDBRANCH  14  17
ENDBRANCH   3  11
BRANCH   2  20
ATOM     20  C   UNL     1      33.090   3.365   1.884  0.00  0.00    +0.000 A 
ATOM     21  C   UNL     1      32.570   4.361   1.051  0.00  0.00    +0.000 A 
ATOM     22  C   UNL     1      33.303   5.505   0.735  0.00  0.00    +0.000 A 
ATOM     23  C   UNL     1      34.581   5.684   1.258  0.00  0.00    +0.000 A 
ATOM     24  C   UNL     1      35.115   4.712   2.099  0.00  0.00    +0.000 A 
ATOM     25  C   UNL     1      34.374   3.571   2.408  0.00  0.00    +0.000 A 
BRANCH  23  26
ATOM     26  O   UNL     1      35.382   6.769   1.011  0.00  0.00    +0.000 OA
BRANCH  26  27
ATOM     27  C   UNL     1      34.745   7.840   0.542  0.00  0.00    +0.000 C 
ATOM     28  C   UNL     1      34.023   9.083   0.010  0.00  0.00    +0.000 C 
ENDBRANCH  26  27
ENDBRANCH  23  26
ENDBRANCH   2  20
BRANCH   3  29
ATOM     29  O   UNL     1      32.210   0.276   4.940  0.00  0.00    +0.000 OA
ATOM     30  H   UNL     1      31.907  -0.611   5.197  0.00  0.00    +0.000 HD
ENDBRANCH   3  29
TORSDOF 6
ENDMDL
MODEL 9
REMARK VINA RESULT:      -6.4     11.570     14.470
REMARK  Name = 5109870_Ethoxyphenyl.pdbqt.pdb
REMARK  6 active torsions:
REMARK  status: ('A' for Active; 'I' for Inactive)
REMARK    1  A    between atoms: N_2  and  C_22
REMARK    2  A    between atoms: C_3  and  O_11
REMARK    3  A    between atoms: C_3  and  C_13
REMARK    4  A    between atoms: C_16  and  N_19
REMARK    5  A    between atoms: C_25  and  O_28
REMARK    6  A    between atoms: O_28  and  C_29
REMARK                            x       y       z     vdW  Elec       q    Type
REMARK                         _______ _______ _______ _____ _____    ______ ____
ROOT
ATOM      1  N   UNL     1      32.809   1.018   2.164  0.00  0.00    +0.000 N 
ATOM      2  N   UNL     1      30.770   1.074   3.429  0.00  0.00    +0.000 N 
ATOM      3  C   UNL     1      32.001   2.083   1.523  0.00  0.00    +0.000 C 
ATOM      4  C   UNL     1      31.924   0.358   3.176  0.00  0.00    +0.000 C 
ATOM      5  C   UNL     1      30.859   2.114   2.438  0.00  0.00    +0.000 C 
ATOM      6  C   UNL     1      33.490   0.051   1.304  0.00  0.00    +0.000 C 
ATOM      7  C   UNL     1      32.043  -1.037   3.446  0.00  0.00    +0.000 C 
ATOM      8  C   UNL     1      33.907  -1.394   0.984  0.00  0.00    +0.000 C 
ATOM      9  C   UNL     1      32.608  -2.398   3.009  0.00  0.00    +0.000 C 
ATOM     10  C   UNL     1      33.511  -2.620   1.800  0.00  0.00    +0.000 C 
ENDROOT
BRANCH   3  11
ATOM     11  C   UNL     1      32.770   3.380   1.424  0.00  0.00    +0.000 A 
ATOM     12  C   UNL     1      33.553   3.683   0.301  0.00  0.00    +0.000 A 
ATOM     13  C   UNL     1      34.224   4.899   0.198  0.00  0.00    +0.000 A 
ATOM     14  C   UNL     1      34.096   5.828   1.228  0.00  0.00    +0.000 A 
ATOM     15  C   UNL     1      33.314   5.566   2.349  0.00  0.00    +0.000 A 
ATOM     16  C   UNL     1      32.651   4.346   2.435  0.00  0.00    +0.000 A 
BRANCH  14  17
ATOM     17  N   UNL     1      34.792   7.095   1.129  0.00  0.00    +0.000 N 
ATOM     18  O   UNL     1      35.972   7.133   1.505  0.00  0.00    +0.000 OA
ATOM     19  O   UNL     1      34.166   8.062   0.673  0.00  0.00    +0.000 OA
ENDBRANCH  14  17
ENDBRANCH   3  11
BRANCH   2  20
ATOM     20  C   UNL     1      29.586   0.741   4.106  0.00  0.00    +0.000 A 
ATOM     21  C   UNL     1      29.096  -0.568   4.145  0.00  0.00    +0.000 A 
ATOM     22  C   UNL     1      27.931  -0.892   4.840  0.00  0.00    +0.000 A 
ATOM     23  C   UNL     1      27.227   0.096   5.525  0.00  0.00    +0.000 A 
ATOM     24  C   UNL     1      27.701   1.404   5.509  0.00  0.00    +0.000 A 
ATOM     25  C   UNL     1      28.868   1.717   4.811  0.00  0.00    +0.000 A 
BRANCH  23  26
ATOM     26  O   UNL     1      26.075  -0.116   6.237  0.00  0.00    +0.000 OA
BRANCH  26  27
ATOM     27  C   UNL     1      25.341  -1.146   5.820  0.00  0.00    +0.000 C 
ATOM     28  C   UNL     1      24.495  -2.337   5.356  0.00  0.00    +0.000 C 
ENDBRANCH  26  27
ENDBRANCH  23  26
ENDBRANCH   2  20
BRANCH   3  29
ATOM     29  O   UNL     1      31.517   1.719   0.236  0.00  0.00    +0.000 OA
ATOM     30  H   UNL     1      30.624   1.371   0.391  0.00  0.00    +0.000 HD
ENDBRANCH   3  29
TORSDOF 6
ENDMDL
