MODEL 1
REMARK VINA RESULT:      -8.2      0.000      0.000
REMARK  Name = 5280445_Luteolin.pdbqt.pdb
REMARK  5 active torsions:
REMARK  status: ('A' for Active; 'I' for Inactive)
REMARK    1  A    between atoms: C_5  and  C_12
REMARK    2  A    between atoms: C_8  and  O_22
REMARK    3  A    between atoms: C_10  and  O_24
REMARK    4  A    between atoms: C_15  and  O_18
REMARK    5  A    between atoms: C_17  and  O_20
REMARK                            x       y       z     vdW  Elec       q    Type
REMARK                         _______ _______ _______ _____ _____    ______ ____
ROOT
ATOM      1  O   UNL     1      37.238  -0.037  12.927  0.00  0.00    +0.000 OA
ATOM      2  O   UNL     1      34.391   2.496  14.477  0.00  0.00    +0.000 OA
ATOM      3  C   UNL     1      35.737   0.539  14.828  0.00  0.00    +0.000 A 
ATOM      4  C   UNL     1      36.718  -0.271  14.204  0.00  0.00    +0.000 A 
ATOM      5  C   UNL     1      36.772   1.065  12.199  0.00  0.00    +0.000 A 
ATOM      6  C   UNL     1      35.230   1.706  14.082  0.00  0.00    +0.000 A 
ATOM      7  C   UNL     1      35.882   1.760  12.824  0.00  0.00    +0.000 A 
ATOM      8  C   UNL     1      35.273   0.235  16.107  0.00  0.00    +0.000 A 
ATOM      9  C   UNL     1      37.222  -1.380  14.876  0.00  0.00    +0.000 A 
ATOM     10  C   UNL     1      36.747  -1.671  16.153  0.00  0.00    +0.000 A 
ATOM     11  C   UNL     1      35.781  -0.877  16.772  0.00  0.00    +0.000 A 
ENDROOT
BRANCH   5  12
ATOM     12  C   UNL     1      37.316   1.307  10.869  0.00  0.00    +0.000 A 
ATOM     13  C   UNL     1      36.764   0.671   9.753  0.00  0.00    +0.000 A 
ATOM     14  C   UNL     1      38.398   2.179  10.686  0.00  0.00    +0.000 A 
ATOM     15  C   UNL     1      37.291   0.908   8.490  0.00  0.00    +0.000 A 
ATOM     16  C   UNL     1      38.927   2.417   9.417  0.00  0.00    +0.000 A 
ATOM     17  C   UNL     1      38.364   1.776   8.322  0.00  0.00    +0.000 A 
BRANCH  15  18
ATOM     18  O   UNL     1      36.742   0.281   7.408  0.00  0.00    +0.000 OA
ATOM     19  H   UNL     1      36.769   0.943   6.688  0.00  0.00    +0.000 HD
ENDBRANCH  15  18
BRANCH  17  20
ATOM     20  O   UNL     1      38.846   1.976   7.057  0.00  0.00    +0.000 OA
ATOM     21  H   UNL     1      38.083   2.135   6.471  0.00  0.00    +0.000 HD
ENDBRANCH  17  20
ENDBRANCH   5  12
BRANCH   8  22
ATOM     22  O   UNL     1      34.328   0.977  16.760  0.00  0.00    +0.000 OA
ATOM     23  H   UNL     1      33.932   1.626  16.138  0.00  0.00    +0.000 HD
ENDBRANCH   8  22
BRANCH  10  24
ATOM     24  O   UNL     1      37.254  -2.765  16.794  0.00  0.00    +0.000 OA
ATOM     25  H   UNL     1      37.281  -3.505  16.161  0.00  0.00    +0.000 HD
ENDBRANCH  10  24
TORSDOF 5
ENDMDL
MODEL 2
REMARK VINA RESULT:      -7.7      2.323      6.555
REMARK  Name = 5280445_Luteolin.pdbqt.pdb
REMARK  5 active torsions:
REMARK  status: ('A' for Active; 'I' for Inactive)
REMARK    1  A    between atoms: C_5  and  C_12
REMARK    2  A    between atoms: C_8  and  O_22
REMARK    3  A    between atoms: C_10  and  O_24
REMARK    4  A    between atoms: C_15  and  O_18
REMARK    5  A    between atoms: C_17  and  O_20
REMARK                            x       y       z     vdW  Elec       q    Type
REMARK                         _______ _______ _______ _____ _____    ______ ____
ROOT
ATOM      1  O   UNL     1      38.222   0.127  12.549  0.00  0.00    +0.000 OA
ATOM      2  O   UNL     1      36.304   0.602   8.942  0.00  0.00    +0.000 OA
ATOM      3  C   UNL     1      38.250  -0.219  10.085  0.00  0.00    +0.000 A 
ATOM      4  C   UNL     1      38.825  -0.332  11.375  0.00  0.00    +0.000 A 
ATOM      5  C   UNL     1      36.968   0.745  12.469  0.00  0.00    +0.000 A 
ATOM      6  C   UNL     1      36.929   0.428   9.972  0.00  0.00    +0.000 A 
ATOM      7  C   UNL     1      36.501   0.816  11.268  0.00  0.00    +0.000 A 
ATOM      8  C   UNL     1      38.919  -0.706   8.963  0.00  0.00    +0.000 A 
ATOM      9  C   UNL     1      40.069  -0.937  11.521  0.00  0.00    +0.000 A 
ATOM     10  C   UNL     1      40.725  -1.419  10.390  0.00  0.00    +0.000 A 
ATOM     11  C   UNL     1      40.163  -1.309   9.117  0.00  0.00    +0.000 A 
ENDROOT
BRANCH   5  12
ATOM     12  C   UNL     1      36.342   1.223  13.695  0.00  0.00    +0.000 A 
ATOM     13  C   UNL     1      35.365   2.222  13.648  0.00  0.00    +0.000 A 
ATOM     14  C   UNL     1      36.707   0.692  14.940  0.00  0.00    +0.000 A 
ATOM     15  C   UNL     1      34.775   2.671  14.822  0.00  0.00    +0.000 A 
ATOM     16  C   UNL     1      36.115   1.142  16.120  0.00  0.00    +0.000 A 
ATOM     17  C   UNL     1      35.146   2.135  16.050  0.00  0.00    +0.000 A 
BRANCH  15  18
ATOM     18  O   UNL     1      33.822   3.647  14.762  0.00  0.00    +0.000 OA
ATOM     19  H   UNL     1      32.971   3.181  14.891  0.00  0.00    +0.000 HD
ENDBRANCH  15  18
BRANCH  17  20
ATOM     20  O   UNL     1      34.536   2.611  17.178  0.00  0.00    +0.000 OA
ATOM     21  H   UNL     1      35.222   3.021  17.736  0.00  0.00    +0.000 HD
ENDBRANCH  17  20
ENDBRANCH   5  12
BRANCH   8  22
ATOM     22  O   UNL     1      38.416  -0.625   7.694  0.00  0.00    +0.000 OA
ATOM     23  H   UNL     1      37.446  -0.779   7.714  0.00  0.00    +0.000 HD
ENDBRANCH   8  22
BRANCH  10  24
ATOM     24  O   UNL     1      41.946  -2.007  10.556  0.00  0.00    +0.000 OA
ATOM     25  H   UNL     1      42.226  -2.375   9.699  0.00  0.00    +0.000 HD
ENDBRANCH  10  24
TORSDOF 5
ENDMDL
MODEL 3
REMARK VINA RESULT:      -7.6      4.052      7.248
REMARK  Name = 5280445_Luteolin.pdbqt.pdb
REMARK  5 active torsions:
REMARK  status: ('A' for Active; 'I' for Inactive)
REMARK    1  A    between atoms: C_5  and  C_12
REMARK    2  A    between atoms: C_8  and  O_22
REMARK    3  A    between atoms: C_10  and  O_24
REMARK    4  A    between atoms: C_15  and  O_18
REMARK    5  A    between atoms: C_17  and  O_20
REMARK                            x       y       z     vdW  Elec       q    Type
REMARK                         _______ _______ _______ _____ _____    ______ ____
ROOT
ATOM      1  O   UNL     1      36.939   3.146  16.361  0.00  0.00    +0.000 OA
ATOM      2  O   UNL     1      38.385   3.615  12.539  0.00  0.00    +0.000 OA
ATOM      3  C   UNL     1      38.536   4.295  14.837  0.00  0.00    +0.000 A 
ATOM      4  C   UNL     1      37.968   4.059  16.113  0.00  0.00    +0.000 A 
ATOM      5  C   UNL     1      36.419   2.406  15.293  0.00  0.00    +0.000 A 
ATOM      6  C   UNL     1      38.006   3.528  13.693  0.00  0.00    +0.000 A 
ATOM      7  C   UNL     1      36.979   2.669  14.159  0.00  0.00    +0.000 A 
ATOM      8  C   UNL     1      39.563   5.225  14.676  0.00  0.00    +0.000 A 
ATOM      9  C   UNL     1      38.442   4.762  17.216  0.00  0.00    +0.000 A 
ATOM     10  C   UNL     1      39.468   5.688  17.039  0.00  0.00    +0.000 A 
ATOM     11  C   UNL     1      40.031   5.925  15.784  0.00  0.00    +0.000 A 
ENDROOT
BRANCH   5  12
ATOM     12  C   UNL     1      35.346   1.455  15.554  0.00  0.00    +0.000 A 
ATOM     13  C   UNL     1      35.259   0.810  16.791  0.00  0.00    +0.000 A 
ATOM     14  C   UNL     1      34.386   1.172  14.574  0.00  0.00    +0.000 A 
ATOM     15  C   UNL     1      34.233  -0.095  17.030  0.00  0.00    +0.000 A 
ATOM     16  C   UNL     1      33.355   0.263  14.813  0.00  0.00    +0.000 A 
ATOM     17  C   UNL     1      33.287  -0.367  16.049  0.00  0.00    +0.000 A 
BRANCH  15  18
ATOM     18  O   UNL     1      34.160  -0.718  18.243  0.00  0.00    +0.000 OA
ATOM     19  H   UNL     1      33.453  -0.248  18.729  0.00  0.00    +0.000 HD
ENDBRANCH  15  18
BRANCH  17  20
ATOM     20  O   UNL     1      32.296  -1.266  16.334  0.00  0.00    +0.000 OA
ATOM     21  H   UNL     1      32.111  -1.210  17.289  0.00  0.00    +0.000 HD
ENDBRANCH  17  20
ENDBRANCH   5  12
BRANCH   8  22
ATOM     22  O   UNL     1      40.149   5.496  13.471  0.00  0.00    +0.000 OA
ATOM     23  H   UNL     1      39.551   6.061  12.934  0.00  0.00    +0.000 HD
ENDBRANCH   8  22
BRANCH  10  24
ATOM     24  O   UNL     1      39.917   6.368  18.135  0.00  0.00    +0.000 OA
ATOM     25  H   UNL     1      40.886   6.447  18.069  0.00  0.00    +0.000 HD
ENDBRANCH  10  24
TORSDOF 5
ENDMDL
MODEL 4
REMARK VINA RESULT:      -7.4      2.087      3.088
REMARK  Name = 5280445_Luteolin.pdbqt.pdb
REMARK  5 active torsions:
REMARK  status: ('A' for Active; 'I' for Inactive)
REMARK    1  A    between atoms: C_5  and  C_12
REMARK    2  A    between atoms: C_8  and  O_22
REMARK    3  A    between atoms: C_10  and  O_24
REMARK    4  A    between atoms: C_15  and  O_18
REMARK    5  A    between atoms: C_17  and  O_20
REMARK                            x       y       z     vdW  Elec       q    Type
REMARK                         _______ _______ _______ _____ _____    ______ ____
ROOT
ATOM      1  O   UNL     1      36.780   2.247  14.352  0.00  0.00    +0.000 OA
ATOM      2  O   UNL     1      34.121  -0.764  15.235  0.00  0.00    +0.000 OA
ATOM      3  C   UNL     1      35.385   1.100  16.066  0.00  0.00    +0.000 A 
ATOM      4  C   UNL     1      36.301   2.101  15.658  0.00  0.00    +0.000 A 
ATOM      5  C   UNL     1      36.339   1.356  13.367  0.00  0.00    +0.000 A 
ATOM      6  C   UNL     1      34.905   0.148  15.047  0.00  0.00    +0.000 A 
ATOM      7  C   UNL     1      35.507   0.470  13.804  0.00  0.00    +0.000 A 
ATOM      8  C   UNL     1      34.957   1.026  17.390  0.00  0.00    +0.000 A 
ATOM      9  C   UNL     1      36.776   3.018  16.590  0.00  0.00    +0.000 A 
ATOM     10  C   UNL     1      36.339   2.930  17.910  0.00  0.00    +0.000 A 
ATOM     11  C   UNL     1      35.438   1.946  18.317  0.00  0.00    +0.000 A 
ENDROOT
BRANCH   5  12
ATOM     12  C   UNL     1      36.839   1.510  12.007  0.00  0.00    +0.000 A 
ATOM     13  C   UNL     1      37.289   2.755  11.556  0.00  0.00    +0.000 A 
ATOM     14  C   UNL     1      36.879   0.418  11.130  0.00  0.00    +0.000 A 
ATOM     15  C   UNL     1      37.763   2.891  10.258  0.00  0.00    +0.000 A 
ATOM     16  C   UNL     1      37.355   0.555   9.826  0.00  0.00    +0.000 A 
ATOM     17  C   UNL     1      37.797   1.799   9.398  0.00  0.00    +0.000 A 
BRANCH  15  18
ATOM     18  O   UNL     1      38.200   4.113   9.830  0.00  0.00    +0.000 OA
ATOM     19  H   UNL     1      39.077   3.945   9.432  0.00  0.00    +0.000 HD
ENDBRANCH  15  18
BRANCH  17  20
ATOM     20  O   UNL     1      38.274   1.986   8.129  0.00  0.00    +0.000 OA
ATOM     21  H   UNL     1      37.853   2.789   7.771  0.00  0.00    +0.000 HD
ENDBRANCH  17  20
ENDBRANCH   5  12
BRANCH   8  22
ATOM     22  O   UNL     1      34.076   0.083  17.843  0.00  0.00    +0.000 OA
ATOM     23  H   UNL     1      33.237   0.146  17.336  0.00  0.00    +0.000 HD
ENDBRANCH   8  22
BRANCH  10  24
ATOM     24  O   UNL     1      36.819   3.839  18.809  0.00  0.00    +0.000 OA
ATOM     25  H   UNL     1      37.767   3.661  18.947  0.00  0.00    +0.000 HD
ENDBRANCH  10  24
TORSDOF 5
ENDMDL
MODEL 5
REMARK VINA RESULT:      -7.0      2.552      3.131
REMARK  Name = 5280445_Luteolin.pdbqt.pdb
REMARK  5 active torsions:
REMARK  status: ('A' for Active; 'I' for Inactive)
REMARK    1  A    between atoms: C_5  and  C_12
REMARK    2  A    between atoms: C_8  and  O_22
REMARK    3  A    between atoms: C_10  and  O_24
REMARK    4  A    between atoms: C_15  and  O_18
REMARK    5  A    between atoms: C_17  and  O_20
REMARK                            x       y       z     vdW  Elec       q    Type
REMARK                         _______ _______ _______ _____ _____    ______ ____
ROOT
ATOM      1  O   UNL     1      37.679   2.941  13.536  0.00  0.00    +0.000 OA
ATOM      2  O   UNL     1      33.998   1.803  14.975  0.00  0.00    +0.000 OA
ATOM      3  C   UNL     1      36.090   2.881  15.450  0.00  0.00    +0.000 A 
ATOM      4  C   UNL     1      37.329   3.228  14.858  0.00  0.00    +0.000 A 
ATOM      5  C   UNL     1      36.759   2.266  12.725  0.00  0.00    +0.000 A 
ATOM      6  C   UNL     1      35.102   2.169  14.617  0.00  0.00    +0.000 A 
ATOM      7  C   UNL     1      35.652   1.979  13.324  0.00  0.00    +0.000 A 
ATOM      8  C   UNL     1      35.820   3.207  16.779  0.00  0.00    +0.000 A 
ATOM      9  C   UNL     1      38.285   3.901  15.612  0.00  0.00    +0.000 A 
ATOM     10  C   UNL     1      38.001   4.219  16.939  0.00  0.00    +0.000 A 
ATOM     11  C   UNL     1      36.782   3.879  17.527  0.00  0.00    +0.000 A 
ENDROOT
BRANCH   5  12
ATOM     12  C   UNL     1      37.127   1.968  11.346  0.00  0.00    +0.000 A 
ATOM     13  C   UNL     1      36.490   0.935  10.652  0.00  0.00    +0.000 A 
ATOM     14  C   UNL     1      38.121   2.709  10.694  0.00  0.00    +0.000 A 
ATOM     15  C   UNL     1      36.848   0.659   9.338  0.00  0.00    +0.000 A 
ATOM     16  C   UNL     1      38.481   2.433   9.375  0.00  0.00    +0.000 A 
ATOM     17  C   UNL     1      37.836   1.403   8.703  0.00  0.00    +0.000 A 
BRANCH  15  18
ATOM     18  O   UNL     1      36.217  -0.352   8.672  0.00  0.00    +0.000 OA
ATOM     19  H   UNL     1      36.569  -0.315   7.760  0.00  0.00    +0.000 HD
ENDBRANCH  15  18
BRANCH  17  20
ATOM     20  O   UNL     1      38.152   1.091   7.409  0.00  0.00    +0.000 OA
ATOM     21  H   UNL     1      37.658   0.286   7.169  0.00  0.00    +0.000 HD
ENDBRANCH  17  20
ENDBRANCH   5  12
BRANCH   8  22
ATOM     22  O   UNL     1      34.644   2.898  17.405  0.00  0.00    +0.000 OA
ATOM     23  H   UNL     1      34.555   3.437  18.221  0.00  0.00    +0.000 HD
ENDBRANCH   8  22
BRANCH  10  24
ATOM     24  O   UNL     1      38.954   4.879  17.661  0.00  0.00    +0.000 OA
ATOM     25  H   UNL     1      38.511   5.366  18.378  0.00  0.00    +0.000 HD
ENDBRANCH  10  24
TORSDOF 5
ENDMDL
MODEL 6
REMARK VINA RESULT:      -6.9     21.401     23.023
REMARK  Name = 5280445_Luteolin.pdbqt.pdb
REMARK  5 active torsions:
REMARK  status: ('A' for Active; 'I' for Inactive)
REMARK    1  A    between atoms: C_5  and  C_12
REMARK    2  A    between atoms: C_8  and  O_22
REMARK    3  A    between atoms: C_10  and  O_24
REMARK    4  A    between atoms: C_15  and  O_18
REMARK    5  A    between atoms: C_17  and  O_20
REMARK                            x       y       z     vdW  Elec       q    Type
REMARK                         _______ _______ _______ _____ _____    ______ ____
ROOT
ATOM      1  O   UNL     1      22.500 -13.822  24.104  0.00  0.00    +0.000 OA
ATOM      2  O   UNL     1      23.898  -9.992  24.644  0.00  0.00    +0.000 OA
ATOM      3  C   UNL     1      21.974 -11.411  24.427  0.00  0.00    +0.000 A 
ATOM      4  C   UNL     1      21.597 -12.764  24.238  0.00  0.00    +0.000 A 
ATOM      5  C   UNL     1      23.873 -13.551  24.157  0.00  0.00    +0.000 A 
ATOM      6  C   UNL     1      23.414 -11.098  24.487  0.00  0.00    +0.000 A 
ATOM      7  C   UNL     1      24.148 -12.301  24.332  0.00  0.00    +0.000 A 
ATOM      8  C   UNL     1      21.006 -10.415  24.553  0.00  0.00    +0.000 A 
ATOM      9  C   UNL     1      20.248 -13.099  24.177  0.00  0.00    +0.000 A 
ATOM     10  C   UNL     1      19.293 -12.092  24.303  0.00  0.00    +0.000 A 
ATOM     11  C   UNL     1      19.659 -10.758  24.490  0.00  0.00    +0.000 A 
ENDROOT
BRANCH   5  12
ATOM     12  C   UNL     1      24.812 -14.656  24.018  0.00  0.00    +0.000 A 
ATOM     13  C   UNL     1      25.667 -14.723  22.914  0.00  0.00    +0.000 A 
ATOM     14  C   UNL     1      24.876 -15.667  24.986  0.00  0.00    +0.000 A 
ATOM     15  C   UNL     1      26.558 -15.781  22.791  0.00  0.00    +0.000 A 
ATOM     16  C   UNL     1      25.771 -16.730  24.863  0.00  0.00    +0.000 A 
ATOM     17  C   UNL     1      26.611 -16.778  23.758  0.00  0.00    +0.000 A 
BRANCH  15  18
ATOM     18  O   UNL     1      27.388 -15.834  21.708  0.00  0.00    +0.000 OA
ATOM     19  H   UNL     1      27.743 -16.746  21.703  0.00  0.00    +0.000 HD
ENDBRANCH  15  18
BRANCH  17  20
ATOM     20  O   UNL     1      27.507 -17.799  23.591  0.00  0.00    +0.000 OA
ATOM     21  H   UNL     1      28.031 -17.870  24.409  0.00  0.00    +0.000 HD
ENDBRANCH  17  20
ENDBRANCH   5  12
BRANCH   8  22
ATOM     22  O   UNL     1      21.308  -9.094  24.736  0.00  0.00    +0.000 OA
ATOM     23  H   UNL     1      22.250  -9.005  25.000  0.00  0.00    +0.000 HD
ENDBRANCH   8  22
BRANCH  10  24
ATOM     24  O   UNL     1      17.975 -12.442  24.240  0.00  0.00    +0.000 OA
ATOM     25  H   UNL     1      17.455 -11.641  24.053  0.00  0.00    +0.000 HD
ENDBRANCH  10  24
TORSDOF 5
ENDMDL
MODEL 7
REMARK VINA RESULT:      -6.4     27.052     30.582
REMARK  Name = 5280445_Luteolin.pdbqt.pdb
REMARK  5 active torsions:
REMARK  status: ('A' for Active; 'I' for Inactive)
REMARK    1  A    between atoms: C_5  and  C_12
REMARK    2  A    between atoms: C_8  and  O_22
REMARK    3  A    between atoms: C_10  and  O_24
REMARK    4  A    between atoms: C_15  and  O_18
REMARK    5  A    between atoms: C_17  and  O_20
REMARK                            x       y       z     vdW  Elec       q    Type
REMARK                         _______ _______ _______ _____ _____    ______ ____
ROOT
ATOM      1  O   UNL     1      17.015   4.120  35.284  0.00  0.00    +0.000 OA
ATOM      2  O   UNL     1      20.175   5.271  32.915  0.00  0.00    +0.000 OA
ATOM      3  C   UNL     1      17.912   4.471  32.988  0.00  0.00    +0.000 A 
ATOM      4  C   UNL     1      16.887   4.095  33.892  0.00  0.00    +0.000 A 
ATOM      5  C   UNL     1      18.227   4.539  35.844  0.00  0.00    +0.000 A 
ATOM      6  C   UNL     1      19.200   4.917  33.553  0.00  0.00    +0.000 A 
ATOM      7  C   UNL     1      19.117   4.867  34.968  0.00  0.00    +0.000 A 
ATOM      8  C   UNL     1      17.701   4.418  31.611  0.00  0.00    +0.000 A 
ATOM      9  C   UNL     1      15.659   3.670  33.397  0.00  0.00    +0.000 A 
ATOM     10  C   UNL     1      15.463   3.622  32.018  0.00  0.00    +0.000 A 
ATOM     11  C   UNL     1      16.469   3.990  31.125  0.00  0.00    +0.000 A 
ENDROOT
BRANCH   5  12
ATOM     12  C   UNL     1      18.358   4.564  37.295  0.00  0.00    +0.000 A 
ATOM     13  C   UNL     1      19.264   5.433  37.909  0.00  0.00    +0.000 A 
ATOM     14  C   UNL     1      17.579   3.720  38.098  0.00  0.00    +0.000 A 
ATOM     15  C   UNL     1      19.381   5.448  39.293  0.00  0.00    +0.000 A 
ATOM     16  C   UNL     1      17.696   3.735  39.488  0.00  0.00    +0.000 A 
ATOM     17  C   UNL     1      18.602   4.606  40.078  0.00  0.00    +0.000 A 
BRANCH  15  18
ATOM     18  O   UNL     1      20.270   6.303  39.880  0.00  0.00    +0.000 OA
ATOM     19  H   UNL     1      20.056   7.185  39.513  0.00  0.00    +0.000 HD
ENDBRANCH  15  18
BRANCH  17  20
ATOM     20  O   UNL     1      18.755   4.659  41.437  0.00  0.00    +0.000 OA
ATOM     21  H   UNL     1      17.899   4.428  41.840  0.00  0.00    +0.000 HD
ENDBRANCH  17  20
ENDBRANCH   5  12
BRANCH   8  22
ATOM     22  O   UNL     1      18.650   4.767  30.692  0.00  0.00    +0.000 OA
ATOM     23  H   UNL     1      18.650   4.116  29.956  0.00  0.00    +0.000 HD
ENDBRANCH   8  22
BRANCH  10  24
ATOM     24  O   UNL     1      14.250   3.200  31.555  0.00  0.00    +0.000 OA
ATOM     25  H   UNL     1      14.130   3.548  30.653  0.00  0.00    +0.000 HD
ENDBRANCH  10  24
TORSDOF 5
ENDMDL
MODEL 8
REMARK VINA RESULT:      -6.3     21.044     23.195
REMARK  Name = 5280445_Luteolin.pdbqt.pdb
REMARK  5 active torsions:
REMARK  status: ('A' for Active; 'I' for Inactive)
REMARK    1  A    between atoms: C_5  and  C_12
REMARK    2  A    between atoms: C_8  and  O_22
REMARK    3  A    between atoms: C_10  and  O_24
REMARK    4  A    between atoms: C_15  and  O_18
REMARK    5  A    between atoms: C_17  and  O_20
REMARK                            x       y       z     vdW  Elec       q    Type
REMARK                         _______ _______ _______ _____ _____    ______ ____
ROOT
ATOM      1  O   UNL     1      50.126   2.789  31.869  0.00  0.00    +0.000 OA
ATOM      2  O   UNL     1      48.846   4.874  28.563  0.00  0.00    +0.000 OA
ATOM      3  C   UNL     1      49.742   4.997  30.787  0.00  0.00    +0.000 A 
ATOM      4  C   UNL     1      50.158   4.186  31.872  0.00  0.00    +0.000 A 
ATOM      5  C   UNL     1      49.654   2.126  30.730  0.00  0.00    +0.000 A 
ATOM      6  C   UNL     1      49.240   4.323  29.575  0.00  0.00    +0.000 A 
ATOM      7  C   UNL     1      49.291   2.921  29.780  0.00  0.00    +0.000 A 
ATOM      8  C   UNL     1      49.808   6.388  30.872  0.00  0.00    +0.000 A 
ATOM      9  C   UNL     1      50.638   4.786  33.032  0.00  0.00    +0.000 A 
ATOM     10  C   UNL     1      50.698   6.176  33.102  0.00  0.00    +0.000 A 
ATOM     11  C   UNL     1      50.288   6.979  32.036  0.00  0.00    +0.000 A 
ENDROOT
BRANCH   5  12
ATOM     12  C   UNL     1      49.622   0.669  30.730  0.00  0.00    +0.000 A 
ATOM     13  C   UNL     1      48.916  -0.023  29.742  0.00  0.00    +0.000 A 
ATOM     14  C   UNL     1      50.296  -0.062  31.718  0.00  0.00    +0.000 A 
ATOM     15  C   UNL     1      48.891  -1.412  29.751  0.00  0.00    +0.000 A 
ATOM     16  C   UNL     1      50.272  -1.457  31.728  0.00  0.00    +0.000 A 
ATOM     17  C   UNL     1      49.565  -2.125  30.737  0.00  0.00    +0.000 A 
BRANCH  15  18
ATOM     18  O   UNL     1      48.198  -2.075  28.780  0.00  0.00    +0.000 OA
ATOM     19  H   UNL     1      47.599  -1.406  28.391  0.00  0.00    +0.000 HD
ENDBRANCH  15  18
BRANCH  17  20
ATOM     20  O   UNL     1      49.510  -3.492  30.702  0.00  0.00    +0.000 OA
ATOM     21  H   UNL     1      49.493  -3.810  31.622  0.00  0.00    +0.000 HD
ENDBRANCH  17  20
ENDBRANCH   5  12
BRANCH   8  22
ATOM     22  O   UNL     1      49.420   7.221  29.860  0.00  0.00    +0.000 OA
ATOM     23  H   UNL     1      48.480   7.475  29.985  0.00  0.00    +0.000 HD
ENDBRANCH   8  22
BRANCH  10  24
ATOM     24  O   UNL     1      51.171   6.743  34.250  0.00  0.00    +0.000 OA
ATOM     25  H   UNL     1      52.001   6.295  34.493  0.00  0.00    +0.000 HD
ENDBRANCH  10  24
TORSDOF 5
ENDMDL
MODEL 9
REMARK VINA RESULT:      -6.2     22.153     25.433
REMARK  Name = 5280445_Luteolin.pdbqt.pdb
REMARK  5 active torsions:
REMARK  status: ('A' for Active; 'I' for Inactive)
REMARK    1  A    between atoms: C_5  and  C_12
REMARK    2  A    between atoms: C_8  and  O_22
REMARK    3  A    between atoms: C_10  and  O_24
REMARK    4  A    between atoms: C_15  and  O_18
REMARK    5  A    between atoms: C_17  and  O_20
REMARK                            x       y       z     vdW  Elec       q    Type
REMARK                         _______ _______ _______ _____ _____    ______ ____
ROOT
ATOM      1  O   UNL     1      50.137   4.603  33.331  0.00  0.00    +0.000 OA
ATOM      2  O   UNL     1      48.319   2.707  30.165  0.00  0.00    +0.000 OA
ATOM      3  C   UNL     1      49.398   4.701  30.956  0.00  0.00    +0.000 A 
ATOM      4  C   UNL     1      50.006   5.263  32.106  0.00  0.00    +0.000 A 
ATOM      5  C   UNL     1      49.641   3.299  33.453  0.00  0.00    +0.000 A 
ATOM      6  C   UNL     1      48.867   3.328  31.058  0.00  0.00    +0.000 A 
ATOM      7  C   UNL     1      49.101   2.847  32.371  0.00  0.00    +0.000 A 
ATOM      8  C   UNL     1      49.309   5.430  29.771  0.00  0.00    +0.000 A 
ATOM      9  C   UNL     1      50.519   6.555  32.049  0.00  0.00    +0.000 A 
ATOM     10  C   UNL     1      50.422   7.271  30.857  0.00  0.00    +0.000 A 
ATOM     11  C   UNL     1      49.823   6.722  29.722  0.00  0.00    +0.000 A 
ENDROOT
BRANCH   5  12
ATOM     12  C   UNL     1      49.780   2.613  34.731  0.00  0.00    +0.000 A 
ATOM     13  C   UNL     1      49.028   1.466  35.003  0.00  0.00    +0.000 A 
ATOM     14  C   UNL     1      50.667   3.088  35.706  0.00  0.00    +0.000 A 
ATOM     15  C   UNL     1      49.168   0.820  36.225  0.00  0.00    +0.000 A 
ATOM     16  C   UNL     1      50.807   2.440  36.933  0.00  0.00    +0.000 A 
ATOM     17  C   UNL     1      50.051   1.302  37.184  0.00  0.00    +0.000 A 
BRANCH  15  18
ATOM     18  O   UNL     1      48.428  -0.300  36.477  0.00  0.00    +0.000 OA
ATOM     19  H   UNL     1      47.779  -0.029  37.158  0.00  0.00    +0.000 HD
ENDBRANCH  15  18
BRANCH  17  20
ATOM     20  O   UNL     1      50.152   0.629  38.371  0.00  0.00    +0.000 OA
ATOM     21  H   UNL     1      51.087   0.385  38.494  0.00  0.00    +0.000 HD
ENDBRANCH  17  20
ENDBRANCH   5  12
BRANCH   8  22
ATOM     22  O   UNL     1      48.733   4.942  28.630  0.00  0.00    +0.000 OA
ATOM     23  H   UNL     1      49.074   4.038  28.451  0.00  0.00    +0.000 HD
ENDBRANCH   8  22
BRANCH  10  24
ATOM     24  O   UNL     1      50.931   8.537  30.823  0.00  0.00    +0.000 OA
ATOM     25  H   UNL     1      51.411   8.651  29.984  0.00  0.00    +0.000 HD
ENDBRANCH  10  24
TORSDOF 5
ENDMDL
