MODEL 1
REMARK VINA RESULT:      -7.3      0.000      0.000
REMARK  Name = 5281416_Esculetin.pdbqt.pdb
REMARK  2 active torsions:
REMARK  status: ('A' for Active; 'I' for Inactive)
REMARK    1  A    between atoms: C_7  and  O_12
REMARK    2  A    between atoms: C_8  and  O_14
REMARK                            x       y       z     vdW  Elec       q    Type
REMARK                         _______ _______ _______ _____ _____    ______ ____
ROOT
ATOM      1  O   UNL     1      37.743  -1.979  36.427  0.00  0.00    +0.000 OA
ATOM      2  O   UNL     1      36.147  -3.554  37.117  0.00  0.00    +0.000 OA
ATOM      3  C   UNL     1      37.576   0.286  37.456  0.00  0.00    +0.000 A 
ATOM      4  C   UNL     1      38.220  -0.620  36.570  0.00  0.00    +0.000 A 
ATOM      5  C   UNL     1      38.027   1.588  37.598  0.00  0.00    +0.000 A 
ATOM      6  C   UNL     1      39.321  -0.238  35.818  0.00  0.00    +0.000 A 
ATOM      7  C   UNL     1      39.133   1.969  36.841  0.00  0.00    +0.000 A 
ATOM      8  C   UNL     1      39.766   1.072  35.968  0.00  0.00    +0.000 A 
ATOM      9  C   UNL     1      36.469  -0.268  38.146  0.00  0.00    +0.000 A 
ATOM     10  C   UNL     1      36.091  -1.392  38.014  0.00  0.00    +0.000 A 
ATOM     11  C   UNL     1      36.619  -2.431  37.172  0.00  0.00    +0.000 A 
ENDROOT
BRANCH   7  12
ATOM     12  O   UNL     1      39.640   3.240  36.925  0.00  0.00    +0.000 OA
ATOM     13  H   UNL     1      39.176   3.790  36.267  0.00  0.00    +0.000 HD
ENDBRANCH   7  12
BRANCH   8  14
ATOM     14  O   UNL     1      40.849   1.489  35.244  0.00  0.00    +0.000 OA
ATOM     15  H   UNL     1      41.143   0.701  34.742  0.00  0.00    +0.000 HD
ENDBRANCH   8  14
TORSDOF 2
ENDMDL
MODEL 2
REMARK VINA RESULT:      -6.8      1.944      2.401
REMARK  Name = 5281416_Esculetin.pdbqt.pdb
REMARK  2 active torsions:
REMARK  status: ('A' for Active; 'I' for Inactive)
REMARK    1  A    between atoms: C_7  and  O_12
REMARK    2  A    between atoms: C_8  and  O_14
REMARK                            x       y       z     vdW  Elec       q    Type
REMARK                         _______ _______ _______ _____ _____    ______ ____
ROOT
ATOM      1  O   UNL     1      37.010  -0.907  39.063  0.00  0.00    +0.000 OA
ATOM      2  O   UNL     1      35.035  -0.729  40.318  0.00  0.00    +0.000 OA
ATOM      3  C   UNL     1      37.661   1.102  37.736  0.00  0.00    +0.000 A 
ATOM      4  C   UNL     1      37.913  -0.234  38.155  0.00  0.00    +0.000 A 
ATOM      5  C   UNL     1      38.522   1.752  36.867  0.00  0.00    +0.000 A 
ATOM      6  C   UNL     1      39.027  -0.933  37.712  0.00  0.00    +0.000 A 
ATOM      7  C   UNL     1      39.638   1.048  36.424  0.00  0.00    +0.000 A 
ATOM      8  C   UNL     1      39.884  -0.270  36.840  0.00  0.00    +0.000 A 
ATOM      9  C   UNL     1      36.482   1.666  38.284  0.00  0.00    +0.000 A 
ATOM     10  C   UNL     1      35.749   1.093  39.032  0.00  0.00    +0.000 A 
ATOM     11  C   UNL     1      35.851  -0.243  39.552  0.00  0.00    +0.000 A 
ENDROOT
BRANCH   7  12
ATOM     12  O   UNL     1      40.537   1.621  35.564  0.00  0.00    +0.000 OA
ATOM     13  H   UNL     1      41.120   2.203  36.086  0.00  0.00    +0.000 HD
ENDBRANCH   7  12
BRANCH   8  14
ATOM     14  O   UNL     1      40.993  -0.924  36.379  0.00  0.00    +0.000 OA
ATOM     15  H   UNL     1      41.478  -1.207  37.181  0.00  0.00    +0.000 HD
ENDBRANCH   8  14
TORSDOF 2
ENDMDL
MODEL 3
REMARK VINA RESULT:      -6.6      1.913      4.444
REMARK  Name = 5281416_Esculetin.pdbqt.pdb
REMARK  2 active torsions:
REMARK  status: ('A' for Active; 'I' for Inactive)
REMARK    1  A    between atoms: C_7  and  O_12
REMARK    2  A    between atoms: C_8  and  O_14
REMARK                            x       y       z     vdW  Elec       q    Type
REMARK                         _______ _______ _______ _____ _____    ______ ____
ROOT
ATOM      1  O   UNL     1      38.864  -1.660  36.509  0.00  0.00    +0.000 OA
ATOM      2  O   UNL     1      41.122  -1.033  36.386  0.00  0.00    +0.000 OA
ATOM      3  C   UNL     1      37.356  -0.122  37.765  0.00  0.00    +0.000 A 
ATOM      4  C   UNL     1      37.552  -1.310  37.009  0.00  0.00    +0.000 A 
ATOM      5  C   UNL     1      36.103   0.220  38.247  0.00  0.00    +0.000 A 
ATOM      6  C   UNL     1      36.500  -2.169  36.726  0.00  0.00    +0.000 A 
ATOM      7  C   UNL     1      35.049  -0.645  37.961  0.00  0.00    +0.000 A 
ATOM      8  C   UNL     1      35.246  -1.816  37.214  0.00  0.00    +0.000 A 
ATOM      9  C   UNL     1      38.535   0.639  37.961  0.00  0.00    +0.000 A 
ATOM     10  C   UNL     1      39.609   0.332  37.540  0.00  0.00    +0.000 A 
ATOM     11  C   UNL     1      39.982  -0.820  36.766  0.00  0.00    +0.000 A 
ENDROOT
BRANCH   7  12
ATOM     12  O   UNL     1      33.780  -0.377  38.402  0.00  0.00    +0.000 OA
ATOM     13  H   UNL     1      33.698   0.588  38.510  0.00  0.00    +0.000 HD
ENDBRANCH   7  12
BRANCH   8  14
ATOM     14  O   UNL     1      34.183  -2.637  36.957  0.00  0.00    +0.000 OA
ATOM     15  H   UNL     1      34.543  -3.546  36.992  0.00  0.00    +0.000 HD
ENDBRANCH   8  14
TORSDOF 2
ENDMDL
MODEL 4
REMARK VINA RESULT:      -6.5      2.980      3.170
REMARK  Name = 5281416_Esculetin.pdbqt.pdb
REMARK  2 active torsions:
REMARK  status: ('A' for Active; 'I' for Inactive)
REMARK    1  A    between atoms: C_7  and  O_12
REMARK    2  A    between atoms: C_8  and  O_14
REMARK                            x       y       z     vdW  Elec       q    Type
REMARK                         _______ _______ _______ _____ _____    ______ ____
ROOT
ATOM      1  O   UNL     1      37.367  -2.615  38.343  0.00  0.00    +0.000 OA
ATOM      2  O   UNL     1      36.556  -4.540  37.275  0.00  0.00    +0.000 OA
ATOM      3  C   UNL     1      35.839  -0.645  38.380  0.00  0.00    +0.000 A 
ATOM      4  C   UNL     1      37.083  -1.246  38.717  0.00  0.00    +0.000 A 
ATOM      5  C   UNL     1      35.560   0.665  38.735  0.00  0.00    +0.000 A 
ATOM      6  C   UNL     1      38.060  -0.547  39.411  0.00  0.00    +0.000 A 
ATOM      7  C   UNL     1      36.543   1.364  39.431  0.00  0.00    +0.000 A 
ATOM      8  C   UNL     1      37.769   0.767  39.762  0.00  0.00    +0.000 A 
ATOM      9  C   UNL     1      34.957  -1.499  37.672  0.00  0.00    +0.000 A 
ATOM     10  C   UNL     1      35.212  -2.626  37.373  0.00  0.00    +0.000 A 
ATOM     11  C   UNL     1      36.406  -3.383  37.631  0.00  0.00    +0.000 A 
ENDROOT
BRANCH   7  12
ATOM     12  O   UNL     1      36.343   2.663  39.818  0.00  0.00    +0.000 OA
ATOM     13  H   UNL     1      35.698   3.061  39.205  0.00  0.00    +0.000 HD
ENDBRANCH   7  12
BRANCH   8  14
ATOM     14  O   UNL     1      38.706   1.490  40.447  0.00  0.00    +0.000 OA
ATOM     15  H   UNL     1      38.765   2.347  39.977  0.00  0.00    +0.000 HD
ENDBRANCH   8  14
TORSDOF 2
ENDMDL
MODEL 5
REMARK VINA RESULT:      -6.2      2.032      2.513
REMARK  Name = 5281416_Esculetin.pdbqt.pdb
REMARK  2 active torsions:
REMARK  status: ('A' for Active; 'I' for Inactive)
REMARK    1  A    between atoms: C_7  and  O_12
REMARK    2  A    between atoms: C_8  and  O_14
REMARK                            x       y       z     vdW  Elec       q    Type
REMARK                         _______ _______ _______ _____ _____    ______ ____
ROOT
ATOM      1  O   UNL     1      35.275  -1.496  37.610  0.00  0.00    +0.000 OA
ATOM      2  O   UNL     1      32.945  -1.696  37.798  0.00  0.00    +0.000 OA
ATOM      3  C   UNL     1      36.264   0.663  38.371  0.00  0.00    +0.000 A 
ATOM      4  C   UNL     1      36.422  -0.640  37.824  0.00  0.00    +0.000 A 
ATOM      5  C   UNL     1      37.358   1.488  38.579  0.00  0.00    +0.000 A 
ATOM      6  C   UNL     1      37.672  -1.134  37.480  0.00  0.00    +0.000 A 
ATOM      7  C   UNL     1      38.611   0.989  38.232  0.00  0.00    +0.000 A 
ATOM      8  C   UNL     1      38.763  -0.298  37.693  0.00  0.00    +0.000 A 
ATOM      9  C   UNL     1      34.922   1.007  38.665  0.00  0.00    +0.000 A 
ATOM     10  C   UNL     1      33.989   0.286  38.481  0.00  0.00    +0.000 A 
ATOM     11  C   UNL     1      33.967  -1.046  37.943  0.00  0.00    +0.000 A 
ENDROOT
BRANCH   7  12
ATOM     12  O   UNL     1      39.742   1.743  38.407  0.00  0.00    +0.000 OA
ATOM     13  H   UNL     1      39.741   2.074  39.324  0.00  0.00    +0.000 HD
ENDBRANCH   7  12
BRANCH   8  14
ATOM     14  O   UNL     1      40.013  -0.747  37.367  0.00  0.00    +0.000 OA
ATOM     15  H   UNL     1      40.416  -0.029  36.838  0.00  0.00    +0.000 HD
ENDBRANCH   8  14
TORSDOF 2
ENDMDL
MODEL 6
REMARK VINA RESULT:      -5.3     33.459     34.270
REMARK  Name = 5281416_Esculetin.pdbqt.pdb
REMARK  2 active torsions:
REMARK  status: ('A' for Active; 'I' for Inactive)
REMARK    1  A    between atoms: C_7  and  O_12
REMARK    2  A    between atoms: C_8  and  O_14
REMARK                            x       y       z     vdW  Elec       q    Type
REMARK                         _______ _______ _______ _____ _____    ______ ____
ROOT
ATOM      1  O   UNL     1      26.096   1.325   5.889  0.00  0.00    +0.000 OA
ATOM      2  O   UNL     1      28.065   2.566   5.593  0.00  0.00    +0.000 OA
ATOM      3  C   UNL     1      26.107  -0.998   4.983  0.00  0.00    +0.000 A 
ATOM      4  C   UNL     1      25.436   0.058   5.658  0.00  0.00    +0.000 A 
ATOM      5  C   UNL     1      25.481  -2.214   4.758  0.00  0.00    +0.000 A 
ATOM      6  C   UNL     1      24.134  -0.087   6.116  0.00  0.00    +0.000 A 
ATOM      7  C   UNL     1      24.175  -2.356   5.219  0.00  0.00    +0.000 A 
ATOM      8  C   UNL     1      23.516  -1.312   5.885  0.00  0.00    +0.000 A 
ATOM      9  C   UNL     1      27.429  -0.681   4.584  0.00  0.00    +0.000 A 
ATOM     10  C   UNL     1      27.956   0.371   4.784  0.00  0.00    +0.000 A 
ATOM     11  C   UNL     1      27.430   1.535   5.444  0.00  0.00    +0.000 A 
ENDROOT
BRANCH   7  12
ATOM     12  O   UNL     1      23.488  -3.528   5.036  0.00  0.00    +0.000 OA
ATOM     13  H   UNL     1      23.619  -4.078   5.830  0.00  0.00    +0.000 HD
ENDBRANCH   7  12
BRANCH   8  14
ATOM     14  O   UNL     1      22.232  -1.496   6.321  0.00  0.00    +0.000 OA
ATOM     15  H   UNL     1      21.937  -0.616   6.632  0.00  0.00    +0.000 HD
ENDBRANCH   8  14
TORSDOF 2
ENDMDL
MODEL 7
REMARK VINA RESULT:      -5.3      3.834      4.591
REMARK  Name = 5281416_Esculetin.pdbqt.pdb
REMARK  2 active torsions:
REMARK  status: ('A' for Active; 'I' for Inactive)
REMARK    1  A    between atoms: C_7  and  O_12
REMARK    2  A    between atoms: C_8  and  O_14
REMARK                            x       y       z     vdW  Elec       q    Type
REMARK                         _______ _______ _______ _____ _____    ______ ____
ROOT
ATOM      1  O   UNL     1      37.898  -1.455  42.439  0.00  0.00    +0.000 OA
ATOM      2  O   UNL     1      37.107  -2.874  44.131  0.00  0.00    +0.000 OA
ATOM      3  C   UNL     1      36.486  -1.284  40.390  0.00  0.00    +0.000 A 
ATOM      4  C   UNL     1      37.650  -0.914  41.120  0.00  0.00    +0.000 A 
ATOM      5  C   UNL     1      36.242  -0.769  39.127  0.00  0.00    +0.000 A 
ATOM      6  C   UNL     1      38.580  -0.027  40.597  0.00  0.00    +0.000 A 
ATOM      7  C   UNL     1      37.178   0.120  38.605  0.00  0.00    +0.000 A 
ATOM      8  C   UNL     1      38.325   0.483  39.328  0.00  0.00    +0.000 A 
ATOM      9  C   UNL     1      35.643  -2.197  41.071  0.00  0.00    +0.000 A 
ATOM     10  C   UNL     1      35.867  -2.632  42.160  0.00  0.00    +0.000 A 
ATOM     11  C   UNL     1      36.981  -2.368  43.028  0.00  0.00    +0.000 A 
ENDROOT
BRANCH   7  12
ATOM     12  O   UNL     1      37.009   0.672  37.363  0.00  0.00    +0.000 OA
ATOM     13  H   UNL     1      36.314   1.353  37.431  0.00  0.00    +0.000 HD
ENDBRANCH   7  12
BRANCH   8  14
ATOM     14  O   UNL     1      39.218   1.359  38.777  0.00  0.00    +0.000 OA
ATOM     15  H   UNL     1      39.264   1.119  37.829  0.00  0.00    +0.000 HD
ENDBRANCH   8  14
TORSDOF 2
ENDMDL
MODEL 8
REMARK VINA RESULT:      -5.0     20.123     20.973
REMARK  Name = 5281416_Esculetin.pdbqt.pdb
REMARK  2 active torsions:
REMARK  status: ('A' for Active; 'I' for Inactive)
REMARK    1  A    between atoms: C_7  and  O_12
REMARK    2  A    between atoms: C_8  and  O_14
REMARK                            x       y       z     vdW  Elec       q    Type
REMARK                         _______ _______ _______ _____ _____    ______ ____
ROOT
ATOM      1  O   UNL     1      20.490  -7.658  42.800  0.00  0.00    +0.000 OA
ATOM      2  O   UNL     1      20.826  -7.586  45.122  0.00  0.00    +0.000 OA
ATOM      3  C   UNL     1      20.128  -9.915  41.805  0.00  0.00    +0.000 A 
ATOM      4  C   UNL     1      20.245  -8.506  41.654  0.00  0.00    +0.000 A 
ATOM      5  C   UNL     1      19.893 -10.733  40.713  0.00  0.00    +0.000 A 
ATOM      6  C   UNL     1      20.129  -7.899  40.412  0.00  0.00    +0.000 A 
ATOM      7  C   UNL     1      19.777 -10.121  39.467  0.00  0.00    +0.000 A 
ATOM      8  C   UNL     1      19.893  -8.730  39.322  0.00  0.00    +0.000 A 
ATOM      9  C   UNL     1      20.273 -10.367  43.141  0.00  0.00    +0.000 A 
ATOM     10  C   UNL     1      20.475  -9.650  44.073  0.00  0.00    +0.000 A 
ATOM     11  C   UNL     1      20.619  -8.220  44.100  0.00  0.00    +0.000 A 
ENDROOT
BRANCH   7  12
ATOM     12  O   UNL     1      19.545 -10.862  38.337  0.00  0.00    +0.000 OA
ATOM     13  H   UNL     1      18.734 -10.519  37.918  0.00  0.00    +0.000 HD
ENDBRANCH   7  12
BRANCH   8  14
ATOM     14  O   UNL     1      19.772  -8.172  38.079  0.00  0.00    +0.000 OA
ATOM     15  H   UNL     1      19.628  -8.924  37.471  0.00  0.00    +0.000 HD
ENDBRANCH   8  14
TORSDOF 2
ENDMDL
MODEL 9
REMARK VINA RESULT:      -4.7     34.863     35.394
REMARK  Name = 5281416_Esculetin.pdbqt.pdb
REMARK  2 active torsions:
REMARK  status: ('A' for Active; 'I' for Inactive)
REMARK    1  A    between atoms: C_7  and  O_12
REMARK    2  A    between atoms: C_8  and  O_14
REMARK                            x       y       z     vdW  Elec       q    Type
REMARK                         _______ _______ _______ _____ _____    ______ ____
ROOT
ATOM      1  O   UNL     1      24.333  -1.673   2.994  0.00  0.00    +0.000 OA
ATOM      2  O   UNL     1      23.463  -1.862   0.822  0.00  0.00    +0.000 OA
ATOM      3  C   UNL     1      22.684  -1.219   4.808  0.00  0.00    +0.000 A 
ATOM      4  C   UNL     1      24.024  -1.444   4.388  0.00  0.00    +0.000 A 
ATOM      5  C   UNL     1      22.381  -0.999   6.142  0.00  0.00    +0.000 A 
ATOM      6  C   UNL     1      25.074  -1.451   5.295  0.00  0.00    +0.000 A 
ATOM      7  C   UNL     1      23.438  -1.006   7.049  0.00  0.00    +0.000 A 
ATOM      8  C   UNL     1      24.759  -1.229   6.631  0.00  0.00    +0.000 A 
ATOM      9  C   UNL     1      21.736  -1.245   3.755  0.00  0.00    +0.000 A 
ATOM     10  C   UNL     1      22.012  -1.436   2.610  0.00  0.00    +0.000 A 
ATOM     11  C   UNL     1      23.299  -1.678   2.017  0.00  0.00    +0.000 A 
ENDROOT
BRANCH   7  12
ATOM     12  O   UNL     1      23.220  -0.796   8.385  0.00  0.00    +0.000 OA
ATOM     13  H   UNL     1      23.577   0.083   8.611  0.00  0.00    +0.000 HD
ENDBRANCH   7  12
BRANCH   8  14
ATOM     14  O   UNL     1      25.766  -1.228   7.556  0.00  0.00    +0.000 OA
ATOM     15  H   UNL     1      25.706  -2.095   8.004  0.00  0.00    +0.000 HD
ENDBRANCH   8  14
TORSDOF 2
ENDMDL
