MODEL 1
REMARK VINA RESULT:      -6.8      0.000      0.000
REMARK  Name = 5281239_Fucoxanthin.pdbqt.pdb
REMARK  19 active torsions:
REMARK  status: ('A' for Active; 'I' for Inactive)
REMARK    1  A    between atoms: C_1  and  C_5
REMARK    2  A    between atoms: C_2  and  C_26
REMARK    3  A    between atoms: C_3  and  C_5
REMARK    4  A    between atoms: C_3  and  C_7
REMARK    5  A    between atoms: C_6  and  C_10
REMARK    6  A    between atoms: C_8  and  C_10
REMARK    7  A    between atoms: C_8  and  C_12
REMARK    8  A    between atoms: C_12  and  C_13
REMARK    9  A    between atoms: C_13  and  C_15
REMARK   10  A    between atoms: C_20  and  O_24
REMARK   11  A    between atoms: C_26  and  C_27
REMARK   12  A    between atoms: C_27  and  C_30
REMARK   13  A    between atoms: C_29  and  C_33
REMARK   14  A    between atoms: C_31  and  C_33
REMARK   15  A    between atoms: C_31  and  C_44
REMARK   16  A    between atoms: C_35  and  O_45
REMARK   17  A    between atoms: C_37  and  O_47
REMARK   18  A    between atoms: C_39  and  C_43
REMARK   19  A    between atoms: O_47  and  C_49
REMARK                            x       y       z     vdW  Elec       q    Type
REMARK                         _______ _______ _______ _____ _____    ______ ____
ROOT
ATOM      1  C   UNL     1      20.376   9.011  18.433  0.00  0.00    +0.000 C 
ATOM      2  C   UNL     1      19.748   8.166  19.008  0.00  0.00    +0.000 C 
ENDROOT
BRANCH   2   3
ATOM      3  C   UNL     1      18.951   7.082  19.744  0.00  0.00    +0.000 C 
BRANCH   3   4
ATOM      4  C   UNL     1      18.278   6.163  20.363  0.00  0.00    +0.000 C 
ATOM      5  C   UNL     1      18.045   6.274  21.839  0.00  0.00    +0.000 C 
BRANCH   4   7
ATOM      6  C   UNL     1      17.249   4.169  19.017  0.00  0.00    +0.000 C 
ATOM      7  C   UNL     1      17.723   5.084  19.635  0.00  0.00    +0.000 C 
BRANCH   6   8
ATOM      8  C   UNL     1      16.640   3.005  18.227  0.00  0.00    +0.000 C 
BRANCH   8   9
ATOM      9  C   UNL     1      16.127   2.026  17.549  0.00  0.00    +0.000 C 
ATOM     10  C   UNL     1      15.968   0.676  18.178  0.00  0.00    +0.000 C 
BRANCH   9  12
ATOM     11  C   UNL     1      15.571   2.350  15.009  0.00  0.00    +0.000 C 
ATOM     12  C   UNL     1      15.823   2.203  16.176  0.00  0.00    +0.000 C 
BRANCH  11  18
ATOM     13  C   UNL     1      13.856   2.628  13.203  0.00  0.00    +0.000 C 
ATOM     14  C   UNL     1      16.405   2.546  12.688  0.00  0.00    +0.000 C 
ATOM     15  C   UNL     1      13.833   3.101  11.813  0.00  0.00    +0.000 C 
ATOM     16  C   UNL     1      14.733   3.398  10.771  0.00  0.00    +0.000 C 
ATOM     17  C   UNL     1      15.948   3.066  11.404  0.00  0.00    +0.000 C 
ATOM     18  C   UNL     1      15.298   2.515  13.730  0.00  0.00    +0.000 C 
ATOM     19  C   UNL     1      13.184   1.232  13.300  0.00  0.00    +0.000 C 
ATOM     20  C   UNL     1      13.073   3.655  14.077  0.00  0.00    +0.000 C 
ATOM     21  C   UNL     1      17.049   1.165  12.535  0.00  0.00    +0.000 C 
BRANCH  14  22
ATOM     22  O   UNL     1      17.445   3.383  13.143  0.00  0.00    +0.000 OA
ATOM     23  H   UNL     1      17.387   3.256  14.108  0.00  0.00    +0.000 HD
ENDBRANCH  14  22
BRANCH  16  24
ATOM     24  O   UNL     1      14.460   2.939   9.489  0.00  0.00    +0.000 OA
BRANCH  24  26
ATOM     25  O   UNL     1      13.949   5.084   8.687  0.00  0.00    +0.000 OA
ATOM     26  C   UNL     1      14.452   3.977   8.617  0.00  0.00    +0.000 C 
ATOM     27  C   UNL     1      15.177   3.710   7.346  0.00  0.00    +0.000 C 
ENDBRANCH  24  26
ENDBRANCH  16  24
ENDBRANCH  11  18
ENDBRANCH   9  12
ENDBRANCH   8   9
ENDBRANCH   6   8
ENDBRANCH   4   7
ENDBRANCH   3   4
ENDBRANCH   2   3
BRANCH   1  28
ATOM     28  C   UNL     1      21.188  10.087  17.702  0.00  0.00    +0.000 C 
BRANCH  28  29
ATOM     29  C   UNL     1      21.878  10.999  17.094  0.00  0.00    +0.000 C 
ATOM     30  C   UNL     1      22.830  10.615  16.003  0.00  0.00    +0.000 C 
BRANCH  29  32
ATOM     31  C   UNL     1      21.646  13.501  17.822  0.00  0.00    +0.000 C 
ATOM     32  C   UNL     1      21.760  12.352  17.491  0.00  0.00    +0.000 C 
BRANCH  31  33
ATOM     33  C   UNL     1      21.486  14.968  18.238  0.00  0.00    +0.000 C 
BRANCH  33  34
ATOM     34  C   UNL     1      21.359  16.214  18.587  0.00  0.00    +0.000 C 
ATOM     35  C   UNL     1      22.059  17.241  17.720  0.00  0.00    +0.000 C 
BRANCH  34  37
ATOM     36  O   UNL     1      20.567  17.725  20.261  0.00  0.00    +0.000 OA
ATOM     37  C   UNL     1      20.591  16.581  19.816  0.00  0.00    +0.000 C 
BRANCH  37  38
ATOM     38  C   UNL     1      19.831  15.590  20.541  0.00  0.00    +0.000 C 
BRANCH  38  40
ATOM     39  O   UNL     1      18.843  13.431  20.466  0.00  0.00    +0.000 OA
ATOM     40  C   UNL     1      19.089  14.599  21.296  0.00  0.00    +0.000 C 
ATOM     41  C   UNL     1      19.728  13.220  21.563  0.00  0.00    +0.000 C 
ATOM     42  C   UNL     1      17.909  15.059  22.226  0.00  0.00    +0.000 C 
ATOM     43  C   UNL     1      19.139  12.414  22.583  0.00  0.00    +0.000 C 
ATOM     44  C   UNL     1      17.557  13.913  23.067  0.00  0.00    +0.000 C 
ATOM     45  C   UNL     1      18.016  12.625  23.403  0.00  0.00    +0.000 C 
ATOM     46  C   UNL     1      21.155  12.866  21.133  0.00  0.00    +0.000 C 
ATOM     47  C   UNL     1      18.482  16.220  23.075  0.00  0.00    +0.000 C 
ATOM     48  C   UNL     1      16.778  15.520  21.281  0.00  0.00    +0.000 C 
BRANCH  45  49
ATOM     49  O   UNL     1      17.933  12.150  24.676  0.00  0.00    +0.000 OA
ATOM     50  H   UNL     1      18.494  11.367  24.817  0.00  0.00    +0.000 HD
ENDBRANCH  45  49
ENDBRANCH  38  40
ENDBRANCH  37  38
ENDBRANCH  34  37
ENDBRANCH  33  34
ENDBRANCH  31  33
ENDBRANCH  29  32
ENDBRANCH  28  29
ENDBRANCH   1  28
TORSDOF 19
ENDMDL
MODEL 2
REMARK VINA RESULT:      -6.7      2.024      3.517
REMARK  Name = 5281239_Fucoxanthin.pdbqt.pdb
REMARK  19 active torsions:
REMARK  status: ('A' for Active; 'I' for Inactive)
REMARK    1  A    between atoms: C_1  and  C_5
REMARK    2  A    between atoms: C_2  and  C_26
REMARK    3  A    between atoms: C_3  and  C_5
REMARK    4  A    between atoms: C_3  and  C_7
REMARK    5  A    between atoms: C_6  and  C_10
REMARK    6  A    between atoms: C_8  and  C_10
REMARK    7  A    between atoms: C_8  and  C_12
REMARK    8  A    between atoms: C_12  and  C_13
REMARK    9  A    between atoms: C_13  and  C_15
REMARK   10  A    between atoms: C_20  and  O_24
REMARK   11  A    between atoms: C_26  and  C_27
REMARK   12  A    between atoms: C_27  and  C_30
REMARK   13  A    between atoms: C_29  and  C_33
REMARK   14  A    between atoms: C_31  and  C_33
REMARK   15  A    between atoms: C_31  and  C_44
REMARK   16  A    between atoms: C_35  and  O_45
REMARK   17  A    between atoms: C_37  and  O_47
REMARK   18  A    between atoms: C_39  and  C_43
REMARK   19  A    between atoms: O_47  and  C_49
REMARK                            x       y       z     vdW  Elec       q    Type
REMARK                         _______ _______ _______ _____ _____    ______ ____
ROOT
ATOM      1  C   UNL     1      20.495   8.340  18.109  0.00  0.00    +0.000 C 
ATOM      2  C   UNL     1      19.875   7.440  18.606  0.00  0.00    +0.000 C 
ENDROOT
BRANCH   2   3
ATOM      3  C   UNL     1      19.081   6.289  19.234  0.00  0.00    +0.000 C 
BRANCH   3   4
ATOM      4  C   UNL     1      18.412   5.316  19.768  0.00  0.00    +0.000 C 
ATOM      5  C   UNL     1      18.380   5.160  21.258  0.00  0.00    +0.000 C 
BRANCH   4   7
ATOM      6  C   UNL     1      17.045   3.681  18.251  0.00  0.00    +0.000 C 
ATOM      7  C   UNL     1      17.673   4.433  18.946  0.00  0.00    +0.000 C 
BRANCH   6   8
ATOM      8  C   UNL     1      16.242   2.720  17.367  0.00  0.00    +0.000 C 
BRANCH   8   9
ATOM      9  C   UNL     1      15.558   1.903  16.628  0.00  0.00    +0.000 C 
ATOM     10  C   UNL     1      14.730   0.828  17.261  0.00  0.00    +0.000 C 
BRANCH   9  12
ATOM     11  C   UNL     1      15.791   1.993  14.020  0.00  0.00    +0.000 C 
ATOM     12  C   UNL     1      15.687   1.954  15.217  0.00  0.00    +0.000 C 
BRANCH  11  18
ATOM     13  C   UNL     1      14.727   1.728  11.767  0.00  0.00    +0.000 C 
ATOM     14  C   UNL     1      17.243   2.327  12.044  0.00  0.00    +0.000 C 
ATOM     15  C   UNL     1      15.030   2.128  10.386  0.00  0.00    +0.000 C 
ATOM     16  C   UNL     1      16.111   2.622   9.630  0.00  0.00    +0.000 C 
ATOM     17  C   UNL     1      17.104   2.657  10.630  0.00  0.00    +0.000 C 
ATOM     18  C   UNL     1      15.907   2.032  12.707  0.00  0.00    +0.000 C 
ATOM     19  C   UNL     1      14.427   0.206  11.825  0.00  0.00    +0.000 C 
ATOM     20  C   UNL     1      13.478   2.532  12.240  0.00  0.00    +0.000 C 
ATOM     21  C   UNL     1      18.224   1.170  12.254  0.00  0.00    +0.000 C 
BRANCH  14  22
ATOM     22  O   UNL     1      17.842   3.432  12.684  0.00  0.00    +0.000 OA
ATOM     23  H   UNL     1      17.964   4.046  11.937  0.00  0.00    +0.000 HD
ENDBRANCH  14  22
BRANCH  16  24
ATOM     24  O   UNL     1      16.382   2.061   8.389  0.00  0.00    +0.000 OA
BRANCH  24  26
ATOM     25  O   UNL     1      15.594   3.909   7.178  0.00  0.00    +0.000 OA
ATOM     26  C   UNL     1      15.697   2.721   7.423  0.00  0.00    +0.000 C 
ATOM     27  C   UNL     1      14.928   1.835   6.508  0.00  0.00    +0.000 C 
ENDBRANCH  24  26
ENDBRANCH  16  24
ENDBRANCH  11  18
ENDBRANCH   9  12
ENDBRANCH   8   9
ENDBRANCH   6   8
ENDBRANCH   4   7
ENDBRANCH   3   4
ENDBRANCH   2   3
BRANCH   1  28
ATOM     28  C   UNL     1      21.283   9.486  17.465  0.00  0.00    +0.000 C 
BRANCH  28  29
ATOM     29  C   UNL     1      21.958  10.448  16.918  0.00  0.00    +0.000 C 
ATOM     30  C   UNL     1      22.924  10.151  15.812  0.00  0.00    +0.000 C 
BRANCH  29  32
ATOM     31  C   UNL     1      21.683  12.891  17.812  0.00  0.00    +0.000 C 
ATOM     32  C   UNL     1      21.807  11.772  17.395  0.00  0.00    +0.000 C 
BRANCH  31  33
ATOM     33  C   UNL     1      21.527  14.315  18.360  0.00  0.00    +0.000 C 
BRANCH  33  34
ATOM     34  C   UNL     1      21.400  15.520  18.832  0.00  0.00    +0.000 C 
ATOM     35  C   UNL     1      22.146  16.619  18.104  0.00  0.00    +0.000 C 
BRANCH  34  37
ATOM     36  O   UNL     1      20.053  14.862  20.693  0.00  0.00    +0.000 OA
ATOM     37  C   UNL     1      20.588  15.769  20.062  0.00  0.00    +0.000 C 
BRANCH  37  38
ATOM     38  C   UNL     1      20.398  17.108  20.568  0.00  0.00    +0.000 C 
BRANCH  38  40
ATOM     39  O   UNL     1      18.817  18.813  21.055  0.00  0.00    +0.000 OA
ATOM     40  C   UNL     1      20.229  18.465  21.052  0.00  0.00    +0.000 C 
ATOM     41  C   UNL     1      19.421  18.710  22.343  0.00  0.00    +0.000 C 
ATOM     42  C   UNL     1      21.226  19.584  20.581  0.00  0.00    +0.000 C 
ATOM     43  C   UNL     1      19.566  19.982  22.973  0.00  0.00    +0.000 C 
ATOM     44  C   UNL     1      21.001  20.747  21.442  0.00  0.00    +0.000 C 
ATOM     45  C   UNL     1      20.307  21.120  22.610  0.00  0.00    +0.000 C 
ATOM     46  C   UNL     1      18.845  17.574  23.194  0.00  0.00    +0.000 C 
ATOM     47  C   UNL     1      22.641  18.994  20.798  0.00  0.00    +0.000 C 
ATOM     48  C   UNL     1      20.912  19.832  19.089  0.00  0.00    +0.000 C 
BRANCH  45  49
ATOM     49  O   UNL     1      20.859  21.964  23.525  0.00  0.00    +0.000 OA
ATOM     50  H   UNL     1      20.305  22.064  24.319  0.00  0.00    +0.000 HD
ENDBRANCH  45  49
ENDBRANCH  38  40
ENDBRANCH  37  38
ENDBRANCH  34  37
ENDBRANCH  33  34
ENDBRANCH  31  33
ENDBRANCH  29  32
ENDBRANCH  28  29
ENDBRANCH   1  28
TORSDOF 19
ENDMDL
MODEL 3
REMARK VINA RESULT:      -6.6      9.284     14.679
REMARK  Name = 5281239_Fucoxanthin.pdbqt.pdb
REMARK  19 active torsions:
REMARK  status: ('A' for Active; 'I' for Inactive)
REMARK    1  A    between atoms: C_1  and  C_5
REMARK    2  A    between atoms: C_2  and  C_26
REMARK    3  A    between atoms: C_3  and  C_5
REMARK    4  A    between atoms: C_3  and  C_7
REMARK    5  A    between atoms: C_6  and  C_10
REMARK    6  A    between atoms: C_8  and  C_10
REMARK    7  A    between atoms: C_8  and  C_12
REMARK    8  A    between atoms: C_12  and  C_13
REMARK    9  A    between atoms: C_13  and  C_15
REMARK   10  A    between atoms: C_20  and  O_24
REMARK   11  A    between atoms: C_26  and  C_27
REMARK   12  A    between atoms: C_27  and  C_30
REMARK   13  A    between atoms: C_29  and  C_33
REMARK   14  A    between atoms: C_31  and  C_33
REMARK   15  A    between atoms: C_31  and  C_44
REMARK   16  A    between atoms: C_35  and  O_45
REMARK   17  A    between atoms: C_37  and  O_47
REMARK   18  A    between atoms: C_39  and  C_43
REMARK   19  A    between atoms: O_47  and  C_49
REMARK                            x       y       z     vdW  Elec       q    Type
REMARK                         _______ _______ _______ _____ _____    ______ ____
ROOT
ATOM      1  C   UNL     1      22.027  22.018  24.523  0.00  0.00    +0.000 C 
ATOM      2  C   UNL     1      21.281  21.346  23.866  0.00  0.00    +0.000 C 
ENDROOT
BRANCH   2   3
ATOM      3  C   UNL     1      20.328  20.492  23.020  0.00  0.00    +0.000 C 
BRANCH   3   4
ATOM      4  C   UNL     1      19.527  19.769  22.303  0.00  0.00    +0.000 C 
ATOM      5  C   UNL     1      19.130  20.229  20.933  0.00  0.00    +0.000 C 
BRANCH   4   7
ATOM      6  C   UNL     1      18.683  17.466  23.213  0.00  0.00    +0.000 C 
ATOM      7  C   UNL     1      19.069  18.524  22.795  0.00  0.00    +0.000 C 
BRANCH   6   8
ATOM      8  C   UNL     1      18.194  16.116  23.750  0.00  0.00    +0.000 C 
BRANCH   8   9
ATOM      9  C   UNL     1      17.775  14.979  24.211  0.00  0.00    +0.000 C 
ATOM     10  C   UNL     1      17.127  14.905  25.559  0.00  0.00    +0.000 C 
BRANCH   9  12
ATOM     11  C   UNL     1      18.263  12.777  22.876  0.00  0.00    +0.000 C 
ATOM     12  C   UNL     1      18.036  13.787  23.489  0.00  0.00    +0.000 C 
BRANCH  11  18
ATOM     13  C   UNL     1      19.908  11.348  21.641  0.00  0.00    +0.000 C 
ATOM     14  C   UNL     1      17.406  10.678  21.886  0.00  0.00    +0.000 C 
ATOM     15  C   UNL     1      19.992   9.948  21.200  0.00  0.00    +0.000 C 
ATOM     16  C   UNL     1      19.155   8.826  21.045  0.00  0.00    +0.000 C 
ATOM     17  C   UNL     1      17.925   9.390  21.441  0.00  0.00    +0.000 C 
ATOM     18  C   UNL     1      18.512  11.673  22.201  0.00  0.00    +0.000 C 
ATOM     19  C   UNL     1      20.195  12.297  20.447  0.00  0.00    +0.000 C 
ATOM     20  C   UNL     1      20.971  11.568  22.760  0.00  0.00    +0.000 C 
ATOM     21  C   UNL     1      16.417  11.262  20.873  0.00  0.00    +0.000 C 
BRANCH  14  22
ATOM     22  O   UNL     1      16.643  10.452  23.050  0.00  0.00    +0.000 OA
ATOM     23  H   UNL     1      16.382  11.361  23.290  0.00  0.00    +0.000 HD
ENDBRANCH  14  22
BRANCH  16  24
ATOM     24  O   UNL     1      19.242   8.074  19.880  0.00  0.00    +0.000 OA
BRANCH  24  26
ATOM     25  O   UNL     1      18.970   9.799  18.313  0.00  0.00    +0.000 OA
ATOM     26  C   UNL     1      19.566   8.875  18.835  0.00  0.00    +0.000 C 
ATOM     27  C   UNL     1      20.878   8.557  18.209  0.00  0.00    +0.000 C 
ENDBRANCH  24  26
ENDBRANCH  16  24
ENDBRANCH  11  18
ENDBRANCH   9  12
ENDBRANCH   8   9
ENDBRANCH   6   8
ENDBRANCH   4   7
ENDBRANCH   3   4
ENDBRANCH   2   3
BRANCH   1  28
ATOM     28  C   UNL     1      22.981  22.884  25.354  0.00  0.00    +0.000 C 
BRANCH  28  29
ATOM     29  C   UNL     1      23.792  23.605  26.061  0.00  0.00    +0.000 C 
ATOM     30  C   UNL     1      24.469  24.792  25.446  0.00  0.00    +0.000 C 
BRANCH  29  32
ATOM     31  C   UNL     1      24.306  22.934  28.537  0.00  0.00    +0.000 C 
ATOM     32  C   UNL     1      24.065  23.247  27.403  0.00  0.00    +0.000 C 
BRANCH  31  33
ATOM     33  C   UNL     1      24.625  22.524  29.979  0.00  0.00    +0.000 C 
BRANCH  33  34
ATOM     34  C   UNL     1      24.888  22.180  31.205  0.00  0.00    +0.000 C 
ATOM     35  C   UNL     1      23.704  21.992  32.131  0.00  0.00    +0.000 C 
BRANCH  34  37
ATOM     36  O   UNL     1      26.620  21.314  32.606  0.00  0.00    +0.000 OA
ATOM     37  C   UNL     1      26.305  22.032  31.662  0.00  0.00    +0.000 C 
BRANCH  37  38
ATOM     38  C   UNL     1      27.376  22.736  30.999  0.00  0.00    +0.000 C 
BRANCH  38  40
ATOM     39  O   UNL     1      29.019  24.427  31.288  0.00  0.00    +0.000 OA
ATOM     40  C   UNL     1      28.448  23.470  30.354  0.00  0.00    +0.000 C 
ATOM     41  C   UNL     1      29.882  23.356  30.911  0.00  0.00    +0.000 C 
ATOM     42  C   UNL     1      28.267  23.959  28.872  0.00  0.00    +0.000 C 
ATOM     43  C   UNL     1      30.947  23.794  30.067  0.00  0.00    +0.000 C 
ATOM     44  C   UNL     1      29.585  24.390  28.401  0.00  0.00    +0.000 C 
ATOM     45  C   UNL     1      30.940  24.369  28.785  0.00  0.00    +0.000 C 
ATOM     46  C   UNL     1      30.252  22.435  32.078  0.00  0.00    +0.000 C 
ATOM     47  C   UNL     1      27.771  22.721  28.086  0.00  0.00    +0.000 C 
ATOM     48  C   UNL     1      27.214  25.088  28.922  0.00  0.00    +0.000 C 
BRANCH  45  49
ATOM     49  O   UNL     1      31.933  24.158  27.877  0.00  0.00    +0.000 OA
ATOM     50  H   UNL     1      32.430  23.340  28.053  0.00  0.00    +0.000 HD
ENDBRANCH  45  49
ENDBRANCH  38  40
ENDBRANCH  37  38
ENDBRANCH  34  37
ENDBRANCH  33  34
ENDBRANCH  31  33
ENDBRANCH  29  32
ENDBRANCH  28  29
ENDBRANCH   1  28
TORSDOF 19
ENDMDL
MODEL 4
REMARK VINA RESULT:      -6.3     39.130     43.877
REMARK  Name = 5281239_Fucoxanthin.pdbqt.pdb
REMARK  19 active torsions:
REMARK  status: ('A' for Active; 'I' for Inactive)
REMARK    1  A    between atoms: C_1  and  C_5
REMARK    2  A    between atoms: C_2  and  C_26
REMARK    3  A    between atoms: C_3  and  C_5
REMARK    4  A    between atoms: C_3  and  C_7
REMARK    5  A    between atoms: C_6  and  C_10
REMARK    6  A    between atoms: C_8  and  C_10
REMARK    7  A    between atoms: C_8  and  C_12
REMARK    8  A    between atoms: C_12  and  C_13
REMARK    9  A    between atoms: C_13  and  C_15
REMARK   10  A    between atoms: C_20  and  O_24
REMARK   11  A    between atoms: C_26  and  C_27
REMARK   12  A    between atoms: C_27  and  C_30
REMARK   13  A    between atoms: C_29  and  C_33
REMARK   14  A    between atoms: C_31  and  C_33
REMARK   15  A    between atoms: C_31  and  C_44
REMARK   16  A    between atoms: C_35  and  O_45
REMARK   17  A    between atoms: C_37  and  O_47
REMARK   18  A    between atoms: C_39  and  C_43
REMARK   19  A    between atoms: O_47  and  C_49
REMARK                            x       y       z     vdW  Elec       q    Type
REMARK                         _______ _______ _______ _____ _____    ______ ____
ROOT
ATOM      1  C   UNL     1      50.521  -9.835  41.085  0.00  0.00    +0.000 C 
ATOM      2  C   UNL     1      50.048  -9.443  42.116  0.00  0.00    +0.000 C 
ENDROOT
BRANCH   2   3
ATOM      3  C   UNL     1      49.442  -8.935  43.430  0.00  0.00    +0.000 C 
BRANCH   3   4
ATOM      4  C   UNL     1      48.933  -8.508  44.542  0.00  0.00    +0.000 C 
ATOM      5  C   UNL     1      49.547  -8.909  45.849  0.00  0.00    +0.000 C 
BRANCH   4   7
ATOM      6  C   UNL     1      46.893  -6.870  44.497  0.00  0.00    +0.000 C 
ATOM      7  C   UNL     1      47.828  -7.623  44.519  0.00  0.00    +0.000 C 
BRANCH   6   8
ATOM      8  C   UNL     1      45.698  -5.909  44.464  0.00  0.00    +0.000 C 
BRANCH   8   9
ATOM      9  C   UNL     1      44.686  -5.100  44.426  0.00  0.00    +0.000 C 
ATOM     10  C   UNL     1      43.393  -5.539  43.811  0.00  0.00    +0.000 C 
BRANCH   9  12
ATOM     11  C   UNL     1      44.975  -2.624  45.233  0.00  0.00    +0.000 C 
ATOM     12  C   UNL     1      44.839  -3.760  44.861  0.00  0.00    +0.000 C 
BRANCH  11  18
ATOM     13  C   UNL     1      46.477  -0.829  46.128  0.00  0.00    +0.000 C 
ATOM     14  C   UNL     1      43.939  -0.430  45.716  0.00  0.00    +0.000 C 
ATOM     15  C   UNL     1      46.445   0.635  46.242  0.00  0.00    +0.000 C 
ATOM     16  C   UNL     1      45.523   1.695  46.134  0.00  0.00    +0.000 C 
ATOM     17  C   UNL     1      44.349   0.962  45.864  0.00  0.00    +0.000 C 
ATOM     18  C   UNL     1      45.124  -1.380  45.644  0.00  0.00    +0.000 C 
ATOM     19  C   UNL     1      46.803  -1.462  47.508  0.00  0.00    +0.000 C 
ATOM     20  C   UNL     1      47.581  -1.211  45.096  0.00  0.00    +0.000 C 
ATOM     21  C   UNL     1      42.971  -0.847  46.827  0.00  0.00    +0.000 C 
BRANCH  14  22
ATOM     22  O   UNL     1      43.192  -0.531  44.525  0.00  0.00    +0.000 OA
ATOM     23  H   UNL     1      43.271  -1.483  44.328  0.00  0.00    +0.000 HD
ENDBRANCH  14  22
BRANCH  16  24
ATOM     24  O   UNL     1      45.523   2.693  47.099  0.00  0.00    +0.000 OA
BRANCH  24  26
ATOM     25  O   UNL     1      45.921   4.358  45.495  0.00  0.00    +0.000 OA
ATOM     26  C   UNL     1      46.047   3.834  46.586  0.00  0.00    +0.000 C 
ATOM     27  C   UNL     1      46.943   4.567  47.521  0.00  0.00    +0.000 C 
ENDBRANCH  24  26
ENDBRANCH  16  24
ENDBRANCH  11  18
ENDBRANCH   9  12
ENDBRANCH   8   9
ENDBRANCH   6   8
ENDBRANCH   4   7
ENDBRANCH   3   4
ENDBRANCH   2   3
BRANCH   1  28
ATOM     28  C   UNL     1      51.121 -10.328  39.764  0.00  0.00    +0.000 C 
BRANCH  28  29
ATOM     29  C   UNL     1      51.629 -10.755  38.651  0.00  0.00    +0.000 C 
ATOM     30  C   UNL     1      52.723  -9.981  37.981  0.00  0.00    +0.000 C 
BRANCH  29  32
ATOM     31  C   UNL     1      50.696 -12.928  37.531  0.00  0.00    +0.000 C 
ATOM     32  C   UNL     1      51.122 -11.933  38.052  0.00  0.00    +0.000 C 
BRANCH  31  33
ATOM     33  C   UNL     1      50.157 -14.192  36.852  0.00  0.00    +0.000 C 
BRANCH  33  34
ATOM     34  C   UNL     1      49.708 -15.270  36.279  0.00  0.00    +0.000 C 
ATOM     35  C   UNL     1      48.967 -16.254  37.162  0.00  0.00    +0.000 C 
BRANCH  34  37
ATOM     36  O   UNL     1      50.154 -16.644  34.377  0.00  0.00    +0.000 OA
ATOM     37  C   UNL     1      49.965 -15.519  34.828  0.00  0.00    +0.000 C 
BRANCH  37  38
ATOM     38  C   UNL     1      50.000 -14.429  33.881  0.00  0.00    +0.000 C 
BRANCH  38  40
ATOM     39  O   UNL     1      49.507 -12.129  33.551  0.00  0.00    +0.000 OA
ATOM     40  C   UNL     1      50.066 -13.326  32.943  0.00  0.00    +0.000 C 
ATOM     41  C   UNL     1      50.910 -12.083  33.298  0.00  0.00    +0.000 C 
ATOM     42  C   UNL     1      49.716 -13.573  31.432  0.00  0.00    +0.000 C 
ATOM     43  C   UNL     1      51.236 -11.190  32.234  0.00  0.00    +0.000 C 
ATOM     44  C   UNL     1      50.152 -12.387  30.692  0.00  0.00    +0.000 C 
ATOM     45  C   UNL     1      50.892 -11.202  30.871  0.00  0.00    +0.000 C 
ATOM     46  C   UNL     1      51.754 -11.986  34.572  0.00  0.00    +0.000 C 
ATOM     47  C   UNL     1      50.533 -14.821  31.017  0.00  0.00    +0.000 C 
ATOM     48  C   UNL     1      48.192 -13.822  31.384  0.00  0.00    +0.000 C 
BRANCH  45  49
ATOM     49  O   UNL     1      51.716 -10.725  29.898  0.00  0.00    +0.000 OA
ATOM     50  H   UNL     1      51.898 -11.387  29.208  0.00  0.00    +0.000 HD
ENDBRANCH  45  49
ENDBRANCH  38  40
ENDBRANCH  37  38
ENDBRANCH  34  37
ENDBRANCH  33  34
ENDBRANCH  31  33
ENDBRANCH  29  32
ENDBRANCH  28  29
ENDBRANCH   1  28
TORSDOF 19
ENDMDL
MODEL 5
REMARK VINA RESULT:      -6.0      5.896      9.665
REMARK  Name = 5281239_Fucoxanthin.pdbqt.pdb
REMARK  19 active torsions:
REMARK  status: ('A' for Active; 'I' for Inactive)
REMARK    1  A    between atoms: C_1  and  C_5
REMARK    2  A    between atoms: C_2  and  C_26
REMARK    3  A    between atoms: C_3  and  C_5
REMARK    4  A    between atoms: C_3  and  C_7
REMARK    5  A    between atoms: C_6  and  C_10
REMARK    6  A    between atoms: C_8  and  C_10
REMARK    7  A    between atoms: C_8  and  C_12
REMARK    8  A    between atoms: C_12  and  C_13
REMARK    9  A    between atoms: C_13  and  C_15
REMARK   10  A    between atoms: C_20  and  O_24
REMARK   11  A    between atoms: C_26  and  C_27
REMARK   12  A    between atoms: C_27  and  C_30
REMARK   13  A    between atoms: C_29  and  C_33
REMARK   14  A    between atoms: C_31  and  C_33
REMARK   15  A    between atoms: C_31  and  C_44
REMARK   16  A    between atoms: C_35  and  O_45
REMARK   17  A    between atoms: C_37  and  O_47
REMARK   18  A    between atoms: C_39  and  C_43
REMARK   19  A    between atoms: O_47  and  C_49
REMARK                            x       y       z     vdW  Elec       q    Type
REMARK                         _______ _______ _______ _____ _____    ______ ____
ROOT
ATOM      1  C   UNL     1      15.947   2.289  16.371  0.00  0.00    +0.000 C 
ATOM      2  C   UNL     1      15.404   2.050  15.329  0.00  0.00    +0.000 C 
ENDROOT
BRANCH   2   3
ATOM      3  C   UNL     1      14.711   1.751  13.994  0.00  0.00    +0.000 C 
BRANCH   3   4
ATOM      4  C   UNL     1      14.126   1.501  12.865  0.00  0.00    +0.000 C 
ATOM      5  C   UNL     1      13.225   2.527  12.247  0.00  0.00    +0.000 C 
BRANCH   4   7
ATOM      6  C   UNL     1      14.592  -0.753  11.621  0.00  0.00    +0.000 C 
ATOM      7  C   UNL     1      14.380   0.282  12.192  0.00  0.00    +0.000 C 
BRANCH   6   8
ATOM      8  C   UNL     1      14.859  -2.074  10.890  0.00  0.00    +0.000 C 
BRANCH   8   9
ATOM      9  C   UNL     1      15.091  -3.194  10.279  0.00  0.00    +0.000 C 
ATOM     10  C   UNL     1      14.471  -3.466   8.943  0.00  0.00    +0.000 C 
BRANCH   9  12
ATOM     11  C   UNL     1      16.470  -5.073  11.475  0.00  0.00    +0.000 C 
ATOM     12  C   UNL     1      15.838  -4.208  10.928  0.00  0.00    +0.000 C 
BRANCH  11  18
ATOM     13  C   UNL     1      16.628  -7.460  12.219  0.00  0.00    +0.000 C 
ATOM     14  C   UNL     1      18.508  -5.732  12.715  0.00  0.00    +0.000 C 
ATOM     15  C   UNL     1      17.691  -8.380  12.648  0.00  0.00    +0.000 C 
ATOM     16  C   UNL     1      19.036  -8.338  13.061  0.00  0.00    +0.000 C 
ATOM     17  C   UNL     1      19.254  -6.946  13.021  0.00  0.00    +0.000 C 
ATOM     18  C   UNL     1      17.159  -6.023  12.075  0.00  0.00    +0.000 C 
ATOM     19  C   UNL     1      15.476  -7.459  13.260  0.00  0.00    +0.000 C 
ATOM     20  C   UNL     1      16.094  -7.947  10.838  0.00  0.00    +0.000 C 
ATOM     21  C   UNL     1      18.344  -4.849  13.956  0.00  0.00    +0.000 C 
BRANCH  14  22
ATOM     22  O   UNL     1      19.286  -4.964  11.823  0.00  0.00    +0.000 OA
ATOM     23  H   UNL     1      20.188  -5.251  12.058  0.00  0.00    +0.000 HD
ENDBRANCH  14  22
BRANCH  16  24
ATOM     24  O   UNL     1      19.427  -9.080  14.168  0.00  0.00    +0.000 OA
BRANCH  24  26
ATOM     25  O   UNL     1      20.102 -11.004  13.007  0.00  0.00    +0.000 OA
ATOM     26  C   UNL     1      19.469 -10.398  13.852  0.00  0.00    +0.000 C 
ATOM     27  C   UNL     1      18.573 -11.252  14.678  0.00  0.00    +0.000 C 
ENDBRANCH  24  26
ENDBRANCH  16  24
ENDBRANCH  11  18
ENDBRANCH   9  12
ENDBRANCH   8   9
ENDBRANCH   6   8
ENDBRANCH   4   7
ENDBRANCH   3   4
ENDBRANCH   2   3
BRANCH   1  28
ATOM     28  C   UNL     1      16.646   2.604  17.699  0.00  0.00    +0.000 C 
BRANCH  28  29
ATOM     29  C   UNL     1      17.240   2.860  18.821  0.00  0.00    +0.000 C 
ATOM     30  C   UNL     1      17.112   1.909  19.972  0.00  0.00    +0.000 C 
BRANCH  29  32
ATOM     31  C   UNL     1      18.600   5.081  19.082  0.00  0.00    +0.000 C 
ATOM     32  C   UNL     1      17.978   4.059  18.969  0.00  0.00    +0.000 C 
BRANCH  31  33
ATOM     33  C   UNL     1      19.387   6.390  19.212  0.00  0.00    +0.000 C 
BRANCH  33  34
ATOM     34  C   UNL     1      20.060   7.496  19.328  0.00  0.00    +0.000 C 
ATOM     35  C   UNL     1      20.183   8.077  20.722  0.00  0.00    +0.000 C 
BRANCH  34  37
ATOM     36  O   UNL     1      21.126   7.530  17.190  0.00  0.00    +0.000 OA
ATOM     37  C   UNL     1      20.635   8.163  18.119  0.00  0.00    +0.000 C 
BRANCH  37  38
ATOM     38  C   UNL     1      20.631   9.601  17.992  0.00  0.00    +0.000 C 
BRANCH  38  40
ATOM     39  O   UNL     1      19.233  11.520  18.054  0.00  0.00    +0.000 OA
ATOM     40  C   UNL     1      20.593  11.044  17.857  0.00  0.00    +0.000 C 
ATOM     41  C   UNL     1      20.163  11.903  19.065  0.00  0.00    +0.000 C 
ATOM     42  C   UNL     1      21.420  11.737  16.716  0.00  0.00    +0.000 C 
ATOM     43  C   UNL     1      20.468  13.297  19.017  0.00  0.00    +0.000 C 
ATOM     44  C   UNL     1      21.431  13.172  17.006  0.00  0.00    +0.000 C 
ATOM     45  C   UNL     1      21.077  14.081  18.023  0.00  0.00    +0.000 C 
ATOM     46  C   UNL     1      19.844  11.307  20.439  0.00  0.00    +0.000 C 
ATOM     47  C   UNL     1      22.844  11.137  16.815  0.00  0.00    +0.000 C 
ATOM     48  C   UNL     1      20.713  11.366  15.394  0.00  0.00    +0.000 C 
BRANCH  45  49
ATOM     49  O   UNL     1      21.852  15.163  18.310  0.00  0.00    +0.000 OA
ATOM     50  H   UNL     1      21.664  15.920  17.727  0.00  0.00    +0.000 HD
ENDBRANCH  45  49
ENDBRANCH  38  40
ENDBRANCH  37  38
ENDBRANCH  34  37
ENDBRANCH  33  34
ENDBRANCH  31  33
ENDBRANCH  29  32
ENDBRANCH  28  29
ENDBRANCH   1  28
TORSDOF 19
ENDMDL
MODEL 6
REMARK VINA RESULT:      -6.0      5.013      8.361
REMARK  Name = 5281239_Fucoxanthin.pdbqt.pdb
REMARK  19 active torsions:
REMARK  status: ('A' for Active; 'I' for Inactive)
REMARK    1  A    between atoms: C_1  and  C_5
REMARK    2  A    between atoms: C_2  and  C_26
REMARK    3  A    between atoms: C_3  and  C_5
REMARK    4  A    between atoms: C_3  and  C_7
REMARK    5  A    between atoms: C_6  and  C_10
REMARK    6  A    between atoms: C_8  and  C_10
REMARK    7  A    between atoms: C_8  and  C_12
REMARK    8  A    between atoms: C_12  and  C_13
REMARK    9  A    between atoms: C_13  and  C_15
REMARK   10  A    between atoms: C_20  and  O_24
REMARK   11  A    between atoms: C_26  and  C_27
REMARK   12  A    between atoms: C_27  and  C_30
REMARK   13  A    between atoms: C_29  and  C_33
REMARK   14  A    between atoms: C_31  and  C_33
REMARK   15  A    between atoms: C_31  and  C_44
REMARK   16  A    between atoms: C_35  and  O_45
REMARK   17  A    between atoms: C_37  and  O_47
REMARK   18  A    between atoms: C_39  and  C_43
REMARK   19  A    between atoms: O_47  and  C_49
REMARK                            x       y       z     vdW  Elec       q    Type
REMARK                         _______ _______ _______ _____ _____    ______ ____
ROOT
ATOM      1  C   UNL     1      16.276   2.734  16.948  0.00  0.00    +0.000 C 
ATOM      2  C   UNL     1      15.691   2.400  15.955  0.00  0.00    +0.000 C 
ENDROOT
BRANCH   2   3
ATOM      3  C   UNL     1      14.945   1.980  14.682  0.00  0.00    +0.000 C 
BRANCH   3   4
ATOM      4  C   UNL     1      14.315   1.628  13.606  0.00  0.00    +0.000 C 
ATOM      5  C   UNL     1      13.123   2.411  13.148  0.00  0.00    +0.000 C 
BRANCH   4   7
ATOM      6  C   UNL     1      15.183  -0.391  12.186  0.00  0.00    +0.000 C 
ATOM      7  C   UNL     1      14.786   0.537  12.837  0.00  0.00    +0.000 C 
BRANCH   6   8
ATOM      8  C   UNL     1      15.685  -1.577  11.354  0.00  0.00    +0.000 C 
BRANCH   8   9
ATOM      9  C   UNL     1      16.119  -2.577  10.652  0.00  0.00    +0.000 C 
ATOM     10  C   UNL     1      15.492  -3.929  10.798  0.00  0.00    +0.000 C 
BRANCH   9  12
ATOM     11  C   UNL     1      18.235  -2.286   9.135  0.00  0.00    +0.000 C 
ATOM     12  C   UNL     1      17.263  -2.416   9.832  0.00  0.00    +0.000 C 
BRANCH  11  18
ATOM     13  C   UNL     1      20.733  -2.256   8.935  0.00  0.00    +0.000 C 
ATOM     14  C   UNL     1      19.178  -1.807   6.898  0.00  0.00    +0.000 C 
ATOM     15  C   UNL     1      21.721  -2.359   7.853  0.00  0.00    +0.000 C 
ATOM     16  C   UNL     1      21.776  -2.296   6.447  0.00  0.00    +0.000 C 
ATOM     17  C   UNL     1      20.421  -2.023   6.168  0.00  0.00    +0.000 C 
ATOM     18  C   UNL     1      19.303  -2.145   8.375  0.00  0.00    +0.000 C 
ATOM     19  C   UNL     1      21.023  -1.000   9.800  0.00  0.00    +0.000 C 
ATOM     20  C   UNL     1      20.839  -3.539   9.813  0.00  0.00    +0.000 C 
ATOM     21  C   UNL     1      18.660  -0.378   6.708  0.00  0.00    +0.000 C 
BRANCH  14  22
ATOM     22  O   UNL     1      18.191  -2.630   6.317  0.00  0.00    +0.000 OA
ATOM     23  H   UNL     1      17.434  -2.474   6.911  0.00  0.00    +0.000 HD
ENDBRANCH  14  22
BRANCH  16  24
ATOM     24  O   UNL     1      22.782  -1.554   5.842  0.00  0.00    +0.000 OA
BRANCH  24  26
ATOM     25  O   UNL     1      22.918  -2.844   3.888  0.00  0.00    +0.000 OA
ATOM     26  C   UNL     1      23.376  -2.286   4.868  0.00  0.00    +0.000 C 
ATOM     27  C   UNL     1      24.846  -2.444   5.035  0.00  0.00    +0.000 C 
ENDBRANCH  24  26
ENDBRANCH  16  24
ENDBRANCH  11  18
ENDBRANCH   9  12
ENDBRANCH   8   9
ENDBRANCH   6   8
ENDBRANCH   4   7
ENDBRANCH   3   4
ENDBRANCH   2   3
BRANCH   1  28
ATOM     28  C   UNL     1      17.029   3.168  18.211  0.00  0.00    +0.000 C 
BRANCH  28  29
ATOM     29  C   UNL     1      17.664   3.524  19.282  0.00  0.00    +0.000 C 
ATOM     30  C   UNL     1      17.680   2.623  20.479  0.00  0.00    +0.000 C 
BRANCH  29  32
ATOM     31  C   UNL     1      18.851   5.854  19.361  0.00  0.00    +0.000 C 
ATOM     32  C   UNL     1      18.310   4.783  19.331  0.00  0.00    +0.000 C 
BRANCH  31  33
ATOM     33  C   UNL     1      19.534   7.227  19.386  0.00  0.00    +0.000 C 
BRANCH  33  34
ATOM     34  C   UNL     1      20.120   8.387  19.412  0.00  0.00    +0.000 C 
ATOM     35  C   UNL     1      20.452   8.954  20.777  0.00  0.00    +0.000 C 
BRANCH  34  37
ATOM     36  O   UNL     1      20.953   8.596  17.182  0.00  0.00    +0.000 OA
ATOM     37  C   UNL     1      20.397   9.124  18.140  0.00  0.00    +0.000 C 
BRANCH  37  38
ATOM     38  C   UNL     1      20.014  10.507  17.984  0.00  0.00    +0.000 C 
BRANCH  38  40
ATOM     39  O   UNL     1      19.259  12.117  16.409  0.00  0.00    +0.000 OA
ATOM     40  C   UNL     1      19.641  11.895  17.795  0.00  0.00    +0.000 C 
ATOM     41  C   UNL     1      18.200  12.236  17.358  0.00  0.00    +0.000 C 
ATOM     42  C   UNL     1      20.493  13.025  18.476  0.00  0.00    +0.000 C 
ATOM     43  C   UNL     1      17.772  13.588  17.519  0.00  0.00    +0.000 C 
ATOM     44  C   UNL     1      19.725  14.267  18.362  0.00  0.00    +0.000 C 
ATOM     45  C   UNL     1      18.449  14.729  17.984  0.00  0.00    +0.000 C 
ATOM     46  C   UNL     1      17.109  11.176  17.187  0.00  0.00    +0.000 C 
ATOM     47  C   UNL     1      20.643  12.595  19.955  0.00  0.00    +0.000 C 
ATOM     48  C   UNL     1      21.844  13.048  17.727  0.00  0.00    +0.000 C 
BRANCH  45  49
ATOM     49  O   UNL     1      17.826  15.730  18.664  0.00  0.00    +0.000 OA
ATOM     50  H   UNL     1      18.215  16.603  18.480  0.00  0.00    +0.000 HD
ENDBRANCH  45  49
ENDBRANCH  38  40
ENDBRANCH  37  38
ENDBRANCH  34  37
ENDBRANCH  33  34
ENDBRANCH  31  33
ENDBRANCH  29  32
ENDBRANCH  28  29
ENDBRANCH   1  28
TORSDOF 19
ENDMDL
MODEL 7
REMARK VINA RESULT:      -6.0      9.372     15.200
REMARK  Name = 5281239_Fucoxanthin.pdbqt.pdb
REMARK  19 active torsions:
REMARK  status: ('A' for Active; 'I' for Inactive)
REMARK    1  A    between atoms: C_1  and  C_5
REMARK    2  A    between atoms: C_2  and  C_26
REMARK    3  A    between atoms: C_3  and  C_5
REMARK    4  A    between atoms: C_3  and  C_7
REMARK    5  A    between atoms: C_6  and  C_10
REMARK    6  A    between atoms: C_8  and  C_10
REMARK    7  A    between atoms: C_8  and  C_12
REMARK    8  A    between atoms: C_12  and  C_13
REMARK    9  A    between atoms: C_13  and  C_15
REMARK   10  A    between atoms: C_20  and  O_24
REMARK   11  A    between atoms: C_26  and  C_27
REMARK   12  A    between atoms: C_27  and  C_30
REMARK   13  A    between atoms: C_29  and  C_33
REMARK   14  A    between atoms: C_31  and  C_33
REMARK   15  A    between atoms: C_31  and  C_44
REMARK   16  A    between atoms: C_35  and  O_45
REMARK   17  A    between atoms: C_37  and  O_47
REMARK   18  A    between atoms: C_39  and  C_43
REMARK   19  A    between atoms: O_47  and  C_49
REMARK                            x       y       z     vdW  Elec       q    Type
REMARK                         _______ _______ _______ _____ _____    ______ ____
ROOT
ATOM      1  C   UNL     1      21.315  23.423  25.435  0.00  0.00    +0.000 C 
ATOM      2  C   UNL     1      20.565  22.843  24.698  0.00  0.00    +0.000 C 
ENDROOT
BRANCH   2   3
ATOM      3  C   UNL     1      19.610  22.107  23.751  0.00  0.00    +0.000 C 
BRANCH   3   4
ATOM      4  C   UNL     1      18.806  21.483  22.948  0.00  0.00    +0.000 C 
ATOM      5  C   UNL     1      18.068  22.245  21.890  0.00  0.00    +0.000 C 
BRANCH   4   7
ATOM      6  C   UNL     1      18.545  18.886  23.121  0.00  0.00    +0.000 C 
ATOM      7  C   UNL     1      18.666  20.078  23.041  0.00  0.00    +0.000 C 
BRANCH   6   8
ATOM      8  C   UNL     1      18.385  17.365  23.222  0.00  0.00    +0.000 C 
BRANCH   8   9
ATOM      9  C   UNL     1      18.246  16.078  23.298  0.00  0.00    +0.000 C 
ATOM     10  C   UNL     1      17.634  15.456  24.516  0.00  0.00    +0.000 C 
BRANCH   9  12
ATOM     11  C   UNL     1      19.229  14.545  21.414  0.00  0.00    +0.000 C 
ATOM     12  C   UNL     1      18.781  15.251  22.279  0.00  0.00    +0.000 C 
BRANCH  11  18
ATOM     13  C   UNL     1      19.507  12.244  20.461  0.00  0.00    +0.000 C 
ATOM     14  C   UNL     1      20.586  14.337  19.356  0.00  0.00    +0.000 C 
ATOM     15  C   UNL     1      19.890  11.660  19.169  0.00  0.00    +0.000 C 
ATOM     16  C   UNL     1      20.486  12.052  17.955  0.00  0.00    +0.000 C 
ATOM     17  C   UNL     1      20.750  13.406  18.246  0.00  0.00    +0.000 C 
ATOM     18  C   UNL     1      19.722  13.768  20.470  0.00  0.00    +0.000 C 
ATOM     19  C   UNL     1      20.357  11.619  21.599  0.00  0.00    +0.000 C 
ATOM     20  C   UNL     1      17.996  11.941  20.701  0.00  0.00    +0.000 C 
ATOM     21  C   UNL     1      21.941  14.801  19.899  0.00  0.00    +0.000 C 
BRANCH  14  22
ATOM     22  O   UNL     1      19.979  15.505  18.850  0.00  0.00    +0.000 OA
ATOM     23  H   UNL     1      19.817  15.252  17.922  0.00  0.00    +0.000 HD
ENDBRANCH  14  22
BRANCH  16  24
ATOM     24  O   UNL     1      21.470  11.249  17.394  0.00  0.00    +0.000 OA
BRANCH  24  26
ATOM     25  O   UNL     1      21.758  10.340  15.250  0.00  0.00    +0.000 OA
ATOM     26  C   UNL     1      21.175  10.995  16.094  0.00  0.00    +0.000 C 
ATOM     27  C   UNL     1      19.924  11.642  15.616  0.00  0.00    +0.000 C 
ENDBRANCH  24  26
ENDBRANCH  16  24
ENDBRANCH  11  18
ENDBRANCH   9  12
ENDBRANCH   8   9
ENDBRANCH   6   8
ENDBRANCH   4   7
ENDBRANCH   3   4
ENDBRANCH   2   3
BRANCH   1  28
ATOM     28  C   UNL     1      22.275  24.169  26.368  0.00  0.00    +0.000 C 
BRANCH  28  29
ATOM     29  C   UNL     1      23.096  24.795  27.151  0.00  0.00    +0.000 C 
ATOM     30  C   UNL     1      23.554  26.179  26.805  0.00  0.00    +0.000 C 
BRANCH  29  32
ATOM     31  C   UNL     1      24.006  23.595  29.291  0.00  0.00    +0.000 C 
ATOM     32  C   UNL     1      23.588  24.152  28.313  0.00  0.00    +0.000 C 
BRANCH  31  33
ATOM     33  C   UNL     1      24.542  22.870  30.531  0.00  0.00    +0.000 C 
BRANCH  33  34
ATOM     34  C   UNL     1      24.991  22.262  31.589  0.00  0.00    +0.000 C 
ATOM     35  C   UNL     1      24.035  22.123  32.755  0.00  0.00    +0.000 C 
BRANCH  34  37
ATOM     36  O   UNL     1      26.755  20.843  32.355  0.00  0.00    +0.000 OA
ATOM     37  C   UNL     1      26.405  21.775  31.638  0.00  0.00    +0.000 C 
BRANCH  37  38
ATOM     38  C   UNL     1      27.430  22.389  30.828  0.00  0.00    +0.000 C 
BRANCH  38  40
ATOM     39  O   UNL     1      29.101  21.941  29.200  0.00  0.00    +0.000 OA
ATOM     40  C   UNL     1      28.474  22.975  30.009  0.00  0.00    +0.000 C 
ATOM     41  C   UNL     1      28.350  22.911  28.472  0.00  0.00    +0.000 C 
ATOM     42  C   UNL     1      29.430  24.056  30.629  0.00  0.00    +0.000 C 
ATOM     43  C   UNL     1      29.188  23.783  27.713  0.00  0.00    +0.000 C 
ATOM     44  C   UNL     1      30.162  24.667  29.518  0.00  0.00    +0.000 C 
ATOM     45  C   UNL     1      30.176  24.701  28.110  0.00  0.00    +0.000 C 
ATOM     46  C   UNL     1      27.129  22.324  27.758  0.00  0.00    +0.000 C 
ATOM     47  C   UNL     1      28.499  25.084  31.318  0.00  0.00    +0.000 C 
ATOM     48  C   UNL     1      30.326  23.302  31.636  0.00  0.00    +0.000 C 
BRANCH  45  49
ATOM     49  O   UNL     1      30.427  25.853  27.429  0.00  0.00    +0.000 OA
ATOM     50  H   UNL     1      30.144  25.804  26.499  0.00  0.00    +0.000 HD
ENDBRANCH  45  49
ENDBRANCH  38  40
ENDBRANCH  37  38
ENDBRANCH  34  37
ENDBRANCH  33  34
ENDBRANCH  31  33
ENDBRANCH  29  32
ENDBRANCH  28  29
ENDBRANCH   1  28
TORSDOF 19
ENDMDL
MODEL 8
REMARK VINA RESULT:      -5.8     35.406     39.051
REMARK  Name = 5281239_Fucoxanthin.pdbqt.pdb
REMARK  19 active torsions:
REMARK  status: ('A' for Active; 'I' for Inactive)
REMARK    1  A    between atoms: C_1  and  C_5
REMARK    2  A    between atoms: C_2  and  C_26
REMARK    3  A    between atoms: C_3  and  C_5
REMARK    4  A    between atoms: C_3  and  C_7
REMARK    5  A    between atoms: C_6  and  C_10
REMARK    6  A    between atoms: C_8  and  C_10
REMARK    7  A    between atoms: C_8  and  C_12
REMARK    8  A    between atoms: C_12  and  C_13
REMARK    9  A    between atoms: C_13  and  C_15
REMARK   10  A    between atoms: C_20  and  O_24
REMARK   11  A    between atoms: C_26  and  C_27
REMARK   12  A    between atoms: C_27  and  C_30
REMARK   13  A    between atoms: C_29  and  C_33
REMARK   14  A    between atoms: C_31  and  C_33
REMARK   15  A    between atoms: C_31  and  C_44
REMARK   16  A    between atoms: C_35  and  O_45
REMARK   17  A    between atoms: C_37  and  O_47
REMARK   18  A    between atoms: C_39  and  C_43
REMARK   19  A    between atoms: O_47  and  C_49
REMARK                            x       y       z     vdW  Elec       q    Type
REMARK                         _______ _______ _______ _____ _____    ______ ____
ROOT
ATOM      1  C   UNL     1      49.930  -0.367  40.502  0.00  0.00    +0.000 C 
ATOM      2  C   UNL     1      49.895  -1.271  39.714  0.00  0.00    +0.000 C 
ENDROOT
BRANCH   2   3
ATOM      3  C   UNL     1      49.844  -2.425  38.705  0.00  0.00    +0.000 C 
BRANCH   3   4
ATOM      4  C   UNL     1      49.803  -3.402  37.855  0.00  0.00    +0.000 C 
ATOM      5  C   UNL     1      49.551  -4.799  38.334  0.00  0.00    +0.000 C 
BRANCH   4   7
ATOM      6  C   UNL     1      50.068  -2.919  35.297  0.00  0.00    +0.000 C 
ATOM      7  C   UNL     1      49.945  -3.140  36.471  0.00  0.00    +0.000 C 
BRANCH   6   8
ATOM      8  C   UNL     1      50.227  -2.642  33.798  0.00  0.00    +0.000 C 
BRANCH   8   9
ATOM      9  C   UNL     1      50.351  -2.406  32.529  0.00  0.00    +0.000 C 
ATOM     10  C   UNL     1      50.690  -3.518  31.585  0.00  0.00    +0.000 C 
BRANCH   9  12
ATOM     11  C   UNL     1      50.218   0.057  31.644  0.00  0.00    +0.000 C 
ATOM     12  C   UNL     1      50.282  -1.074  32.051  0.00  0.00    +0.000 C 
BRANCH  11  18
ATOM     13  C   UNL     1      49.769   1.620  29.737  0.00  0.00    +0.000 C 
ATOM     14  C   UNL     1      50.490   2.476  32.086  0.00  0.00    +0.000 C 
ATOM     15  C   UNL     1      49.470   3.048  29.572  0.00  0.00    +0.000 C 
ATOM     16  C   UNL     1      49.510   4.241  30.320  0.00  0.00    +0.000 C 
ATOM     17  C   UNL     1      50.034   3.745  31.531  0.00  0.00    +0.000 C 
ATOM     18  C   UNL     1      50.146   1.293  31.194  0.00  0.00    +0.000 C 
ATOM     19  C   UNL     1      50.954   1.216  28.819  0.00  0.00    +0.000 C 
ATOM     20  C   UNL     1      48.496   0.809  29.346  0.00  0.00    +0.000 C 
ATOM     21  C   UNL     1      51.990   2.508  32.395  0.00  0.00    +0.000 C 
BRANCH  14  22
ATOM     22  O   UNL     1      49.865   2.307  33.339  0.00  0.00    +0.000 OA
ATOM     23  H   UNL     1      49.011   2.752  33.190  0.00  0.00    +0.000 HD
ENDBRANCH  14  22
BRANCH  16  24
ATOM     24  O   UNL     1      50.041   5.386  29.740  0.00  0.00    +0.000 OA
BRANCH  24  26
ATOM     25  O   UNL     1      49.844   7.622  30.423  0.00  0.00    +0.000 OA
ATOM     26  C   UNL     1      49.438   6.487  30.251  0.00  0.00    +0.000 C 
ATOM     27  C   UNL     1      48.033   6.263  30.690  0.00  0.00    +0.000 C 
ENDBRANCH  24  26
ENDBRANCH  16  24
ENDBRANCH  11  18
ENDBRANCH   9  12
ENDBRANCH   8   9
ENDBRANCH   6   8
ENDBRANCH   4   7
ENDBRANCH   3   4
ENDBRANCH   2   3
BRANCH   1  28
ATOM     28  C   UNL     1      49.965   0.791  41.506  0.00  0.00    +0.000 C 
BRANCH  28  29
ATOM     29  C   UNL     1      49.993   1.777  42.345  0.00  0.00    +0.000 C 
ATOM     30  C   UNL     1      50.995   2.879  42.174  0.00  0.00    +0.000 C 
BRANCH  29  32
ATOM     31  C   UNL     1      48.343   1.789  44.375  0.00  0.00    +0.000 C 
ATOM     32  C   UNL     1      49.103   1.791  43.445  0.00  0.00    +0.000 C 
BRANCH  31  33
ATOM     33  C   UNL     1      47.367   1.771  45.558  0.00  0.00    +0.000 C 
BRANCH  33  34
ATOM     34  C   UNL     1      46.547   1.758  46.567  0.00  0.00    +0.000 C 
ATOM     35  C   UNL     1      45.749   3.022  46.815  0.00  0.00    +0.000 C 
BRANCH  34  37
ATOM     36  O   UNL     1      47.316   0.275  48.275  0.00  0.00    +0.000 OA
ATOM     37  C   UNL     1      46.452   0.555  47.450  0.00  0.00    +0.000 C 
BRANCH  37  38
ATOM     38  C   UNL     1      45.322  -0.339  47.368  0.00  0.00    +0.000 C 
BRANCH  38  40
ATOM     39  O   UNL     1      43.033  -0.623  47.940  0.00  0.00    +0.000 OA
ATOM     40  C   UNL     1      44.173  -1.218  47.260  0.00  0.00    +0.000 C 
ATOM     41  C   UNL     1      42.911  -0.722  46.522  0.00  0.00    +0.000 C 
ATOM     42  C   UNL     1      44.365  -2.767  47.437  0.00  0.00    +0.000 C 
ATOM     43  C   UNL     1      41.954  -1.707  46.132  0.00  0.00    +0.000 C 
ATOM     44  C   UNL     1      43.126  -3.405  46.987  0.00  0.00    +0.000 C 
ATOM     45  C   UNL     1      41.918  -3.098  46.330  0.00  0.00    +0.000 C 
ATOM     46  C   UNL     1      42.836   0.638  45.823  0.00  0.00    +0.000 C 
ATOM     47  C   UNL     1      45.553  -3.144  46.518  0.00  0.00    +0.000 C 
ATOM     48  C   UNL     1      44.681  -2.988  48.932  0.00  0.00    +0.000 C 
BRANCH  45  49
ATOM     49  O   UNL     1      41.358  -3.956  45.434  0.00  0.00    +0.000 OA
ATOM     50  H   UNL     1      41.890  -4.045  44.623  0.00  0.00    +0.000 HD
ENDBRANCH  45  49
ENDBRANCH  38  40
ENDBRANCH  37  38
ENDBRANCH  34  37
ENDBRANCH  33  34
ENDBRANCH  31  33
ENDBRANCH  29  32
ENDBRANCH  28  29
ENDBRANCH   1  28
TORSDOF 19
ENDMDL
MODEL 9
REMARK VINA RESULT:      -5.8     38.548     43.192
REMARK  Name = 5281239_Fucoxanthin.pdbqt.pdb
REMARK  19 active torsions:
REMARK  status: ('A' for Active; 'I' for Inactive)
REMARK    1  A    between atoms: C_1  and  C_5
REMARK    2  A    between atoms: C_2  and  C_26
REMARK    3  A    between atoms: C_3  and  C_5
REMARK    4  A    between atoms: C_3  and  C_7
REMARK    5  A    between atoms: C_6  and  C_10
REMARK    6  A    between atoms: C_8  and  C_10
REMARK    7  A    between atoms: C_8  and  C_12
REMARK    8  A    between atoms: C_12  and  C_13
REMARK    9  A    between atoms: C_13  and  C_15
REMARK   10  A    between atoms: C_20  and  O_24
REMARK   11  A    between atoms: C_26  and  C_27
REMARK   12  A    between atoms: C_27  and  C_30
REMARK   13  A    between atoms: C_29  and  C_33
REMARK   14  A    between atoms: C_31  and  C_33
REMARK   15  A    between atoms: C_31  and  C_44
REMARK   16  A    between atoms: C_35  and  O_45
REMARK   17  A    between atoms: C_37  and  O_47
REMARK   18  A    between atoms: C_39  and  C_43
REMARK   19  A    between atoms: O_47  and  C_49
REMARK                            x       y       z     vdW  Elec       q    Type
REMARK                         _______ _______ _______ _____ _____    ______ ____
ROOT
ATOM      1  C   UNL     1      51.007  -6.176  38.767  0.00  0.00    +0.000 C 
ATOM      2  C   UNL     1      50.720  -5.033  38.993  0.00  0.00    +0.000 C 
ENDROOT
BRANCH   2   3
ATOM      3  C   UNL     1      50.361  -3.572  39.286  0.00  0.00    +0.000 C 
BRANCH   3   4
ATOM      4  C   UNL     1      50.053  -2.338  39.536  0.00  0.00    +0.000 C 
ATOM      5  C   UNL     1      49.998  -1.340  38.419  0.00  0.00    +0.000 C 
BRANCH   4   7
ATOM      6  C   UNL     1      49.440  -1.616  41.975  0.00  0.00    +0.000 C 
ATOM      7  C   UNL     1      49.721  -1.946  40.855  0.00  0.00    +0.000 C 
BRANCH   6   8
ATOM      8  C   UNL     1      49.084  -1.199  43.406  0.00  0.00    +0.000 C 
BRANCH   8   9
ATOM      9  C   UNL     1      48.781  -0.836  44.613  0.00  0.00    +0.000 C 
ATOM     10  C   UNL     1      49.836  -0.287  45.524  0.00  0.00    +0.000 C 
BRANCH   9  12
ATOM     11  C   UNL     1      46.363  -1.264  45.527  0.00  0.00    +0.000 C 
ATOM     12  C   UNL     1      47.474  -1.068  45.111  0.00  0.00    +0.000 C 
BRANCH  11  18
ATOM     13  C   UNL     1      44.321  -0.370  46.673  0.00  0.00    +0.000 C 
ATOM     14  C   UNL     1      44.500  -2.849  45.903  0.00  0.00    +0.000 C 
ATOM     15  C   UNL     1      42.913  -0.766  46.813  0.00  0.00    +0.000 C 
ATOM     16  C   UNL     1      42.093  -1.889  46.595  0.00  0.00    +0.000 C 
ATOM     17  C   UNL     1      43.062  -2.807  46.140  0.00  0.00    +0.000 C 
ATOM     18  C   UNL     1      45.144  -1.473  45.984  0.00  0.00    +0.000 C 
ATOM     19  C   UNL     1      44.937  -0.095  48.071  0.00  0.00    +0.000 C 
ATOM     20  C   UNL     1      44.376   0.924  45.805  0.00  0.00    +0.000 C 
ATOM     21  C   UNL     1      45.194  -3.833  46.850  0.00  0.00    +0.000 C 
BRANCH  14  22
ATOM     22  O   UNL     1      44.706  -3.380  44.613  0.00  0.00    +0.000 OA
ATOM     23  H   UNL     1      43.789  -3.528  44.316  0.00  0.00    +0.000 HD
ENDBRANCH  14  22
BRANCH  16  24
ATOM     24  O   UNL     1      41.178  -2.259  47.572  0.00  0.00    +0.000 OA
BRANCH  24  26
ATOM     25  O   UNL     1      38.834  -2.354  47.604  0.00  0.00    +0.000 OA
ATOM     26  C   UNL     1      39.918  -2.201  47.073  0.00  0.00    +0.000 C 
ATOM     27  C   UNL     1      39.854  -1.909  45.615  0.00  0.00    +0.000 C 
ENDBRANCH  24  26
ENDBRANCH  16  24
ENDBRANCH  11  18
ENDBRANCH   9  12
ENDBRANCH   8   9
ENDBRANCH   6   8
ENDBRANCH   4   7
ENDBRANCH   3   4
ENDBRANCH   2   3
BRANCH   1  28
ATOM     28  C   UNL     1      51.381  -7.636  38.483  0.00  0.00    +0.000 C 
BRANCH  28  29
ATOM     29  C   UNL     1      51.687  -8.872  38.245  0.00  0.00    +0.000 C 
ATOM     30  C   UNL     1      51.770  -9.854  39.373  0.00  0.00    +0.000 C 
BRANCH  29  32
ATOM     31  C   UNL     1      52.214  -9.630  35.797  0.00  0.00    +0.000 C 
ATOM     32  C   UNL     1      51.980  -9.282  36.922  0.00  0.00    +0.000 C 
BRANCH  31  33
ATOM     33  C   UNL     1      52.497 -10.075  34.357  0.00  0.00    +0.000 C 
BRANCH  33  34
ATOM     34  C   UNL     1      52.737 -10.461  33.139  0.00  0.00    +0.000 C 
ATOM     35  C   UNL     1      54.175 -10.383  32.668  0.00  0.00    +0.000 C 
BRANCH  34  37
ATOM     36  O   UNL     1      51.211 -10.235  31.314  0.00  0.00    +0.000 OA
ATOM     37  C   UNL     1      51.618 -10.910  32.254  0.00  0.00    +0.000 C 
BRANCH  37  38
ATOM     38  C   UNL     1      50.964 -12.179  32.471  0.00  0.00    +0.000 C 
BRANCH  38  40
ATOM     39  O   UNL     1      48.890 -13.236  32.946  0.00  0.00    +0.000 OA
ATOM     40  C   UNL     1      50.311 -13.449  32.723  0.00  0.00    +0.000 C 
ATOM     41  C   UNL     1      49.218 -13.941  31.751  0.00  0.00    +0.000 C 
ATOM     42  C   UNL     1      51.014 -14.510  33.644  0.00  0.00    +0.000 C 
ATOM     43  C   UNL     1      48.854 -15.320  31.822  0.00  0.00    +0.000 C 
ATOM     44  C   UNL     1      50.287 -15.771  33.474  0.00  0.00    +0.000 C 
ATOM     45  C   UNL     1      49.290 -16.354  32.668  0.00  0.00    +0.000 C 
ATOM     46  C   UNL     1      48.836 -13.185  30.475  0.00  0.00    +0.000 C 
ATOM     47  C   UNL     1      52.462 -14.626  33.110  0.00  0.00    +0.000 C 
ATOM     48  C   UNL     1      50.955 -13.936  35.076  0.00  0.00    +0.000 C 
BRANCH  45  49
ATOM     49  O   UNL     1      49.371 -17.652  32.265  0.00  0.00    +0.000 OA
ATOM     50  H   UNL     1      48.753 -18.230  32.746  0.00  0.00    +0.000 HD
ENDBRANCH  45  49
ENDBRANCH  38  40
ENDBRANCH  37  38
ENDBRANCH  34  37
ENDBRANCH  33  34
ENDBRANCH  31  33
ENDBRANCH  29  32
ENDBRANCH  28  29
ENDBRANCH   1  28
TORSDOF 19
ENDMDL
