MODEL 1
REMARK VINA RESULT:      -7.3      0.000      0.000
REMARK  Name = 5281224_Astaxanthin.pdbqt.pdb
REMARK  16 active torsions:
REMARK  status: ('A' for Active; 'I' for Inactive)
REMARK    1  A    between atoms: C_1  and  C_5
REMARK    2  A    between atoms: C_2  and  C_27
REMARK    3  A    between atoms: C_3  and  C_5
REMARK    4  A    between atoms: C_3  and  C_7
REMARK    5  A    between atoms: C_6  and  C_10
REMARK    6  A    between atoms: C_8  and  C_10
REMARK    7  A    between atoms: C_8  and  C_12
REMARK    8  A    between atoms: C_11  and  C_16
REMARK    9  A    between atoms: C_17  and  O_23
REMARK   10  A    between atoms: C_25  and  C_27
REMARK   11  A    between atoms: C_25  and  C_29
REMARK   12  A    between atoms: C_28  and  C_32
REMARK   13  A    between atoms: C_30  and  C_32
REMARK   14  A    between atoms: C_30  and  C_34
REMARK   15  A    between atoms: C_33  and  C_38
REMARK   16  A    between atoms: C_39  and  O_45
REMARK                            x       y       z     vdW  Elec       q    Type
REMARK                         _______ _______ _______ _____ _____    ______ ____
ROOT
ATOM      1  C   UNL     1      20.635  11.098   9.449  0.00  0.00    +0.000 C 
ATOM      2  C   UNL     1      21.269  10.782   8.480  0.00  0.00    +0.000 C 
ENDROOT
BRANCH   2   3
ATOM      3  C   UNL     1      22.086  10.376   7.247  0.00  0.00    +0.000 C 
BRANCH   3   4
ATOM      4  C   UNL     1      22.773  10.026   6.206  0.00  0.00    +0.000 C 
ATOM      5  C   UNL     1      23.691  11.014   5.550  0.00  0.00    +0.000 C 
BRANCH   4   7
ATOM      6  C   UNL     1      22.447   7.649   5.164  0.00  0.00    +0.000 C 
ATOM      7  C   UNL     1      22.597   8.741   5.640  0.00  0.00    +0.000 C 
BRANCH   6   8
ATOM      8  C   UNL     1      22.253   6.253   4.560  0.00  0.00    +0.000 C 
BRANCH   8   9
ATOM      9  C   UNL     1      22.083   5.072   4.052  0.00  0.00    +0.000 C 
ATOM     10  C   UNL     1      21.014   4.845   3.027  0.00  0.00    +0.000 C 
BRANCH   9  12
ATOM     11  C   UNL     1      23.776   3.148   4.596  0.00  0.00    +0.000 C 
ATOM     12  C   UNL     1      23.003   4.038   4.356  0.00  0.00    +0.000 C 
BRANCH  11  16
ATOM     13  O   UNL     1      24.858  -1.079   6.829  0.00  0.00    +0.000 OA
ATOM     14  C   UNL     1      26.094   2.120   4.194  0.00  0.00    +0.000 C 
ATOM     15  C   UNL     1      26.787   0.927   4.648  0.00  0.00    +0.000 C 
ATOM     16  C   UNL     1      24.700   2.066   4.873  0.00  0.00    +0.000 C 
ATOM     17  C   UNL     1      26.534  -0.165   5.473  0.00  0.00    +0.000 C 
ATOM     18  C   UNL     1      25.910   2.079   2.659  0.00  0.00    +0.000 C 
ATOM     19  C   UNL     1      26.845   3.385   4.663  0.00  0.00    +0.000 C 
ATOM     20  C   UNL     1      24.322   1.049   5.702  0.00  0.00    +0.000 C 
ATOM     21  C   UNL     1      25.188  -0.162   6.088  0.00  0.00    +0.000 C 
ATOM     22  C   UNL     1      22.913   1.082   6.311  0.00  0.00    +0.000 C 
BRANCH  17  23
ATOM     23  O   UNL     1      27.447  -1.161   5.695  0.00  0.00    +0.000 OA
ATOM     24  H   UNL     1      28.208  -1.076   5.086  0.00  0.00    +0.000 HD
ENDBRANCH  17  23
ENDBRANCH  11  16
ENDBRANCH   9  12
ENDBRANCH   8   9
ENDBRANCH   6   8
ENDBRANCH   4   7
ENDBRANCH   3   4
ENDBRANCH   2   3
BRANCH   1  25
ATOM     25  C   UNL     1      19.834  11.500  10.693  0.00  0.00    +0.000 C 
BRANCH  25  26
ATOM     26  C   UNL     1      19.158  11.836  11.747  0.00  0.00    +0.000 C 
ATOM     27  C   UNL     1      17.834  12.523  11.597  0.00  0.00    +0.000 C 
BRANCH  26  29
ATOM     28  C   UNL     1      20.176  11.457  14.126  0.00  0.00    +0.000 C 
ATOM     29  C   UNL     1      19.708  11.632  13.034  0.00  0.00    +0.000 C 
BRANCH  28  30
ATOM     30  C   UNL     1      20.775  11.230  15.520  0.00  0.00    +0.000 C 
BRANCH  30  31
ATOM     31  C   UNL     1      21.287  11.045  16.696  0.00  0.00    +0.000 C 
ATOM     32  C   UNL     1      22.462  11.863  17.138  0.00  0.00    +0.000 C 
BRANCH  31  34
ATOM     33  C   UNL     1      20.105   9.439  18.396  0.00  0.00    +0.000 C 
ATOM     34  C   UNL     1      20.639  10.184  17.617  0.00  0.00    +0.000 C 
BRANCH  33  38
ATOM     35  O   UNL     1      19.027   4.884  19.848  0.00  0.00    +0.000 OA
ATOM     36  C   UNL     1      18.717   9.142  20.534  0.00  0.00    +0.000 C 
ATOM     37  C   UNL     1      18.199   8.007  21.280  0.00  0.00    +0.000 C 
ATOM     38  C   UNL     1      19.472   8.526  19.328  0.00  0.00    +0.000 C 
ATOM     39  C   UNL     1      18.210   6.618  21.190  0.00  0.00    +0.000 C 
ATOM     40  C   UNL     1      19.717   9.940  21.404  0.00  0.00    +0.000 C 
ATOM     41  C   UNL     1      17.553  10.018  20.019  0.00  0.00    +0.000 C 
ATOM     42  C   UNL     1      19.565   7.180  19.123  0.00  0.00    +0.000 C 
ATOM     43  C   UNL     1      18.950   6.093  20.021  0.00  0.00    +0.000 C 
ATOM     44  C   UNL     1      20.350   6.672  17.906  0.00  0.00    +0.000 C 
BRANCH  39  45
ATOM     45  O   UNL     1      17.596   5.806  22.104  0.00  0.00    +0.000 OA
ATOM     46  H   UNL     1      18.255   5.263  22.582  0.00  0.00    +0.000 HD
ENDBRANCH  39  45
ENDBRANCH  33  38
ENDBRANCH  31  34
ENDBRANCH  30  31
ENDBRANCH  28  30
ENDBRANCH  26  29
ENDBRANCH  25  26
ENDBRANCH   1  25
TORSDOF 16
ENDMDL
MODEL 2
REMARK VINA RESULT:      -7.1      1.189      2.009
REMARK  Name = 5281224_Astaxanthin.pdbqt.pdb
REMARK  16 active torsions:
REMARK  status: ('A' for Active; 'I' for Inactive)
REMARK    1  A    between atoms: C_1  and  C_5
REMARK    2  A    between atoms: C_2  and  C_27
REMARK    3  A    between atoms: C_3  and  C_5
REMARK    4  A    between atoms: C_3  and  C_7
REMARK    5  A    between atoms: C_6  and  C_10
REMARK    6  A    between atoms: C_8  and  C_10
REMARK    7  A    between atoms: C_8  and  C_12
REMARK    8  A    between atoms: C_11  and  C_16
REMARK    9  A    between atoms: C_17  and  O_23
REMARK   10  A    between atoms: C_25  and  C_27
REMARK   11  A    between atoms: C_25  and  C_29
REMARK   12  A    between atoms: C_28  and  C_32
REMARK   13  A    between atoms: C_30  and  C_32
REMARK   14  A    between atoms: C_30  and  C_34
REMARK   15  A    between atoms: C_33  and  C_38
REMARK   16  A    between atoms: C_39  and  O_45
REMARK                            x       y       z     vdW  Elec       q    Type
REMARK                         _______ _______ _______ _____ _____    ______ ____
ROOT
ATOM      1  C   UNL     1      20.404  11.149   9.446  0.00  0.00    +0.000 C 
ATOM      2  C   UNL     1      20.992  10.845   8.445  0.00  0.00    +0.000 C 
ENDROOT
BRANCH   2   3
ATOM      3  C   UNL     1      21.748  10.465   7.165  0.00  0.00    +0.000 C 
BRANCH   3   4
ATOM      4  C   UNL     1      22.388  10.138   6.087  0.00  0.00    +0.000 C 
ATOM      5  C   UNL     1      23.038  11.199   5.252  0.00  0.00    +0.000 C 
BRANCH   4   7
ATOM      6  C   UNL     1      22.424   7.647   5.289  0.00  0.00    +0.000 C 
ATOM      7  C   UNL     1      22.406   8.790   5.657  0.00  0.00    +0.000 C 
BRANCH   6   8
ATOM      8  C   UNL     1      22.450   6.188   4.819  0.00  0.00    +0.000 C 
BRANCH   8   9
ATOM      9  C   UNL     1      22.471   4.951   4.429  0.00  0.00    +0.000 C 
ATOM     10  C   UNL     1      21.246   4.338   3.822  0.00  0.00    +0.000 C 
BRANCH   9  12
ATOM     11  C   UNL     1      24.721   3.609   4.428  0.00  0.00    +0.000 C 
ATOM     12  C   UNL     1      23.692   4.232   4.438  0.00  0.00    +0.000 C 
BRANCH  11  16
ATOM     13  O   UNL     1      29.605   3.400   4.067  0.00  0.00    +0.000 OA
ATOM     14  C   UNL     1      25.853   1.309   4.565  0.00  0.00    +0.000 C 
ATOM     15  C   UNL     1      27.221   0.826   4.504  0.00  0.00    +0.000 C 
ATOM     16  C   UNL     1      25.955   2.848   4.404  0.00  0.00    +0.000 C 
ATOM     17  C   UNL     1      28.498   1.356   4.349  0.00  0.00    +0.000 C 
ATOM     18  C   UNL     1      25.233   0.985   5.945  0.00  0.00    +0.000 C 
ATOM     19  C   UNL     1      25.027   0.724   3.398  0.00  0.00    +0.000 C 
ATOM     20  C   UNL     1      27.147   3.496   4.249  0.00  0.00    +0.000 C 
ATOM     21  C   UNL     1      28.531   2.828   4.205  0.00  0.00    +0.000 C 
ATOM     22  C   UNL     1      27.140   5.025   4.114  0.00  0.00    +0.000 C 
BRANCH  17  23
ATOM     23  O   UNL     1      29.631   0.586   4.337  0.00  0.00    +0.000 OA
ATOM     24  H   UNL     1      30.161   0.737   5.146  0.00  0.00    +0.000 HD
ENDBRANCH  17  23
ENDBRANCH  11  16
ENDBRANCH   9  12
ENDBRANCH   8   9
ENDBRANCH   6   8
ENDBRANCH   4   7
ENDBRANCH   3   4
ENDBRANCH   2   3
BRANCH   1  25
ATOM     25  C   UNL     1      19.658  11.545  10.725  0.00  0.00    +0.000 C 
BRANCH  25  26
ATOM     26  C   UNL     1      19.024  11.879  11.805  0.00  0.00    +0.000 C 
ATOM     27  C   UNL     1      17.700  12.578  11.707  0.00  0.00    +0.000 C 
BRANCH  26  29
ATOM     28  C   UNL     1      20.120  11.477  14.145  0.00  0.00    +0.000 C 
ATOM     29  C   UNL     1      19.617  11.663  13.071  0.00  0.00    +0.000 C 
BRANCH  28  30
ATOM     30  C   UNL     1      20.762  11.236  15.518  0.00  0.00    +0.000 C 
BRANCH  30  31
ATOM     31  C   UNL     1      21.302  11.040  16.679  0.00  0.00    +0.000 C 
ATOM     32  C   UNL     1      22.473  11.871  17.109  0.00  0.00    +0.000 C 
BRANCH  31  34
ATOM     33  C   UNL     1      20.156   9.421  18.391  0.00  0.00    +0.000 C 
ATOM     34  C   UNL     1      20.687  10.155  17.600  0.00  0.00    +0.000 C 
BRANCH  33  38
ATOM     35  O   UNL     1      18.922   4.939  19.945  0.00  0.00    +0.000 OA
ATOM     36  C   UNL     1      18.814   9.217  20.569  0.00  0.00    +0.000 C 
ATOM     37  C   UNL     1      18.267   8.117  21.346  0.00  0.00    +0.000 C 
ATOM     38  C   UNL     1      19.510   8.550  19.354  0.00  0.00    +0.000 C 
ATOM     39  C   UNL     1      18.217   6.728  21.279  0.00  0.00    +0.000 C 
ATOM     40  C   UNL     1      19.870   9.984  21.399  0.00  0.00    +0.000 C 
ATOM     41  C   UNL     1      17.676  10.135  20.070  0.00  0.00    +0.000 C 
ATOM     42  C   UNL     1      19.539   7.198  19.169  0.00  0.00    +0.000 C 
ATOM     43  C   UNL     1      18.902   6.154  20.100  0.00  0.00    +0.000 C 
ATOM     44  C   UNL     1      20.269   6.638  17.940  0.00  0.00    +0.000 C 
BRANCH  39  45
ATOM     45  O   UNL     1      17.592   5.958  22.221  0.00  0.00    +0.000 OA
ATOM     46  H   UNL     1      16.633   5.890  22.034  0.00  0.00    +0.000 HD
ENDBRANCH  39  45
ENDBRANCH  33  38
ENDBRANCH  31  34
ENDBRANCH  30  31
ENDBRANCH  28  30
ENDBRANCH  26  29
ENDBRANCH  25  26
ENDBRANCH   1  25
TORSDOF 16
ENDMDL
MODEL 3
REMARK VINA RESULT:      -6.9      3.315     14.443
REMARK  Name = 5281224_Astaxanthin.pdbqt.pdb
REMARK  16 active torsions:
REMARK  status: ('A' for Active; 'I' for Inactive)
REMARK    1  A    between atoms: C_1  and  C_5
REMARK    2  A    between atoms: C_2  and  C_27
REMARK    3  A    between atoms: C_3  and  C_5
REMARK    4  A    between atoms: C_3  and  C_7
REMARK    5  A    between atoms: C_6  and  C_10
REMARK    6  A    between atoms: C_8  and  C_10
REMARK    7  A    between atoms: C_8  and  C_12
REMARK    8  A    between atoms: C_11  and  C_16
REMARK    9  A    between atoms: C_17  and  O_23
REMARK   10  A    between atoms: C_25  and  C_27
REMARK   11  A    between atoms: C_25  and  C_29
REMARK   12  A    between atoms: C_28  and  C_32
REMARK   13  A    between atoms: C_30  and  C_32
REMARK   14  A    between atoms: C_30  and  C_34
REMARK   15  A    between atoms: C_33  and  C_38
REMARK   16  A    between atoms: C_39  and  O_45
REMARK                            x       y       z     vdW  Elec       q    Type
REMARK                         _______ _______ _______ _____ _____    ______ ____
ROOT
ATOM      1  C   UNL     1      19.524  11.511  13.038  0.00  0.00    +0.000 C 
ATOM      2  C   UNL     1      20.210  11.263  13.991  0.00  0.00    +0.000 C 
ENDROOT
BRANCH   2   3
ATOM      3  C   UNL     1      21.087  10.955  15.211  0.00  0.00    +0.000 C 
BRANCH   3   4
ATOM      4  C   UNL     1      21.830  10.700  16.242  0.00  0.00    +0.000 C 
ATOM      5  C   UNL     1      23.271  11.113  16.246  0.00  0.00    +0.000 C 
BRANCH   4   7
ATOM      6  C   UNL     1      20.855   9.342  18.254  0.00  0.00    +0.000 C 
ATOM      7  C   UNL     1      21.302   9.963  17.329  0.00  0.00    +0.000 C 
BRANCH   6   8
ATOM      8  C   UNL     1      20.284   8.550  19.436  0.00  0.00    +0.000 C 
BRANCH   8   9
ATOM      9  C   UNL     1      19.808   7.881  20.440  0.00  0.00    +0.000 C 
ATOM     10  C   UNL     1      20.185   8.263  21.839  0.00  0.00    +0.000 C 
BRANCH   9  12
ATOM     11  C   UNL     1      17.993   6.037  20.030  0.00  0.00    +0.000 C 
ATOM     12  C   UNL     1      18.818   6.892  20.219  0.00  0.00    +0.000 C 
BRANCH  11  16
ATOM     13  O   UNL     1      13.431   4.639  18.906  0.00  0.00    +0.000 OA
ATOM     14  C   UNL     1      17.482   3.524  19.926  0.00  0.00    +0.000 C 
ATOM     15  C   UNL     1      16.306   2.719  19.643  0.00  0.00    +0.000 C 
ATOM     16  C   UNL     1      17.012   4.995  19.797  0.00  0.00    +0.000 C 
ATOM     17  C   UNL     1      14.971   2.923  19.311  0.00  0.00    +0.000 C 
ATOM     18  C   UNL     1      18.583   3.251  18.874  0.00  0.00    +0.000 C 
ATOM     19  C   UNL     1      17.971   3.264  21.369  0.00  0.00    +0.000 C 
ATOM     20  C   UNL     1      15.729   5.335  19.473  0.00  0.00    +0.000 C 
ATOM     21  C   UNL     1      14.583   4.347  19.199  0.00  0.00    +0.000 C 
ATOM     22  C   UNL     1      15.369   6.822  19.355  0.00  0.00    +0.000 C 
BRANCH  17  23
ATOM     23  O   UNL     1      14.089   1.897  19.100  0.00  0.00    +0.000 OA
ATOM     24  H   UNL     1      14.255   1.162  19.725  0.00  0.00    +0.000 HD
ENDBRANCH  17  23
ENDBRANCH  11  16
ENDBRANCH   9  12
ENDBRANCH   8   9
ENDBRANCH   6   8
ENDBRANCH   4   7
ENDBRANCH   3   4
ENDBRANCH   2   3
BRANCH   1  25
ATOM     25  C   UNL     1      18.648  11.838  11.823  0.00  0.00    +0.000 C 
BRANCH  25  26
ATOM     26  C   UNL     1      17.903  12.112  10.798  0.00  0.00    +0.000 C 
ATOM     27  C   UNL     1      16.649  12.913  10.980  0.00  0.00    +0.000 C 
BRANCH  26  29
ATOM     28  C   UNL     1      18.498  11.134   8.447  0.00  0.00    +0.000 C 
ATOM     29  C   UNL     1      18.226  11.583   9.527  0.00  0.00    +0.000 C 
BRANCH  28  30
ATOM     30  C   UNL     1      18.842  10.560   7.066  0.00  0.00    +0.000 C 
BRANCH  30  31
ATOM     31  C   UNL     1      19.139  10.081   5.899  0.00  0.00    +0.000 C 
ATOM     32  C   UNL     1      18.282  10.412   4.715  0.00  0.00    +0.000 C 
BRANCH  31  34
ATOM     33  C   UNL     1      21.380   8.772   5.546  0.00  0.00    +0.000 C 
ATOM     34  C   UNL     1      20.356   9.380   5.716  0.00  0.00    +0.000 C 
BRANCH  33  38
ATOM     35  O   UNL     1      23.739   4.849   3.795  0.00  0.00    +0.000 OA
ATOM     36  C   UNL     1      23.925   8.646   5.855  0.00  0.00    +0.000 C 
ATOM     37  C   UNL     1      24.963   7.692   5.500  0.00  0.00    +0.000 C 
ATOM     38  C   UNL     1      22.605   8.025   5.330  0.00  0.00    +0.000 C 
ATOM     39  C   UNL     1      25.060   6.461   4.859  0.00  0.00    +0.000 C 
ATOM     40  C   UNL     1      24.171   9.994   5.137  0.00  0.00    +0.000 C 
ATOM     41  C   UNL     1      23.846   8.802   7.390  0.00  0.00    +0.000 C 
ATOM     42  C   UNL     1      22.559   6.826   4.679  0.00  0.00    +0.000 C 
ATOM     43  C   UNL     1      23.768   5.925   4.378  0.00  0.00    +0.000 C 
ATOM     44  C   UNL     1      21.201   6.307   4.185  0.00  0.00    +0.000 C 
BRANCH  39  45
ATOM     45  O   UNL     1      26.247   5.804   4.682  0.00  0.00    +0.000 OA
ATOM     46  H   UNL     1      26.139   4.844   4.848  0.00  0.00    +0.000 HD
ENDBRANCH  39  45
ENDBRANCH  33  38
ENDBRANCH  31  34
ENDBRANCH  30  31
ENDBRANCH  28  30
ENDBRANCH  26  29
ENDBRANCH  25  26
ENDBRANCH   1  25
TORSDOF 16
ENDMDL
MODEL 4
REMARK VINA RESULT:      -6.9      5.781     14.753
REMARK  Name = 5281224_Astaxanthin.pdbqt.pdb
REMARK  16 active torsions:
REMARK  status: ('A' for Active; 'I' for Inactive)
REMARK    1  A    between atoms: C_1  and  C_5
REMARK    2  A    between atoms: C_2  and  C_27
REMARK    3  A    between atoms: C_3  and  C_5
REMARK    4  A    between atoms: C_3  and  C_7
REMARK    5  A    between atoms: C_6  and  C_10
REMARK    6  A    between atoms: C_8  and  C_10
REMARK    7  A    between atoms: C_8  and  C_12
REMARK    8  A    between atoms: C_11  and  C_16
REMARK    9  A    between atoms: C_17  and  O_23
REMARK   10  A    between atoms: C_25  and  C_27
REMARK   11  A    between atoms: C_25  and  C_29
REMARK   12  A    between atoms: C_28  and  C_32
REMARK   13  A    between atoms: C_30  and  C_32
REMARK   14  A    between atoms: C_30  and  C_34
REMARK   15  A    between atoms: C_33  and  C_38
REMARK   16  A    between atoms: C_39  and  O_45
REMARK                            x       y       z     vdW  Elec       q    Type
REMARK                         _______ _______ _______ _____ _____    ______ ____
ROOT
ATOM      1  C   UNL     1      19.815  11.610  13.171  0.00  0.00    +0.000 C 
ATOM      2  C   UNL     1      20.199  11.713  14.303  0.00  0.00    +0.000 C 
ENDROOT
BRANCH   2   3
ATOM      3  C   UNL     1      20.695  11.850  15.748  0.00  0.00    +0.000 C 
BRANCH   3   4
ATOM      4  C   UNL     1      21.114  11.972  16.968  0.00  0.00    +0.000 C 
ATOM      5  C   UNL     1      21.985  13.131  17.347  0.00  0.00    +0.000 C 
BRANCH   4   7
ATOM      6  C   UNL     1      20.561  10.122  18.734  0.00  0.00    +0.000 C 
ATOM      7  C   UNL     1      20.816  10.969  17.922  0.00  0.00    +0.000 C 
BRANCH   6   8
ATOM      8  C   UNL     1      20.232   9.042  19.770  0.00  0.00    +0.000 C 
BRANCH   8   9
ATOM      9  C   UNL     1      19.948   8.133  20.652  0.00  0.00    +0.000 C 
ATOM     10  C   UNL     1      20.542   8.212  22.025  0.00  0.00    +0.000 C 
BRANCH   9  12
ATOM     11  C   UNL     1      18.136   6.325  20.096  0.00  0.00    +0.000 C 
ATOM     12  C   UNL     1      18.963   7.156  20.362  0.00  0.00    +0.000 C 
BRANCH  11  16
ATOM     13  O   UNL     1      13.610   5.106  18.663  0.00  0.00    +0.000 OA
ATOM     14  C   UNL     1      17.573   3.834  19.835  0.00  0.00    +0.000 C 
ATOM     15  C   UNL     1      16.395   3.076  19.448  0.00  0.00    +0.000 C 
ATOM     16  C   UNL     1      17.144   5.322  19.758  0.00  0.00    +0.000 C 
ATOM     17  C   UNL     1      15.084   3.331  19.058  0.00  0.00    +0.000 C 
ATOM     18  C   UNL     1      18.721   3.586  18.829  0.00  0.00    +0.000 C 
ATOM     19  C   UNL     1      17.977   3.489  21.286  0.00  0.00    +0.000 C 
ATOM     20  C   UNL     1      15.890   5.711  19.385  0.00  0.00    +0.000 C 
ATOM     21  C   UNL     1      14.737   4.769  19.000  0.00  0.00    +0.000 C 
ATOM     22  C   UNL     1      15.571   7.212  19.326  0.00  0.00    +0.000 C 
BRANCH  17  23
ATOM     23  O   UNL     1      14.191   2.341  18.748  0.00  0.00    +0.000 OA
ATOM     24  H   UNL     1      13.984   2.349  17.791  0.00  0.00    +0.000 HD
ENDBRANCH  17  23
ENDBRANCH  11  16
ENDBRANCH   9  12
ENDBRANCH   8   9
ENDBRANCH   6   8
ENDBRANCH   4   7
ENDBRANCH   3   4
ENDBRANCH   2   3
BRANCH   1  25
ATOM     25  C   UNL     1      19.333  11.485  11.721  0.00  0.00    +0.000 C 
BRANCH  25  26
ATOM     26  C   UNL     1      18.920  11.381  10.497  0.00  0.00    +0.000 C 
ATOM     27  C   UNL     1      17.452  11.273  10.211  0.00  0.00    +0.000 C 
BRANCH  26  29
ATOM     28  C   UNL     1      20.648  11.199   8.542  0.00  0.00    +0.000 C 
ATOM     29  C   UNL     1      19.856  11.282   9.441  0.00  0.00    +0.000 C 
BRANCH  28  30
ATOM     30  C   UNL     1      21.659  11.095   7.392  0.00  0.00    +0.000 C 
BRANCH  30  31
ATOM     31  C   UNL     1      22.505  11.008   6.415  0.00  0.00    +0.000 C 
ATOM     32  C   UNL     1      22.063  10.471   5.088  0.00  0.00    +0.000 C 
BRANCH  31  34
ATOM     33  C   UNL     1      24.892  12.058   6.667  0.00  0.00    +0.000 C 
ATOM     34  C   UNL     1      23.800  11.566   6.556  0.00  0.00    +0.000 C 
BRANCH  33  38
ATOM     35  O   UNL     1      29.756  11.885   6.085  0.00  0.00    +0.000 OA
ATOM     36  C   UNL     1      26.276  14.096   7.388  0.00  0.00    +0.000 C 
ATOM     37  C   UNL     1      27.688  14.438   7.388  0.00  0.00    +0.000 C 
ATOM     38  C   UNL     1      26.203  12.667   6.791  0.00  0.00    +0.000 C 
ATOM     39  C   UNL     1      28.894  13.852   7.016  0.00  0.00    +0.000 C 
ATOM     40  C   UNL     1      25.492  15.067   6.474  0.00  0.00    +0.000 C 
ATOM     41  C   UNL     1      25.732  14.079   8.834  0.00  0.00    +0.000 C 
ATOM     42  C   UNL     1      27.308  11.979   6.382  0.00  0.00    +0.000 C 
ATOM     43  C   UNL     1      28.757  12.492   6.450  0.00  0.00    +0.000 C 
ATOM     44  C   UNL     1      27.125  10.575   5.789  0.00  0.00    +0.000 C 
BRANCH  39  45
ATOM     45  O   UNL     1      30.103  14.477   7.156  0.00  0.00    +0.000 OA
ATOM     46  H   UNL     1      30.762  13.873   7.555  0.00  0.00    +0.000 HD
ENDBRANCH  39  45
ENDBRANCH  33  38
ENDBRANCH  31  34
ENDBRANCH  30  31
ENDBRANCH  28  30
ENDBRANCH  26  29
ENDBRANCH  25  26
ENDBRANCH   1  25
TORSDOF 16
ENDMDL
MODEL 5
REMARK VINA RESULT:      -6.8      3.367      6.106
REMARK  Name = 5281224_Astaxanthin.pdbqt.pdb
REMARK  16 active torsions:
REMARK  status: ('A' for Active; 'I' for Inactive)
REMARK    1  A    between atoms: C_1  and  C_5
REMARK    2  A    between atoms: C_2  and  C_27
REMARK    3  A    between atoms: C_3  and  C_5
REMARK    4  A    between atoms: C_3  and  C_7
REMARK    5  A    between atoms: C_6  and  C_10
REMARK    6  A    between atoms: C_8  and  C_10
REMARK    7  A    between atoms: C_8  and  C_12
REMARK    8  A    between atoms: C_11  and  C_16
REMARK    9  A    between atoms: C_17  and  O_23
REMARK   10  A    between atoms: C_25  and  C_27
REMARK   11  A    between atoms: C_25  and  C_29
REMARK   12  A    between atoms: C_28  and  C_32
REMARK   13  A    between atoms: C_30  and  C_32
REMARK   14  A    between atoms: C_30  and  C_34
REMARK   15  A    between atoms: C_33  and  C_38
REMARK   16  A    between atoms: C_39  and  O_45
REMARK                            x       y       z     vdW  Elec       q    Type
REMARK                         _______ _______ _______ _____ _____    ______ ____
ROOT
ATOM      1  C   UNL     1      20.175  11.288  13.980  0.00  0.00    +0.000 C 
ATOM      2  C   UNL     1      19.486  11.513  13.024  0.00  0.00    +0.000 C 
ENDROOT
BRANCH   2   3
ATOM      3  C   UNL     1      18.598  11.800  11.806  0.00  0.00    +0.000 C 
BRANCH   3   4
ATOM      4  C   UNL     1      17.843  12.041  10.781  0.00  0.00    +0.000 C 
ATOM      5  C   UNL     1      16.575  12.822  10.953  0.00  0.00    +0.000 C 
BRANCH   4   7
ATOM      6  C   UNL     1      18.453  11.043   8.441  0.00  0.00    +0.000 C 
ATOM      7  C   UNL     1      18.175  11.500   9.516  0.00  0.00    +0.000 C 
BRANCH   6   8
ATOM      8  C   UNL     1      18.806  10.463   7.067  0.00  0.00    +0.000 C 
BRANCH   8   9
ATOM      9  C   UNL     1      19.100   9.965   5.906  0.00  0.00    +0.000 C 
ATOM     10  C   UNL     1      18.212  10.235   4.730  0.00  0.00    +0.000 C 
BRANCH   9  12
ATOM     11  C   UNL     1      21.389   8.741   5.545  0.00  0.00    +0.000 C 
ATOM     12  C   UNL     1      20.336   9.296   5.720  0.00  0.00    +0.000 C 
BRANCH  11  16
ATOM     13  O   UNL     1      24.005   5.025   3.711  0.00  0.00    +0.000 OA
ATOM     14  C   UNL     1      23.935   8.772   5.868  0.00  0.00    +0.000 C 
ATOM     15  C   UNL     1      25.034   7.897   5.496  0.00  0.00    +0.000 C 
ATOM     16  C   UNL     1      22.660   8.082   5.319  0.00  0.00    +0.000 C 
ATOM     17  C   UNL     1      25.214   6.692   4.825  0.00  0.00    +0.000 C 
ATOM     18  C   UNL     1      24.097  10.151   5.187  0.00  0.00    +0.000 C 
ATOM     19  C   UNL     1      23.838   8.882   7.406  0.00  0.00    +0.000 C 
ATOM     20  C   UNL     1      22.695   6.899   4.637  0.00  0.00    +0.000 C 
ATOM     21  C   UNL     1      23.961   6.085   4.321  0.00  0.00    +0.000 C 
ATOM     22  C   UNL     1      21.377   6.307   4.121  0.00  0.00    +0.000 C 
BRANCH  17  23
ATOM     23  O   UNL     1      26.442   6.117   4.638  0.00  0.00    +0.000 OA
ATOM     24  H   UNL     1      26.806   6.353   3.761  0.00  0.00    +0.000 HD
ENDBRANCH  17  23
ENDBRANCH  11  16
ENDBRANCH   9  12
ENDBRANCH   8   9
ENDBRANCH   6   8
ENDBRANCH   4   7
ENDBRANCH   3   4
ENDBRANCH   2   3
BRANCH   1  25
ATOM     25  C   UNL     1      21.046  10.998  15.208  0.00  0.00    +0.000 C 
BRANCH  25  26
ATOM     26  C   UNL     1      21.786  10.749  16.243  0.00  0.00    +0.000 C 
ATOM     27  C   UNL     1      23.231  11.152  16.241  0.00  0.00    +0.000 C 
BRANCH  26  29
ATOM     28  C   UNL     1      20.802   9.407  18.260  0.00  0.00    +0.000 C 
ATOM     29  C   UNL     1      21.256  10.023  17.334  0.00  0.00    +0.000 C 
BRANCH  28  30
ATOM     30  C   UNL     1      20.220   8.619  19.441  0.00  0.00    +0.000 C 
BRANCH  30  31
ATOM     31  C   UNL     1      19.735   7.957  20.444  0.00  0.00    +0.000 C 
ATOM     32  C   UNL     1      20.024   8.404  21.845  0.00  0.00    +0.000 C 
BRANCH  31  34
ATOM     33  C   UNL     1      18.012   6.034  20.001  0.00  0.00    +0.000 C 
ATOM     34  C   UNL     1      18.808   6.911  20.213  0.00  0.00    +0.000 C 
BRANCH  33  38
ATOM     35  O   UNL     1      13.489   4.625  18.746  0.00  0.00    +0.000 OA
ATOM     36  C   UNL     1      17.518   3.520  19.863  0.00  0.00    +0.000 C 
ATOM     37  C   UNL     1      16.353   2.712  19.542  0.00  0.00    +0.000 C 
ATOM     38  C   UNL     1      17.042   4.990  19.734  0.00  0.00    +0.000 C 
ATOM     39  C   UNL     1      15.025   2.912  19.176  0.00  0.00    +0.000 C 
ATOM     40  C   UNL     1      18.645   3.261  18.836  0.00  0.00    +0.000 C 
ATOM     41  C   UNL     1      17.969   3.250  21.315  0.00  0.00    +0.000 C 
ATOM     42  C   UNL     1      15.767   5.327  19.379  0.00  0.00    +0.000 C 
ATOM     43  C   UNL     1      14.635   4.335  19.066  0.00  0.00    +0.000 C 
ATOM     44  C   UNL     1      15.403   6.813  19.264  0.00  0.00    +0.000 C 
BRANCH  39  45
ATOM     45  O   UNL     1      14.154   1.884  18.934  0.00  0.00    +0.000 OA
ATOM     46  H   UNL     1      14.250   1.183  19.611  0.00  0.00    +0.000 HD
ENDBRANCH  39  45
ENDBRANCH  33  38
ENDBRANCH  31  34
ENDBRANCH  30  31
ENDBRANCH  28  30
ENDBRANCH  26  29
ENDBRANCH  25  26
ENDBRANCH   1  25
TORSDOF 16
ENDMDL
MODEL 6
REMARK VINA RESULT:      -6.7      2.483      3.616
REMARK  Name = 5281224_Astaxanthin.pdbqt.pdb
REMARK  16 active torsions:
REMARK  status: ('A' for Active; 'I' for Inactive)
REMARK    1  A    between atoms: C_1  and  C_5
REMARK    2  A    between atoms: C_2  and  C_27
REMARK    3  A    between atoms: C_3  and  C_5
REMARK    4  A    between atoms: C_3  and  C_7
REMARK    5  A    between atoms: C_6  and  C_10
REMARK    6  A    between atoms: C_8  and  C_10
REMARK    7  A    between atoms: C_8  and  C_12
REMARK    8  A    between atoms: C_11  and  C_16
REMARK    9  A    between atoms: C_17  and  O_23
REMARK   10  A    between atoms: C_25  and  C_27
REMARK   11  A    between atoms: C_25  and  C_29
REMARK   12  A    between atoms: C_28  and  C_32
REMARK   13  A    between atoms: C_30  and  C_32
REMARK   14  A    between atoms: C_30  and  C_34
REMARK   15  A    between atoms: C_33  and  C_38
REMARK   16  A    between atoms: C_39  and  O_45
REMARK                            x       y       z     vdW  Elec       q    Type
REMARK                         _______ _______ _______ _____ _____    ______ ____
ROOT
ATOM      1  C   UNL     1      18.137  11.148  10.042  0.00  0.00    +0.000 C 
ATOM      2  C   UNL     1      17.806  10.490   9.095  0.00  0.00    +0.000 C 
ENDROOT
BRANCH   2   3
ATOM      3  C   UNL     1      17.376   9.651   7.885  0.00  0.00    +0.000 C 
BRANCH   3   4
ATOM      4  C   UNL     1      17.018   8.940   6.863  0.00  0.00    +0.000 C 
ATOM      5  C   UNL     1      15.606   9.005   6.364  0.00  0.00    +0.000 C 
BRANCH   4   7
ATOM      6  C   UNL     1      18.719   7.280   5.769  0.00  0.00    +0.000 C 
ATOM      7  C   UNL     1      17.938   8.042   6.269  0.00  0.00    +0.000 C 
BRANCH   6   8
ATOM      8  C   UNL     1      19.717   6.305   5.133  0.00  0.00    +0.000 C 
BRANCH   8   9
ATOM      9  C   UNL     1      20.559   5.483   4.587  0.00  0.00    +0.000 C 
ATOM     10  C   UNL     1      21.561   5.988   3.595  0.00  0.00    +0.000 C 
BRANCH   9  12
ATOM     11  C   UNL     1      20.708   3.007   5.430  0.00  0.00    +0.000 C 
ATOM     12  C   UNL     1      20.627   4.143   5.043  0.00  0.00    +0.000 C 
BRANCH  11  16
ATOM     13  O   UNL     1      23.353  -0.644   7.353  0.00  0.00    +0.000 OA
ATOM     14  C   UNL     1      19.559   0.743   5.812  0.00  0.00    +0.000 C 
ATOM     15  C   UNL     1      19.969  -0.547   6.338  0.00  0.00    +0.000 C 
ATOM     16  C   UNL     1      20.823   1.638   5.894  0.00  0.00    +0.000 C 
ATOM     17  C   UNL     1      21.119  -1.135   6.854  0.00  0.00    +0.000 C 
ATOM     18  C   UNL     1      18.449   1.354   6.700  0.00  0.00    +0.000 C 
ATOM     19  C   UNL     1      19.122   0.604   4.337  0.00  0.00    +0.000 C 
ATOM     20  C   UNL     1      22.015   1.188   6.384  0.00  0.00    +0.000 C 
ATOM     21  C   UNL     1      22.289  -0.230   6.910  0.00  0.00    +0.000 C 
ATOM     22  C   UNL     1      23.203   2.159   6.437  0.00  0.00    +0.000 C 
BRANCH  17  23
ATOM     23  O   UNL     1      21.168  -2.435   7.281  0.00  0.00    +0.000 OA
ATOM     24  H   UNL     1      20.632  -2.554   8.092  0.00  0.00    +0.000 HD
ENDBRANCH  17  23
ENDBRANCH  11  16
ENDBRANCH   9  12
ENDBRANCH   8   9
ENDBRANCH   6   8
ENDBRANCH   4   7
ENDBRANCH   3   4
ENDBRANCH   2   3
BRANCH   1  25
ATOM     25  C   UNL     1      18.549  11.993  11.253  0.00  0.00    +0.000 C 
BRANCH  25  26
ATOM     26  C   UNL     1      18.893  12.707  12.279  0.00  0.00    +0.000 C 
ATOM     27  C   UNL     1      18.639  14.185  12.279  0.00  0.00    +0.000 C 
BRANCH  26  29
ATOM     28  C   UNL     1      20.173  11.603  14.274  0.00  0.00    +0.000 C 
ATOM     29  C   UNL     1      19.584  12.109  13.358  0.00  0.00    +0.000 C 
BRANCH  28  30
ATOM     30  C   UNL     1      20.929  10.958  15.443  0.00  0.00    +0.000 C 
BRANCH  30  31
ATOM     31  C   UNL     1      21.572  10.409  16.425  0.00  0.00    +0.000 C 
ATOM     32  C   UNL     1      23.053  10.604  16.551  0.00  0.00    +0.000 C 
BRANCH  31  34
ATOM     33  C   UNL     1      20.231   9.204  18.326  0.00  0.00    +0.000 C 
ATOM     34  C   UNL     1      20.855   9.761  17.461  0.00  0.00    +0.000 C 
BRANCH  33  38
ATOM     35  O   UNL     1      18.497   5.095  20.359  0.00  0.00    +0.000 OA
ATOM     36  C   UNL     1      18.793   9.409  20.442  0.00  0.00    +0.000 C 
ATOM     37  C   UNL     1      18.109   8.474  21.320  0.00  0.00    +0.000 C 
ATOM     38  C   UNL     1      19.465   8.529  19.356  0.00  0.00    +0.000 C 
ATOM     39  C   UNL     1      17.923   7.099  21.423  0.00  0.00    +0.000 C 
ATOM     40  C   UNL     1      19.887  10.173  21.223  0.00  0.00    +0.000 C 
ATOM     41  C   UNL     1      17.772  10.358  19.776  0.00  0.00    +0.000 C 
ATOM     42  C   UNL     1      19.366   7.168  19.341  0.00  0.00    +0.000 C 
ATOM     43  C   UNL     1      18.592   6.316  20.361  0.00  0.00    +0.000 C 
ATOM     44  C   UNL     1      20.083   6.389  18.230  0.00  0.00    +0.000 C 
BRANCH  39  45
ATOM     45  O   UNL     1      17.189   6.518  22.421  0.00  0.00    +0.000 OA
ATOM     46  H   UNL     1      16.256   6.405  22.144  0.00  0.00    +0.000 HD
ENDBRANCH  39  45
ENDBRANCH  33  38
ENDBRANCH  31  34
ENDBRANCH  30  31
ENDBRANCH  28  30
ENDBRANCH  26  29
ENDBRANCH  25  26
ENDBRANCH   1  25
TORSDOF 16
ENDMDL
MODEL 7
REMARK VINA RESULT:      -6.7     10.284     17.824
REMARK  Name = 5281224_Astaxanthin.pdbqt.pdb
REMARK  16 active torsions:
REMARK  status: ('A' for Active; 'I' for Inactive)
REMARK    1  A    between atoms: C_1  and  C_5
REMARK    2  A    between atoms: C_2  and  C_27
REMARK    3  A    between atoms: C_3  and  C_5
REMARK    4  A    between atoms: C_3  and  C_7
REMARK    5  A    between atoms: C_6  and  C_10
REMARK    6  A    between atoms: C_8  and  C_10
REMARK    7  A    between atoms: C_8  and  C_12
REMARK    8  A    between atoms: C_11  and  C_16
REMARK    9  A    between atoms: C_17  and  O_23
REMARK   10  A    between atoms: C_25  and  C_27
REMARK   11  A    between atoms: C_25  and  C_29
REMARK   12  A    between atoms: C_28  and  C_32
REMARK   13  A    between atoms: C_30  and  C_32
REMARK   14  A    between atoms: C_30  and  C_34
REMARK   15  A    between atoms: C_33  and  C_38
REMARK   16  A    between atoms: C_39  and  O_45
REMARK                            x       y       z     vdW  Elec       q    Type
REMARK                         _______ _______ _______ _____ _____    ______ ____
ROOT
ATOM      1  C   UNL     1      11.590   0.318  21.691  0.00  0.00    +0.000 C 
ATOM      2  C   UNL     1      12.051   1.139  20.948  0.00  0.00    +0.000 C 
ENDROOT
BRANCH   2   3
ATOM      3  C   UNL     1      12.644   2.184  19.993  0.00  0.00    +0.000 C 
BRANCH   3   4
ATOM      4  C   UNL     1      13.150   3.062  19.186  0.00  0.00    +0.000 C 
ATOM      5  C   UNL     1      12.307   3.645  18.092  0.00  0.00    +0.000 C 
BRANCH   4   7
ATOM      6  C   UNL     1      15.679   3.704  19.368  0.00  0.00    +0.000 C 
ATOM      7  C   UNL     1      14.518   3.410  19.287  0.00  0.00    +0.000 C 
BRANCH   6   8
ATOM      8  C   UNL     1      17.162   4.079  19.469  0.00  0.00    +0.000 C 
BRANCH   8   9
ATOM      9  C   UNL     1      18.419   4.389  19.555  0.00  0.00    +0.000 C 
ATOM     10  C   UNL     1      19.450   3.307  19.667  0.00  0.00    +0.000 C 
BRANCH   9  12
ATOM     11  C   UNL     1      19.150   6.884  19.236  0.00  0.00    +0.000 C 
ATOM     12  C   UNL     1      18.824   5.736  19.389  0.00  0.00    +0.000 C 
BRANCH  11  16
ATOM     13  O   UNL     1      21.990  10.273  17.120  0.00  0.00    +0.000 OA
ATOM     14  C   UNL     1      18.732   9.351  19.810  0.00  0.00    +0.000 C 
ATOM     15  C   UNL     1      19.327  10.617  19.418  0.00  0.00    +0.000 C 
ATOM     16  C   UNL     1      19.531   8.269  19.037  0.00  0.00    +0.000 C 
ATOM     17  C   UNL     1      20.351  11.067  18.591  0.00  0.00    +0.000 C 
ATOM     18  C   UNL     1      17.251   9.297  19.368  0.00  0.00    +0.000 C 
ATOM     19  C   UNL     1      18.901   9.129  21.329  0.00  0.00    +0.000 C 
ATOM     20  C   UNL     1      20.557   8.573  18.190  0.00  0.00    +0.000 C 
ATOM     21  C   UNL     1      21.073   9.988  17.879  0.00  0.00    +0.000 C 
ATOM     22  C   UNL     1      21.274   7.428  17.461  0.00  0.00    +0.000 C 
BRANCH  17  23
ATOM     23  O   UNL     1      20.664  12.391  18.441  0.00  0.00    +0.000 OA
ATOM     24  H   UNL     1      21.616  12.502  18.243  0.00  0.00    +0.000 HD
ENDBRANCH  17  23
ENDBRANCH  11  16
ENDBRANCH   9  12
ENDBRANCH   8   9
ENDBRANCH   6   8
ENDBRANCH   4   7
ENDBRANCH   3   4
ENDBRANCH   2   3
BRANCH   1  25
ATOM     25  C   UNL     1      11.008  -0.740  22.636  0.00  0.00    +0.000 C 
BRANCH  25  26
ATOM     26  C   UNL     1      10.513  -1.630  23.438  0.00  0.00    +0.000 C 
ATOM     27  C   UNL     1       9.463  -1.236  24.434  0.00  0.00    +0.000 C 
BRANCH  26  29
ATOM     28  C   UNL     1      11.458  -4.068  23.428  0.00  0.00    +0.000 C 
ATOM     29  C   UNL     1      11.023  -2.949  23.432  0.00  0.00    +0.000 C 
BRANCH  28  30
ATOM     30  C   UNL     1      12.018  -5.496  23.423  0.00  0.00    +0.000 C 
BRANCH  30  31
ATOM     31  C   UNL     1      12.491  -6.703  23.427  0.00  0.00    +0.000 C 
ATOM     32  C   UNL     1      11.968  -7.707  24.409  0.00  0.00    +0.000 C 
BRANCH  31  34
ATOM     33  C   UNL     1      14.137  -7.480  21.544  0.00  0.00    +0.000 C 
ATOM     34  C   UNL     1      13.382  -7.112  22.404  0.00  0.00    +0.000 C 
BRANCH  33  38
ATOM     35  O   UNL     1      15.489  -7.744  16.840  0.00  0.00    +0.000 OA
ATOM     36  C   UNL     1      16.267  -8.789  20.963  0.00  0.00    +0.000 C 
ATOM     37  C   UNL     1      16.988  -9.100  19.739  0.00  0.00    +0.000 C 
ATOM     38  C   UNL     1      15.049  -7.941  20.514  0.00  0.00    +0.000 C 
ATOM     39  C   UNL     1      16.867  -8.847  18.376  0.00  0.00    +0.000 C 
ATOM     40  C   UNL     1      17.156  -7.941  21.904  0.00  0.00    +0.000 C 
ATOM     41  C   UNL     1      15.771 -10.089  21.634  0.00  0.00    +0.000 C 
ATOM     42  C   UNL     1      14.815  -7.616  19.210  0.00  0.00    +0.000 C 
ATOM     43  C   UNL     1      15.689  -8.030  18.014  0.00  0.00    +0.000 C 
ATOM     44  C   UNL     1      13.588  -6.758  18.873  0.00  0.00    +0.000 C 
BRANCH  39  45
ATOM     45  O   UNL     1      17.763  -9.308  17.450  0.00  0.00    +0.000 OA
ATOM     46  H   UNL     1      17.987 -10.245  17.622  0.00  0.00    +0.000 HD
ENDBRANCH  39  45
ENDBRANCH  33  38
ENDBRANCH  31  34
ENDBRANCH  30  31
ENDBRANCH  28  30
ENDBRANCH  26  29
ENDBRANCH  25  26
ENDBRANCH   1  25
TORSDOF 16
ENDMDL
MODEL 8
REMARK VINA RESULT:      -6.7     13.309     23.126
REMARK  Name = 5281224_Astaxanthin.pdbqt.pdb
REMARK  16 active torsions:
REMARK  status: ('A' for Active; 'I' for Inactive)
REMARK    1  A    between atoms: C_1  and  C_5
REMARK    2  A    between atoms: C_2  and  C_27
REMARK    3  A    between atoms: C_3  and  C_5
REMARK    4  A    between atoms: C_3  and  C_7
REMARK    5  A    between atoms: C_6  and  C_10
REMARK    6  A    between atoms: C_8  and  C_10
REMARK    7  A    between atoms: C_8  and  C_12
REMARK    8  A    between atoms: C_11  and  C_16
REMARK    9  A    between atoms: C_17  and  O_23
REMARK   10  A    between atoms: C_25  and  C_27
REMARK   11  A    between atoms: C_25  and  C_29
REMARK   12  A    between atoms: C_28  and  C_32
REMARK   13  A    between atoms: C_30  and  C_32
REMARK   14  A    between atoms: C_30  and  C_34
REMARK   15  A    between atoms: C_33  and  C_38
REMARK   16  A    between atoms: C_39  and  O_45
REMARK                            x       y       z     vdW  Elec       q    Type
REMARK                         _______ _______ _______ _____ _____    ______ ____
ROOT
ATOM      1  C   UNL     1      22.092  20.495  22.574  0.00  0.00    +0.000 C 
ATOM      2  C   UNL     1      22.130  21.264  23.494  0.00  0.00    +0.000 C 
ENDROOT
BRANCH   2   3
ATOM      3  C   UNL     1      22.175  22.242  24.675  0.00  0.00    +0.000 C 
BRANCH   3   4
ATOM      4  C   UNL     1      22.214  23.073  25.669  0.00  0.00    +0.000 C 
ATOM      5  C   UNL     1      20.942  23.653  26.209  0.00  0.00    +0.000 C 
BRANCH   4   7
ATOM      6  C   UNL     1      24.519  23.852  26.630  0.00  0.00    +0.000 C 
ATOM      7  C   UNL     1      23.461  23.493  26.191  0.00  0.00    +0.000 C 
BRANCH   6   8
ATOM      8  C   UNL     1      25.870  24.313  27.188  0.00  0.00    +0.000 C 
BRANCH   8   9
ATOM      9  C   UNL     1      27.011  24.711  27.661  0.00  0.00    +0.000 C 
ATOM     10  C   UNL     1      27.835  25.699  26.893  0.00  0.00    +0.000 C 
BRANCH   9  12
ATOM     11  C   UNL     1      27.721  24.021  30.087  0.00  0.00    +0.000 C 
ATOM     12  C   UNL     1      27.401  24.329  28.968  0.00  0.00    +0.000 C 
BRANCH  11  16
ATOM     13  O   UNL     1      26.848  21.638  34.279  0.00  0.00    +0.000 OA
ATOM     14  C   UNL     1      29.427  24.248  31.992  0.00  0.00    +0.000 C 
ATOM     15  C   UNL     1      29.540  23.728  33.343  0.00  0.00    +0.000 C 
ATOM     16  C   UNL     1      28.099  23.666  31.440  0.00  0.00    +0.000 C 
ATOM     17  C   UNL     1      28.815  22.904  34.198  0.00  0.00    +0.000 C 
ATOM     18  C   UNL     1      30.601  23.739  31.123  0.00  0.00    +0.000 C 
ATOM     19  C   UNL     1      29.340  25.790  32.019  0.00  0.00    +0.000 C 
ATOM     20  C   UNL     1      27.294  22.841  32.173  0.00  0.00    +0.000 C 
ATOM     21  C   UNL     1      27.561  22.377  33.614  0.00  0.00    +0.000 C 
ATOM     22  C   UNL     1      26.008  22.305  31.528  0.00  0.00    +0.000 C 
BRANCH  17  23
ATOM     23  O   UNL     1      29.224  22.600  35.469  0.00  0.00    +0.000 OA
ATOM     24  H   UNL     1      28.546  22.070  35.934  0.00  0.00    +0.000 HD
ENDBRANCH  17  23
ENDBRANCH  11  16
ENDBRANCH   9  12
ENDBRANCH   8   9
ENDBRANCH   6   8
ENDBRANCH   4   7
ENDBRANCH   3   4
ENDBRANCH   2   3
BRANCH   1  25
ATOM     25  C   UNL     1      22.038  19.505  21.405  0.00  0.00    +0.000 C 
BRANCH  25  26
ATOM     26  C   UNL     1      21.999  18.669  20.415  0.00  0.00    +0.000 C 
ATOM     27  C   UNL     1      22.739  18.976  19.148  0.00  0.00    +0.000 C 
BRANCH  26  29
ATOM     28  C   UNL     1      20.503  16.529  20.567  0.00  0.00    +0.000 C 
ATOM     29  C   UNL     1      21.188  17.512  20.498  0.00  0.00    +0.000 C 
BRANCH  28  30
ATOM     30  C   UNL     1      19.629  15.270  20.653  0.00  0.00    +0.000 C 
BRANCH  30  31
ATOM     31  C   UNL     1      18.885  14.213  20.731  0.00  0.00    +0.000 C 
ATOM     32  C   UNL     1      17.516  14.303  21.334  0.00  0.00    +0.000 C 
BRANCH  31  34
ATOM     33  C   UNL     1      19.677  12.000  19.571  0.00  0.00    +0.000 C 
ATOM     34  C   UNL     1      19.302  13.012  20.104  0.00  0.00    +0.000 C 
BRANCH  33  38
ATOM     35  O   UNL     1      22.267   9.758  16.066  0.00  0.00    +0.000 OA
ATOM     36  C   UNL     1      19.692   9.434  19.525  0.00  0.00    +0.000 C 
ATOM     37  C   UNL     1      20.306   8.420  18.685  0.00  0.00    +0.000 C 
ATOM     38  C   UNL     1      20.146  10.790  18.925  0.00  0.00    +0.000 C 
ATOM     39  C   UNL     1      21.133   8.365  17.568  0.00  0.00    +0.000 C 
ATOM     40  C   UNL     1      20.222   9.320  20.974  0.00  0.00    +0.000 C 
ATOM     41  C   UNL     1      18.153   9.328  19.450  0.00  0.00    +0.000 C 
ATOM     42  C   UNL     1      20.961  10.880  17.833  0.00  0.00    +0.000 C 
ATOM     43  C   UNL     1      21.535   9.690  17.046  0.00  0.00    +0.000 C 
ATOM     44  C   UNL     1      21.364  12.271  17.327  0.00  0.00    +0.000 C 
BRANCH  39  45
ATOM     45  O   UNL     1      21.546   7.190  17.001  0.00  0.00    +0.000 OA
ATOM     46  H   UNL     1      21.655   7.291  16.033  0.00  0.00    +0.000 HD
ENDBRANCH  39  45
ENDBRANCH  33  38
ENDBRANCH  31  34
ENDBRANCH  30  31
ENDBRANCH  28  30
ENDBRANCH  26  29
ENDBRANCH  25  26
ENDBRANCH   1  25
TORSDOF 16
ENDMDL
MODEL 9
REMARK VINA RESULT:      -6.7      3.036      4.245
REMARK  Name = 5281224_Astaxanthin.pdbqt.pdb
REMARK  16 active torsions:
REMARK  status: ('A' for Active; 'I' for Inactive)
REMARK    1  A    between atoms: C_1  and  C_5
REMARK    2  A    between atoms: C_2  and  C_27
REMARK    3  A    between atoms: C_3  and  C_5
REMARK    4  A    between atoms: C_3  and  C_7
REMARK    5  A    between atoms: C_6  and  C_10
REMARK    6  A    between atoms: C_8  and  C_10
REMARK    7  A    between atoms: C_8  and  C_12
REMARK    8  A    between atoms: C_11  and  C_16
REMARK    9  A    between atoms: C_17  and  O_23
REMARK   10  A    between atoms: C_25  and  C_27
REMARK   11  A    between atoms: C_25  and  C_29
REMARK   12  A    between atoms: C_28  and  C_32
REMARK   13  A    between atoms: C_30  and  C_32
REMARK   14  A    between atoms: C_30  and  C_34
REMARK   15  A    between atoms: C_33  and  C_38
REMARK   16  A    between atoms: C_39  and  O_45
REMARK                            x       y       z     vdW  Elec       q    Type
REMARK                         _______ _______ _______ _____ _____    ______ ____
ROOT
ATOM      1  C   UNL     1      17.948  11.666  10.490  0.00  0.00    +0.000 C 
ATOM      2  C   UNL     1      17.525  11.048   9.552  0.00  0.00    +0.000 C 
ENDROOT
BRANCH   2   3
ATOM      3  C   UNL     1      16.978  10.254   8.359  0.00  0.00    +0.000 C 
BRANCH   3   4
ATOM      4  C   UNL     1      16.522   9.580   7.351  0.00  0.00    +0.000 C 
ATOM      5  C   UNL     1      15.074   9.681   6.977  0.00  0.00    +0.000 C 
BRANCH   4   7
ATOM      6  C   UNL     1      18.095   7.934   6.064  0.00  0.00    +0.000 C 
ATOM      7  C   UNL     1      17.372   8.689   6.653  0.00  0.00    +0.000 C 
BRANCH   6   8
ATOM      8  C   UNL     1      19.021   6.968   5.315  0.00  0.00    +0.000 C 
BRANCH   8   9
ATOM      9  C   UNL     1      19.803   6.155   4.674  0.00  0.00    +0.000 C 
ATOM     10  C   UNL     1      19.218   5.065   3.829  0.00  0.00    +0.000 C 
BRANCH   9  12
ATOM     11  C   UNL     1      22.389   6.576   4.637  0.00  0.00    +0.000 C 
ATOM     12  C   UNL     1      21.200   6.395   4.653  0.00  0.00    +0.000 C 
BRANCH  11  16
ATOM     13  O   UNL     1      26.351   9.182   5.875  0.00  0.00    +0.000 OA
ATOM     14  C   UNL     1      24.689   5.721   3.885  0.00  0.00    +0.000 C 
ATOM     15  C   UNL     1      26.060   6.177   4.035  0.00  0.00    +0.000 C 
ATOM     16  C   UNL     1      23.825   6.776   4.621  0.00  0.00    +0.000 C 
ATOM     17  C   UNL     1      26.737   7.240   4.626  0.00  0.00    +0.000 C 
ATOM     18  C   UNL     1      24.506   4.348   4.573  0.00  0.00    +0.000 C 
ATOM     19  C   UNL     1      24.298   5.687   2.391  0.00  0.00    +0.000 C 
ATOM     20  C   UNL     1      24.362   7.865   5.247  0.00  0.00    +0.000 C 
ATOM     21  C   UNL     1      25.859   8.210   5.316  0.00  0.00    +0.000 C 
ATOM     22  C   UNL     1      23.419   8.843   5.962  0.00  0.00    +0.000 C 
BRANCH  17  23
ATOM     23  O   UNL     1      28.099   7.376   4.581  0.00  0.00    +0.000 OA
ATOM     24  H   UNL     1      28.468   7.470   5.482  0.00  0.00    +0.000 HD
ENDBRANCH  17  23
ENDBRANCH  11  16
ENDBRANCH   9  12
ENDBRANCH   8   9
ENDBRANCH   6   8
ENDBRANCH   4   7
ENDBRANCH   3   4
ENDBRANCH   2   3
BRANCH   1  25
ATOM     25  C   UNL     1      18.481  12.452  11.693  0.00  0.00    +0.000 C 
BRANCH  25  26
ATOM     26  C   UNL     1      18.928  13.119  12.711  0.00  0.00    +0.000 C 
ATOM     27  C   UNL     1      18.788  14.611  12.745  0.00  0.00    +0.000 C 
BRANCH  26  29
ATOM     28  C   UNL     1      20.217  11.884  14.623  0.00  0.00    +0.000 C 
ATOM     29  C   UNL     1      19.624  12.450  13.745  0.00  0.00    +0.000 C 
BRANCH  28  30
ATOM     30  C   UNL     1      20.978  11.163  15.743  0.00  0.00    +0.000 C 
BRANCH  30  31
ATOM     31  C   UNL     1      21.627  10.556  16.685  0.00  0.00    +0.000 C 
ATOM     32  C   UNL     1      23.105  10.762  16.828  0.00  0.00    +0.000 C 
BRANCH  31  34
ATOM     33  C   UNL     1      20.316   9.188  18.495  0.00  0.00    +0.000 C 
ATOM     34  C   UNL     1      20.918   9.825  17.671  0.00  0.00    +0.000 C 
BRANCH  33  38
ATOM     35  O   UNL     1      18.557   4.898  20.082  0.00  0.00    +0.000 OA
ATOM     36  C   UNL     1      19.018   9.152  20.709  0.00  0.00    +0.000 C 
ATOM     37  C   UNL     1      18.355   8.129  21.500  0.00  0.00    +0.000 C 
ATOM     38  C   UNL     1      19.589   8.405  19.476  0.00  0.00    +0.000 C 
ATOM     39  C   UNL     1      18.124   6.758  21.435  0.00  0.00    +0.000 C 
ATOM     40  C   UNL     1      20.186   9.773  21.510  0.00  0.00    +0.000 C 
ATOM     41  C   UNL     1      17.995  10.210  20.241  0.00  0.00    +0.000 C 
ATOM     42  C   UNL     1      19.439   7.061  19.290  0.00  0.00    +0.000 C 
ATOM     43  C   UNL     1      18.698   6.104  20.238  0.00  0.00    +0.000 C 
ATOM     44  C   UNL     1      20.058   6.416  18.042  0.00  0.00    +0.000 C 
BRANCH  39  45
ATOM     45  O   UNL     1      17.431   6.071  22.394  0.00  0.00    +0.000 OA
ATOM     46  H   UNL     1      16.542   5.821  22.067  0.00  0.00    +0.000 HD
ENDBRANCH  39  45
ENDBRANCH  33  38
ENDBRANCH  31  34
ENDBRANCH  30  31
ENDBRANCH  28  30
ENDBRANCH  26  29
ENDBRANCH  25  26
ENDBRANCH   1  25
TORSDOF 16
ENDMDL
